#    Name: 6u1v_2_FDA
#    Modification time : Fri May 22 19:31:32 2020

@<TRIPOS>MOLECULE
6u1v_2_FDA
   86    91     1     0     0
SMALL
NO_CHARGES


@<TRIPOS>ATOM
      1 PA         67.5600    9.1060   44.3070 P.3       1 FDA401      0.0000 
      2 O1A        68.9710    9.6240   44.0870 O.co2     1 FDA401      0.0000 
      3 O2A        67.3880    7.8030   43.7010 O.co2     1 FDA401      0.0000 
      4 O5B        66.5050   10.1870   43.7210 O.3       1 FDA401      0.0000 
      5 C5B        66.5640   11.5010   44.2150 C.3       1 FDA401      0.0000 
      6 C4B        65.9500   12.3470   43.0980 C.3       1 FDA401      0.0000 
      7 O4B        66.7410   12.3570   41.9910 O.3       1 FDA401      0.0000 
      8 C3B        64.6000   11.7420   42.6020 C.3       1 FDA401      0.0000 
      9 O3B        63.5700   12.1480   43.4370 O.3       1 FDA401      0.0000 
     10 C2B        64.5800   12.4150   41.1890 C.3       1 FDA401      0.0000 
     11 O2B        64.1890   13.8540   41.3760 O.3       1 FDA401      0.0000 
     12 C1B        65.8370   12.3980   40.7130 C.3       1 FDA401      0.0000 
     13 N9A        66.1740   11.1910   39.9570 N.pl3     1 FDA401      0.0000 
     14 C8A        66.7440   10.0670   40.4240 C.2       1 FDA401      0.0000 
     15 N7A        66.8690    9.1700   39.4360 N.2       1 FDA401      0.0000 
     16 C5A        66.3690    9.7970   38.3250 C.ar      1 FDA401      0.0000 
     17 C6A        66.2270    9.3660   37.0370 C.ar      1 FDA401      0.0000 
     18 N6A        66.6150    8.0980   36.4810 N.pl3     1 FDA401      0.0000 
     19 N1A        65.7210   10.1790   36.1170 N.ar      1 FDA401      0.0000 
     20 C2A        65.3090   11.4090   36.4680 C.ar      1 FDA401      0.0000 
     21 N3A        65.4090   11.8460   37.7420 N.ar      1 FDA401      0.0000 
     22 C4A        65.9470   11.0240   38.6650 C.ar      1 FDA401      0.0000 
     23 N1         67.7660    1.8030   52.0030 N.am      1 FDA401      0.0000 
     24 C2         68.4480    0.6060   52.3680 C.2       1 FDA401      0.0000 
     25 O2         69.4990    0.3040   51.8830 O.2       1 FDA401      0.0000 
     26 N3         67.8380   -0.2180   53.3520 N.am      1 FDA401      0.0000 
     27 C4         66.6270    0.0850   53.9460 C.2       1 FDA401      0.0000 
     28 O4         66.2000   -0.6150   54.8310 O.2       1 FDA401      0.0000 
     29 C4X        65.9360    1.3600   53.5540 C.2       1 FDA401      0.0000 
     30 N5         64.6670    1.7090   54.1160 N.pl3     1 FDA401      0.0000 
     31 C5X        64.2970    3.1180   54.0640 C.ar      1 FDA401      0.0000 
     32 C6         63.3360    3.6150   54.9130 C.ar      1 FDA401      0.0000 
     33 C7         62.9480    4.9510   54.8230 C.ar      1 FDA401      0.0000 
     34 C7M        61.8720    5.4170   55.7980 C.3       1 FDA401      0.0000 
     35 C8         63.5610    5.7800   53.8990 C.ar      1 FDA401      0.0000 
     36 C8M        63.2270    7.2600   53.7140 C.3       1 FDA401      0.0000 
     37 C9         64.5200    5.2810   53.0350 C.ar      1 FDA401      0.0000 
     38 C9A        64.8910    3.9500   53.1130 C.ar      1 FDA401      0.0000 
     39 N10        65.8720    3.3870   52.2150 N.pl3     1 FDA401      0.0000 
     40 C10        66.5010    2.1630   52.6030 C.2       1 FDA401      0.0000 
     41 C1'        66.4510    4.2400   51.1680 C.3       1 FDA401      0.0000 
     42 C2'        65.4160    4.3830   50.0360 C.3       1 FDA401      0.0000 
     43 O2'        65.1130    3.1440   49.5110 O.3       1 FDA401      0.0000 
     44 C3'        65.9780    5.3040   48.9320 C.3       1 FDA401      0.0000 
     45 O3'        65.9950    6.5800   49.5850 O.3       1 FDA401      0.0000 
     46 C4'        65.1510    5.3150   47.6760 C.3       1 FDA401      0.0000 
     47 O4'        65.4570    4.1470   46.9300 O.3       1 FDA401      0.0000 
     48 C5'        65.5790    6.5260   46.8160 C.3       1 FDA401      0.0000 
     49 O5'        67.0020    6.5580   46.6740 O.3       1 FDA401      0.0000 
     50 P          67.7520    7.9780   47.0080 P.3       1 FDA401      0.0000 
     51 O1P        67.2550    8.6090   48.2880 O.co2     1 FDA401      0.0000 
     52 O2P        69.2490    7.8530   46.9450 O.co2     1 FDA401      0.0000 
     53 O3P        67.2370    9.0890   45.9320 O.3       1 FDA401      0.0000 
     54 H51A       67.4830   11.7650   44.3820 H         1 FDA401      0.0000 
     55 H52A       66.0500   11.5850   45.0330 H         1 FDA401      0.0000 
     56 H4B        65.8170   13.2490   43.4300 H         1 FDA401      0.0000 
     57 H3B        64.5450   10.7740   42.5540 H         1 FDA401      0.0000 
     58 HO3A       62.9740   11.5320   43.4120 H         1 FDA401      0.0000 
     59 H2B        63.9970   11.9150   40.5960 H         1 FDA401      0.0000 
     60 HO2A       63.4430   13.9930   40.9930 H         1 FDA401      0.0000 
     61 H1B        65.9380   13.1880   40.1590 H         1 FDA401      0.0000 
     62 H8A        67.0130    9.9310   41.3040 H         1 FDA401      0.0000 
     63 H61A       67.4280    7.9700   36.2230 H         1 FDA401      0.0000 
     64 H62A       66.0420    7.4600   36.4200 H         1 FDA401      0.0000 
     65 H2A        64.9470   11.9700   35.8200 H         1 FDA401      0.0000 
     66 HN1        68.1150    2.3230   51.4130 H         1 FDA401      0.0000 
     67 HN3        68.2420   -0.9390   53.5900 H         1 FDA401      0.0000 
     68 HN5        64.1500    1.1180   54.4650 H         1 FDA401      0.0000 
     69 H6         62.9440    3.0590   55.5480 H         1 FDA401      0.0000 
     70 HM71       62.2850    5.6690   56.6380 H         1 FDA401      0.0000 
     71 HM72       61.4050    6.1800   55.4240 H         1 FDA401      0.0000 
     72 HM73       61.2410    4.6960   55.9520 H         1 FDA401      0.0000 
     73 HM81       62.5270    7.3520   53.0490 H         1 FDA401      0.0000 
     74 HM82       64.0190    7.7350   53.4190 H         1 FDA401      0.0000 
     75 HM83       62.9230    7.6300   54.5570 H         1 FDA401      0.0000 
     76 H9         64.9150    5.8390   52.4040 H         1 FDA401      0.0000 
     77 H1'1       66.6600    5.1140   51.5340 H         1 FDA401      0.0000 
     78 H1'2       67.2610    3.8330   50.8230 H         1 FDA401      0.0000 
     79 H2'        64.6040    4.7750   50.3940 H         1 FDA401      0.0000 
     80 HO2'       65.8230    2.8110   49.1610 H         1 FDA401      0.0000 
     81 H3'        66.8460    5.0150   48.6100 H         1 FDA401      0.0000 
     82 HO3'       65.2170    6.9260   49.5150 H         1 FDA401      0.0000 
     83 H4'        64.2080    5.3580   47.8990 H         1 FDA401      0.0000 
     84 HO4'       66.0490    4.3190   46.3540 H         1 FDA401      0.0000 
     85 H5'1       65.1710    6.4550   45.9380 H         1 FDA401      0.0000 
     86 H5'2       65.2820    7.3440   47.2450 H         1 FDA401      0.0000 
@<TRIPOS>BOND
     1    1    2 ar   
     2    1    3 ar   
     3    1    4 1    
     4    1   53 1    
     5    4    5 1    
     6    5    6 1    
     7    5   54 1    
     8    5   55 1    
     9    6    7 1    
    10    6    8 1    
    11    6   56 1    
    12    7   12 1    
    13    8    9 1    
    14    8   10 1    
    15    8   57 1    
    16    9   58 1    
    17   10   11 1    
    18   10   12 1    
    19   10   59 1    
    20   12   61 1    
    21   12   13 1    
    22   11   60 1    
    23   13   14 1    
    24   13   22 1    
    25   14   15 2    
    26   15   16 1    
    27   14   62 1    
    28   16   17 ar   
    29   16   22 ar   
    30   17   18 1    
    31   17   19 ar   
    32   19   20 ar   
    33   18   63 1    
    34   18   64 1    
    35   20   21 ar   
    36   21   22 ar   
    37   20   65 1    
    38   23   24 1    
    39   24   25 2    
    40   23   66 1    
    41   23   40 1    
    42   24   26 1    
    43   26   27 1    
    44   27   28 2    
    45   26   67 1    
    46   27   29 1    
    47   29   30 1    
    48   29   40 2    
    49   30   31 1    
    50   31   32 ar   
    51   30   68 1    
    52   31   38 ar   
    53   32   33 ar   
    54   33   34 1    
    55   32   69 1    
    56   33   35 ar   
    57   34   70 1    
    58   34   71 1    
    59   34   72 1    
    60   35   36 1    
    61   35   37 ar   
    62   36   73 1    
    63   36   74 1    
    64   36   75 1    
    65   37   38 ar   
    66   38   39 1    
    67   37   76 1    
    68   39   40 1    
    69   39   41 1    
    70   41   42 1    
    71   41   77 1    
    72   41   78 1    
    73   42   43 1    
    74   42   44 1    
    75   42   79 1    
    76   43   80 1    
    77   44   45 1    
    78   44   46 1    
    79   44   81 1    
    80   45   82 1    
    81   46   47 1    
    82   46   48 1    
    83   46   83 1    
    84   47   84 1    
    85   48   49 1    
    86   48   85 1    
    87   48   86 1    
    88   49   50 1    
    89   50   51 ar   
    90   50   52 ar   
    91   50   53 1    
@<TRIPOS>SUBSTRUCTURE
     1 FDA401      1 GROUP   
@<TRIPOS>SET

