#    Name: 6c71_5_FAD
#    Modification time : Fri May 22 19:42:01 2020

@<TRIPOS>MOLECULE
6c71_5_FAD
   53    58     1     0     1
SMALL
NO_CHARGES


@<TRIPOS>ATOM
      1 PA         33.8280   78.9260   45.7290 P.3       1 FAD502      0.0000 
      2 O1A        34.6220   79.2470   46.9430 O.co2     1 FAD502      0.0000 
      3 O2A        32.6000   79.8510   45.4900 O.co2     1 FAD502      0.0000 
      4 O5B        33.4070   77.3720   45.7290 O.3       1 FAD502      0.0000 
      5 C5B        34.2690   76.3500   46.1860 C.3       1 FAD502      0.0000 
      6 C4B        33.4500   75.3360   46.9760 C.3       1 FAD502      0.0000 
      7 O4B        34.3280   74.3340   47.4270 O.3       1 FAD502      0.0000 
      8 C3B        32.8510   75.9670   48.2240 C.3       1 FAD502      0.0000 
      9 O3B        31.4760   75.6220   48.2850 O.3       1 FAD502      0.0000 
     10 C2B        33.5660   75.3060   49.3670 C.3       1 FAD502      0.0000 
     11 O2B        32.6400   75.1650   50.4260 O.3       1 FAD502      0.0000 
     12 C1B        34.0040   73.9790   48.7600 C.3       1 FAD502      0.0000 
     13 N9A        35.1840   73.2770   49.3150 N.pl3     1 FAD502      0.0000 
     14 C8A        36.3830   73.7820   49.7610 C.2       1 FAD502      0.0000 
     15 N7A        37.1860   72.7680   50.1780 N.2       1 FAD502      0.0000 
     16 C5A        36.5180   71.6000   50.0020 C.ar      1 FAD502      0.0000 
     17 C6A        36.8620   70.2610   50.2540 C.ar      1 FAD502      0.0000 
     18 N6A        38.0730   69.8990   50.7840 N.pl3     1 FAD502      0.0000 
     19 N1A        35.9000   69.3030   49.9360 N.ar      1 FAD502      0.0000 
     20 C2A        34.6660   69.6170   49.4030 C.ar      1 FAD502      0.0000 
     21 N3A        34.3660   70.9380   49.1690 N.ar      1 FAD502      0.0000 
     22 C4A        35.2660   71.9070   49.4580 C.ar      1 FAD502      0.0000 
     23 N1         32.1150   88.0790   42.4290 N.2       1 FAD502      0.0000 
     24 C2         31.2060   88.7490   41.6090 C.2       1 FAD502      0.0000 
     25 O2         31.0000   88.3390   40.4580 O.2       1 FAD502      0.0000 
     26 N3         30.5130   89.8770   42.0510 N.am      1 FAD502      0.0000 
     27 C4         30.7320   90.3410   43.3370 C.2       1 FAD502      0.0000 
     28 O4         30.1430   91.3380   43.7760 O.2       1 FAD502      0.0000 
     29 C4X        31.6360   89.6890   44.1630 C.2       1 FAD502      0.0000 
     30 N5         31.8430   90.1710   45.4510 N.2       1 FAD502      0.0000 
     31 C5X        32.5870   89.4760   46.3680 C.ar      1 FAD502      0.0000 
     32 C6         32.4510   89.7980   47.7170 C.ar      1 FAD502      0.0000 
     33 C7         32.8140   88.8660   48.6910 C.ar      1 FAD502      0.0000 
     34 C7M        32.6470   89.2670   50.1470 C.3       1 FAD502      0.0000 
     35 C8         33.3140   87.6060   48.2900 C.ar      1 FAD502      0.0000 
     36 C8M        33.7330   86.5300   49.2720 C.3       1 FAD502      0.0000 
     37 C9         33.4390   87.3090   46.9330 C.ar      1 FAD502      0.0000 
     38 C9A        33.0820   88.2250   45.9640 C.ar      1 FAD502      0.0000 
     39 N10        33.2060   87.9520   44.5970 N.pl3     1 FAD502      0.0000 
     40 C10        32.3280   88.5550   43.7140 C.2       1 FAD502      0.0000 
     41 C1'        33.9710   86.7510   44.1500 C.3       1 FAD502      0.0000 
     42 C2'        33.1500   85.4860   44.0340 C.3       1 FAD502      0.0000 
     43 O2'        31.9190   85.4050   44.6970 O.3       1 FAD502      0.0000 
     44 C3'        33.9130   84.2210   43.6300 C.3       1 FAD502      0.0000 
     45 O3'        34.6720   84.5370   42.4900 O.3       1 FAD502      0.0000 
     46 C4'        33.0630   83.0660   43.1440 C.3       1 FAD502      0.0000 
     47 O4'        31.9960   82.8010   44.0250 O.3       1 FAD502      0.0000 
     48 C5'        34.0320   81.9060   43.0180 C.3       1 FAD502      0.0000 
     49 O5'        33.3230   80.7040   42.9390 O.3       1 FAD502      0.0000 
     50 P          34.1400   79.3010   42.9150 P.3       1 FAD502      0.0000 
     51 O1P        33.2430   78.1680   42.5090 O.co2     1 FAD502      0.0000 
     52 O2P        35.2630   79.5050   41.8660 O.co2     1 FAD502      0.0000 
     53 O3P        34.6530   79.0610   44.2690 O.3       1 FAD502      0.0000 
@<TRIPOS>BOND
     1    1    2 ar   
     2    1    3 ar   
     3    1    4 1    
     4    1   53 1    
     5    4    5 1    
     6    5    6 1    
     7    6    7 1    
     8    6    8 1    
     9    7   12 1    
    10    8    9 1    
    11    8   10 1    
    12   10   11 1    
    13   10   12 1    
    14   12   13 1    
    15   13   14 1    
    16   13   22 1    
    17   14   15 2    
    18   15   16 1    
    19   16   17 ar   
    20   16   22 ar   
    21   17   18 1    
    22   17   19 ar   
    23   19   20 ar   
    24   20   21 ar   
    25   21   22 ar   
    26   23   24 1    
    27   23   40 2    
    28   24   25 2    
    29   24   26 am   
    30   26   27 am   
    31   27   28 2    
    32   27   29 1    
    33   29   30 2    
    34   29   40 1    
    35   30   31 1    
    36   31   32 ar   
    37   31   38 ar   
    38   32   33 ar   
    39   33   34 1    
    40   33   35 ar   
    41   35   36 1    
    42   35   37 ar   
    43   37   38 ar   
    44   38   39 1    
    45   39   40 1    
    46   39   41 1    
    47   41   42 1    
    48   42   43 1    
    49   42   44 1    
    50   44   45 1    
    51   44   46 1    
    52   46   47 1    
    53   46   48 1    
    54   48   49 1    
    55   49   50 1    
    56   50   51 ar   
    57   50   52 ar   
    58   50   53 1    
@<TRIPOS>SUBSTRUCTURE
     1 FAD502      1 GROUP   
@<TRIPOS>SET
ATOM$ORANGE STATIC     ATOMS   COLORGROUP SYSTEM 
54 5 5 6 6 8 8 10 10 12 12 14 14 16 16 17 17 20 \
20 22 22 24 24 27 27 29 29 31 31 32 32 33 33 34 34 35 \
35 36 36 37 37 38 38 40 40 41 41 42 42 44 44 46 46 48 \
48 

