#    Name: 5y2d_1_ALA_ALA_ALA_CAVITY_N1_4
#    Modification time : Fri May 22 19:22:05 2020

@<TRIPOS>MOLECULE
5y2d_1_ALA_ALA_ALA_CAVITY_N1_4
   39     0     3     0     0
SMALL
NO_CHARGES


@<TRIPOS>ATOM
      1 N          87.8100  128.8400   15.9400 N.am      1 ALA2        0.0000 
      2 N          88.4600  131.3400   16.2200 N.am      1 ALA2        0.0000 
      3 N          89.3500  130.2700   15.6700 N.am      1 ALA2        0.0000 
      4 N          88.8700  132.2600   15.1100 N.am      1 ALA2        0.0000 
      5 N          86.1000  138.3700   15.0800 N.am      1 ALA2        0.0000 
      6 N          87.0000  137.3000   14.5300 N.am      1 ALA2        0.0000 
      7 O          87.8900  136.2300   13.9800 O.2       1 ALA2        0.0000 
      8 N          86.5100  139.2800   13.9600 N.am      1 ALA2        0.0000 
      9 N          87.4100  138.2100   13.4100 N.am      1 ALA2        0.0000 
     10 O          88.3000  137.1500   12.8600 O.2       1 ALA2        0.0000 
     11 N          89.5800  131.8500   17.0600 N.am      1 ALA2        0.0000 
     12 N          90.4800  130.7900   16.5100 N.am      1 ALA2        0.0000 
     13 N          91.3800  129.7200   15.9600 N.am      1 ALA2        0.0000 
     14 O          92.2800  128.6500   15.4100 O.2       1 ALA2        0.0000 
     15 N          90.0000  132.7700   15.9500 N.am      1 ALA2        0.0000 
     16 N          89.5100  134.7600   15.3800 N.am      1 ALA2        0.0000 
     17 N          88.1200  137.8100   15.3700 N.am      1 ALA2        0.0000 
     18 N          88.5400  138.7300   14.2600 N.am      1 ALA2        0.0000 
     19 O          89.4300  137.6600   13.7100 O.2       1 ALA2        0.0000 
     20 O          90.3300  136.5900   13.1600 O.2       1 ALA2        0.0000 
     21 N          88.9500  139.6500   13.1400 N.am      1 ALA2        0.0000 
     22 N          89.8500  138.5800   12.5900 N.am      1 ALA2        0.0000 
     23 N          90.5600  138.1800   14.5500 N.am      1 ALA2        0.0000 
     24 CA         90.2500  129.2000   15.1200 C.3       2 GLY6        0.0000 
     25 CA         91.1500  128.1300   14.5700 C.3       2 GLY6        0.0000 
     26 CA         87.8200  139.1300   12.3000 C.3       2 GLY6        0.0000 
     27 CA         86.8200  137.9600   17.0300 C.3       2 GLY6        0.0000 
     28 CA         87.7100  136.9000   16.4800 C.3       2 GLY6        0.0000 
     29 CA         89.9200  135.6800   14.2700 C.3       2 GLY6        0.0000 
     30 CA         89.2500  138.3300   16.2100 C.3       2 GLY6        0.0000 
     31 CA         90.1500  137.2600   15.6600 C.3       2 GLY6        0.0000 
     32 DU         85.6900  137.4500   16.1900 H         3 CUB7        0.0000 
     33 DU         86.5800  136.3800   15.6400 H         3 CUB7        0.0000 
     34 DU         87.4800  135.3100   15.0900 H         3 CUB7        0.0000 
     35 DU         87.3000  135.9800   17.6000 H         3 CUB7        0.0000 
     36 DU         88.2000  134.9100   17.0500 H         3 CUB7        0.0000 
     37 DU         89.1000  133.8400   16.5000 H         3 CUB7        0.0000 
     38 DU         88.6100  135.8300   15.9300 H         3 CUB7        0.0000 
     39 DU         89.0200  136.7400   14.8200 H         3 CUB7        0.0000 
@<TRIPOS>BOND
@<TRIPOS>SUBSTRUCTURE
     1 ALA2        1 GROUP   
     2 GLY6       24 GROUP   
     3 CUB7       32 GROUP   
@<TRIPOS>SET

