#    Name: 5y2d_1_ALA_ALA_ALA
#    Modification time : Fri May 22 19:22:05 2020

@<TRIPOS>MOLECULE
5y2d_1_ALA_ALA_ALA
   15    14     3     0     0
SMALL
NO_CHARGES


@<TRIPOS>ATOM
      1 N          88.5170  127.3480   15.8930 N.4       1 ALA1        0.0000 
      2 CA         88.9620  127.8300   14.6030 C.3       1 ALA1        0.0000 
      3 C          87.8800  128.5710   13.8430 C.2       1 ALA1        0.0000 
      4 O          87.1160  127.9540   13.1260 O.2       1 ALA1        0.0000 
      5 CB         89.4840  126.6780   13.7780 C.3       1 ALA1        0.0000 
      6 N          87.8400  129.8950   13.9940 N.am      2 ALA2        0.0000 
      7 CA         86.8460  130.7400   13.3300 C.3       2 ALA2        0.0000 
      8 C          87.1920  132.2200   13.2360 C.2       2 ALA2        0.0000 
      9 O          88.3220  132.6260   13.4210 O.2       2 ALA2        0.0000 
     10 CB         85.4820  130.5850   13.9800 C.3       2 ALA2        0.0000 
     11 N          86.1620  133.0100   12.9600 N.am      3 ALA3        0.0000 
     12 CA         86.2500  134.4560   12.7630 C.3       3 ALA3        0.0000 
     13 C          87.1610  135.2000   13.6950 C.2       3 ALA3        0.0000 
     14 O          87.1840  136.4220   13.6560 O.2       3 ALA3        0.0000 
     15 CB         84.8690  135.0830   12.7990 C.3       3 ALA3        0.0000 
@<TRIPOS>BOND
     1    1    2 1    
     2    2    3 1    
     3    2    5 1    
     4    3    4 2    
     5    3    6 am   
     6    6    7 1    
     7    7    8 1    
     8    7   10 1    
     9    8    9 2    
    10    8   11 am   
    11   11   12 1    
    12   12   13 1    
    13   12   15 1    
    14   13   14 2    
@<TRIPOS>SUBSTRUCTURE
     1 ALA1        1 RESIDUE 
     2 ALA2        6 RESIDUE 
     3 ALA3       11 RESIDUE 
@<TRIPOS>SET

