#    Name: 6tpj_2_SUV
#    Modification time : Fri May 22 19:24:45 2020

@<TRIPOS>MOLECULE
6tpj_2_SUV
   55    59     1     0     0
SMALL
NO_CHARGES


@<TRIPOS>ATOM
      1 C1         13.3230  -21.5130   41.3090           1 SUV2101     0.0000 
      2 N1         14.1970  -22.5360   41.1490           1 SUV2101     0.0000 
      3 O1         12.4700  -21.2240   40.2610           1 SUV2101     0.0000 
      4 CL1         9.6580  -16.9630   42.9780           1 SUV2101     0.0000 
      5 N2         13.1570  -20.7810   42.3610           1 SUV2101     0.0000 
      6 O2         17.6810  -20.0610   40.8760           1 SUV2101     0.0000 
      7 C3         12.1130  -19.9160   42.0270           1 SUV2101     0.0000 
      8 N3         16.4480  -21.7650   40.1030           1 SUV2101     0.0000 
      9 C4         11.4890  -18.9100   42.7380           1 SUV2101     0.0000 
     10 N4         17.2340  -20.0400   37.2270           1 SUV2101     0.0000 
     11 C5         10.4680  -18.2380   42.1090           1 SUV2101     0.0000 
     12 N5         17.2790  -20.1570   35.8960           1 SUV2101     0.0000 
     13 C6         10.0550  -18.5280   40.8090           1 SUV2101     0.0000 
     14 N6         18.2830  -20.6080   37.8350           1 SUV2101     0.0000 
     15 C7         10.6830  -19.5290   40.0960           1 SUV2101     0.0000 
     16 C8         11.6960  -20.1950   40.7400           1 SUV2101     0.0000 
     17 C11        14.4320  -23.0300   39.7860           1 SUV2101     0.0000 
     18 C12        15.5360  -22.2800   39.0650           1 SUV2101     0.0000 
     19 C14        16.9320  -22.6410   41.2210           1 SUV2101     0.0000 
     20 C15        16.1180  -23.8600   41.6300           1 SUV2101     0.0000 
     21 C16        14.8420  -23.2710   42.2380           1 SUV2101     0.0000 
     22 C17        16.7990  -20.4640   40.1250           1 SUV2101     0.0000 
     23 C19        16.0260  -19.4830   39.2930           1 SUV2101     0.0000 
     24 C20        16.2160  -19.3070   37.9210           1 SUV2101     0.0000 
     25 C21        15.4200  -18.3980   37.2370           1 SUV2101     0.0000 
     26 C22        14.4490  -17.6790   37.9180           1 SUV2101     0.0000 
     27 C23        14.2330  -17.8440   39.2850           1 SUV2101     0.0000 
     28 C24        15.0310  -18.7570   39.9530           1 SUV2101     0.0000 
     29 C27        18.3840  -20.8640   35.6520           1 SUV2101     0.0000 
     30 C28        19.0050  -21.1430   36.8510           1 SUV2101     0.0000 
     31 C29        13.1730  -17.0670   40.0250           1 SUV2101     0.0000 
     32 C30        18.4420  -22.8110   41.0830           1 SUV2101     0.0000 
     33 H1         11.7540  -18.6990   43.6060           1 SUV2101     0.0000 
     34 H2          9.3480  -18.0400   40.4180           1 SUV2101     0.0000 
     35 H3         10.4260  -19.7410   39.2140           1 SUV2101     0.0000 
     36 H4         14.6640  -23.9800   39.8300           1 SUV2101     0.0000 
     37 H5         13.6010  -22.9490   39.2730           1 SUV2101     0.0000 
     38 H6         16.0170  -22.8760   38.4520           1 SUV2101     0.0000 
     39 H7         15.1660  -21.5410   38.5370           1 SUV2101     0.0000 
     40 H8         16.7420  -22.1550   42.0610           1 SUV2101     0.0000 
     41 H9         16.6060  -24.4100   42.2820           1 SUV2101     0.0000 
     42 H10        15.9170  -24.4290   40.8550           1 SUV2101     0.0000 
     43 H11        14.2560  -23.9790   42.5760           1 SUV2101     0.0000 
     44 H12        15.0520  -22.6740   42.9850           1 SUV2101     0.0000 
     45 H13        15.5400  -18.2710   36.3130           1 SUV2101     0.0000 
     46 H14        13.9180  -17.0610   37.4430           1 SUV2101     0.0000 
     47 H15        14.8940  -18.8890   40.8780           1 SUV2101     0.0000 
     48 H16        18.6750  -21.1210   34.7920           1 SUV2101     0.0000 
     49 H17        19.8050  -21.6280   36.9750           1 SUV2101     0.0000 
     50 H18        13.2010  -17.2960   40.9680           1 SUV2101     0.0000 
     51 H19        12.2980  -17.2870   39.6650           1 SUV2101     0.0000 
     52 H20        13.3340  -16.1160   39.9200           1 SUV2101     0.0000 
     53 H21        18.7840  -23.3060   41.8470           1 SUV2101     0.0000 
     54 H22        18.8650  -21.9360   41.0480           1 SUV2101     0.0000 
     55 H23        18.6390  -23.3000   40.2650           1 SUV2101     0.0000 
@<TRIPOS>BOND
     1    1    2 du   
     2    1    3 du   
     3    1    5 du   
     4    2   17 du   
     5    2   21 du   
     6    3   16 du   
     7    4   11 du   
     8    5    7 du   
     9    6   22 du   
    10    7    9 du   
    11    7   16 du   
    12    8   18 du   
    13    8   19 du   
    14    8   22 du   
    15    9   11 du   
    16   10   12 du   
    17    9   33 1    
    18   10   14 du   
    19   10   24 du   
    20   11   13 du   
    21   12   29 du   
    22   13   15 du   
    23   14   30 du   
    24   13   34 1    
    25   15   16 du   
    26   17   18 du   
    27   15   35 1    
    28   17   36 1    
    29   17   37 1    
    30   18   38 1    
    31   18   39 1    
    32   19   20 du   
    33   19   32 du   
    34   19   40 1    
    35   20   21 du   
    36   20   41 1    
    37   20   42 1    
    38   21   43 1    
    39   21   44 1    
    40   22   23 du   
    41   23   24 du   
    42   23   28 du   
    43   24   25 du   
    44   25   26 du   
    45   26   27 du   
    46   25   45 1    
    47   27   28 du   
    48   26   46 1    
    49   27   31 du   
    50   29   30 du   
    51   28   47 1    
    52   31   50 1    
    53   29   48 1    
    54   30   49 1    
    55   31   51 1    
    56   31   52 1    
    57   32   53 1    
    58   32   54 1    
    59   32   55 1    
@<TRIPOS>SUBSTRUCTURE
     1 SUV2101     1 GROUP   
@<TRIPOS>SET

