#    Name: 6tpj_1_SUV
#    Modification time : Fri May 22 19:24:41 2020

@<TRIPOS>MOLECULE
6tpj_1_SUV
   55    59     1     0     0
SMALL
NO_CHARGES


@<TRIPOS>ATOM
      1 C1         18.5550   16.7580   22.0280           1 SUV1202     0.0000 
      2 N1         17.6080   15.7720   22.1710           1 SUV1202     0.0000 
      3 O1         19.3400   17.0930   23.1150           1 SUV1202     0.0000 
      4 CL1        22.4370   21.1630   20.3800           1 SUV1202     0.0000 
      5 N2         18.8150   17.4330   20.9510           1 SUV1202     0.0000 
      6 O2         14.0540   18.2120   22.3300           1 SUV1202     0.0000 
      7 C3         19.8550   18.2990   21.3090           1 SUV1202     0.0000 
      8 N3         15.2370   16.4880   23.1540           1 SUV1202     0.0000 
      9 C4         20.5520   19.2560   20.5910           1 SUV1202     0.0000 
     10 N4         14.5490   18.0590   26.0100           1 SUV1202     0.0000 
     11 C5         21.5370   19.9490   21.2530           1 SUV1202     0.0000 
     12 N5         14.5930   17.7630   27.3130           1 SUV1202     0.0000 
     13 C6         21.8490   19.7230   22.5940           1 SUV1202     0.0000 
     14 N6         13.4190   17.6550   25.4180           1 SUV1202     0.0000 
     15 C7         21.1530   18.7700   23.3110           1 SUV1202     0.0000 
     16 C8         20.1720   18.0850   22.6360           1 SUV1202     0.0000 
     17 C11        17.3010   15.2520   23.5090           1 SUV1202     0.0000 
     18 C12        16.1550   15.9800   24.1860           1 SUV1202     0.0000 
     19 C14        14.7210   15.5880   22.0880           1 SUV1202     0.0000 
     20 C15        15.6510   14.5170   21.5440           1 SUV1202     0.0000 
     21 C16        16.9000   15.1810   21.0360           1 SUV1202     0.0000 
     22 C17        14.9170   17.7910   23.0970           1 SUV1202     0.0000 
     23 C19        15.7090   18.7320   23.9510           1 SUV1202     0.0000 
     24 C20        15.5620   18.8160   25.3380           1 SUV1202     0.0000 
     25 C21        16.3950   19.6550   26.0630           1 SUV1202     0.0000 
     26 C22        17.3680   20.3900   25.4070           1 SUV1202     0.0000 
     27 C23        17.5490   20.3090   24.0290           1 SUV1202     0.0000 
     28 C24        16.7230   19.4540   23.3190           1 SUV1202     0.0000 
     29 C27        13.4570   17.1060   27.5510           1 SUV1202     0.0000 
     30 C28        12.7310   17.0390   26.3800           1 SUV1202     0.0000 
     31 C29        18.6140   21.1100   23.3240           1 SUV1202     0.0000 
     32 C30        13.3570   15.0440   22.4850           1 SUV1202     0.0000 
     33 H1         20.3550   19.4180   19.6940           1 SUV1202     0.0000 
     34 H2         22.5340   20.2220   23.0100           1 SUV1202     0.0000 
     35 H3         21.3460   18.6010   24.2190           1 SUV1202     0.0000 
     36 H4         17.0770   14.3020   23.4330           1 SUV1202     0.0000 
     37 H5         18.1020   15.3270   24.0670           1 SUV1202     0.0000 
     38 H6         15.6770   15.3710   24.7880           1 SUV1202     0.0000 
     39 H7         16.4990   16.7260   24.7240           1 SUV1202     0.0000 
     40 H8         14.6340   16.1720   21.2950           1 SUV1202     0.0000 
     41 H9         15.2080   14.0230   20.8190           1 SUV1202     0.0000 
     42 H10        15.8710   13.8700   22.2510           1 SUV1202     0.0000 
     43 H11        17.4730   14.5260   20.5880           1 SUV1202     0.0000 
     44 H12        16.6730   15.8760   20.3840           1 SUV1202     0.0000 
     45 H13        16.2970   19.7230   26.9950           1 SUV1202     0.0000 
     46 H14        17.9250   20.9630   25.9090           1 SUV1202     0.0000 
     47 H15        16.8540   19.3600   22.3890           1 SUV1202     0.0000 
     48 H16        13.2090   16.7520   28.3900           1 SUV1202     0.0000 
     49 H17        11.8880   16.6320   26.2590           1 SUV1202     0.0000 
     50 H18        18.6940   20.8060   22.4050           1 SUV1202     0.0000 
     51 H19        19.4640   20.9900   23.7780           1 SUV1202     0.0000 
     52 H20        18.3740   22.0500   23.3330           1 SUV1202     0.0000 
     53 H21        12.9460   14.6080   21.7180           1 SUV1202     0.0000 
     54 H22        12.7900   15.7760   22.7830           1 SUV1202     0.0000 
     55 H23        13.4610   14.4000   23.2070           1 SUV1202     0.0000 
@<TRIPOS>BOND
     1   10   14 du   
     2   10   24 du   
     3   11   13 du   
     4   12   29 du   
     5   13   15 du   
     6   14   30 du   
     7   13   34 1    
     8   15   16 du   
     9   17   18 du   
    10   15   35 1    
    11   17   36 1    
    12   17   37 1    
    13   18   38 1    
    14   18   39 1    
    15   19   20 du   
    16   19   32 du   
    17   19   40 1    
    18   20   21 du   
    19   20   41 1    
    20   20   42 1    
    21   21   43 1    
    22   21   44 1    
    23   22   23 du   
    24   23   24 du   
    25   23   28 du   
    26   24   25 du   
    27   25   26 du   
    28   26   27 du   
    29   25   45 1    
    30   27   28 du   
    31   26   46 1    
    32   27   31 du   
    33   29   30 du   
    34   28   47 1    
    35   31   50 1    
    36   29   48 1    
    37   30   49 1    
    38   31   51 1    
    39   31   52 1    
    40   32   53 1    
    41   32   54 1    
    42   32   55 1    
    43    1    2 du   
    44    1    3 du   
    45    1    5 du   
    46    2   17 du   
    47    2   21 du   
    48    3   16 du   
    49    4   11 du   
    50    5    7 du   
    51    6   22 du   
    52    7    9 du   
    53    7   16 du   
    54    8   18 du   
    55    8   19 du   
    56    8   22 du   
    57    9   11 du   
    58   10   12 du   
    59    9   33 1    
@<TRIPOS>SUBSTRUCTURE
     1 SUV1202     1 GROUP   
@<TRIPOS>SET

