#    Name: 5zgh_7_ZEX
#    Modification time : Fri May 22 19:30:58 2020

@<TRIPOS>MOLECULE
5zgh_7_ZEX
   42    43     1     0     0
SMALL
NO_CHARGES


@<TRIPOS>ATOM
      1 C6        142.6250  185.3610  188.1540 C.2       1 ZEX615      0.0000 
      2 C17       144.3110  185.8440  186.3420 C.3       1 ZEX615      0.0000 
      3 C4        143.0260  187.7200  189.2380 C.3       1 ZEX615      0.0000 
      4 C3        143.2030  188.3000  187.8310 C.3       1 ZEX615      0.0000 
      5 O3        142.6570  189.6020  187.8460 O.3       1 ZEX615      0.0000 
      6 C2        142.5280  187.5300  186.7210 C.3       1 ZEX615      0.0000 
      7 C1        142.8340  186.0540  186.7670 C.3       1 ZEX615      0.0000 
      8 C5        142.4900  186.3030  189.3720 C.2       1 ZEX615      0.0000 
      9 C18       141.0530  186.4190  189.8600 C.3       1 ZEX615      0.0000 
     10 C16       141.9790  185.4040  185.6880 C.3       1 ZEX615      0.0000 
     11 O23       124.8310  169.6370  188.0090 O.3       1 ZEX615      0.0000 
     12 C26       124.3130  173.2070  188.0860 C.2       1 ZEX615      0.0000 
     13 C7        141.5120  184.2260  188.1770 C.2       1 ZEX615      0.0000 
     14 C8        141.7630  183.0290  188.8730 C.2       1 ZEX615      0.0000 
     15 C9        140.7410  181.8990  188.9530 C.2       1 ZEX615      0.0000 
     16 C19       141.4230  180.5860  188.7560 C.3       1 ZEX615      0.0000 
     17 C10       139.6750  182.0700  187.8800 C.2       1 ZEX615      0.0000 
     18 C11       138.7700  180.8490  187.7490 C.2       1 ZEX615      0.0000 
     19 C12       137.4740  180.8900  188.1830 C.2       1 ZEX615      0.0000 
     20 C13       136.5710  179.6920  188.0460 C.2       1 ZEX615      0.0000 
     21 C20       137.3500  178.4250  188.1660 C.3       1 ZEX615      0.0000 
     22 C14       135.5250  179.7490  189.1670 C.2       1 ZEX615      0.0000 
     23 C15       134.5100  178.6270  189.0590 C.2       1 ZEX615      0.0000 
     24 C35       133.4730  178.7070  188.1600 C.2       1 ZEX615      0.0000 
     25 C34       132.4770  177.5360  188.1080 C.2       1 ZEX615      0.0000 
     26 C33       131.0950  177.9170  187.6370 C.2       1 ZEX615      0.0000 
     27 C40       130.6790  179.2910  188.1130 C.3       1 ZEX615      0.0000 
     28 C32       130.1270  176.8690  188.1200 C.2       1 ZEX615      0.0000 
     29 C31       128.9510  176.7560  187.4450 C.2       1 ZEX615      0.0000 
     30 C30       127.9360  175.7070  187.8730 C.2       1 ZEX615      0.0000 
     31 C29       126.5660  176.3320  187.9220 C.2       1 ZEX615      0.0000 
     32 C39       126.1820  176.7770  186.5510 C.3       1 ZEX615      0.0000 
     33 C28       125.6170  175.2430  188.4050 C.2       1 ZEX615      0.0000 
     34 C27       125.2330  174.2500  187.5340 C.2       1 ZEX615      0.0000 
     35 C21       123.6160  172.3960  186.9820 C.3       1 ZEX615      0.0000 
     36 C36       124.5420  172.0900  185.8280 C.3       1 ZEX615      0.0000 
     37 C37       122.5230  173.3140  186.4350 C.3       1 ZEX615      0.0000 
     38 C22       122.9810  171.0830  187.4490 C.3       1 ZEX615      0.0000 
     39 C23       123.7340  170.3550  188.5440 C.3       1 ZEX615      0.0000 
     40 C24       124.2340  171.3240  189.5910 C.3       1 ZEX615      0.0000 
     41 C25       125.1670  172.3320  188.9630 C.2       1 ZEX615      0.0000 
     42 C38       124.9750  170.6200  190.6910 C.3       1 ZEX615      0.0000 
@<TRIPOS>BOND
     1    1    7 1    
     2    1    8 2    
     3    1   13 1    
     4    2    7 1    
     5    3    4 1    
     6    3    8 1    
     7    4    5 1    
     8    4    6 1    
     9    6    7 1    
    10    7   10 1    
    11    8    9 1    
    12   11   39 1    
    13   12   34 1    
    14   12   35 1    
    15   12   41 2    
    16   13   14 2    
    17   14   15 1    
    18   15   16 1    
    19   15   17 2    
    20   17   18 1    
    21   18   19 2    
    22   19   20 1    
    23   20   21 1    
    24   20   22 2    
    25   22   23 1    
    26   23   24 2    
    27   24   25 1    
    28   25   26 2    
    29   26   27 1    
    30   26   28 1    
    31   28   29 2    
    32   29   30 1    
    33   30   31 2    
    34   31   32 1    
    35   31   33 1    
    36   33   34 2    
    37   35   36 1    
    38   35   37 1    
    39   35   38 1    
    40   38   39 1    
    41   39   40 1    
    42   40   41 1    
    43   40   42 1    
@<TRIPOS>SUBSTRUCTURE
     1 ZEX615      1 GROUP   
@<TRIPOS>SET

