#    Name: 5zgh_7_ZEX_CAVITY_N1_8
#    Modification time : Fri May 22 19:30:59 2020

@<TRIPOS>MOLECULE
5zgh_7_ZEX_CAVITY_N1_8
  101     0     7     0     0
SMALL
NO_CHARGES


@<TRIPOS>ATOM
      1 OG        125.6900  165.9700  191.0500 O.3       1 SER1        0.0000 
      2 OG        126.7500  165.7000  190.0300 O.3       1 SER1        0.0000 
      3 OG        125.6300  166.9400  192.9400 O.3       1 SER1        0.0000 
      4 OG        126.7000  166.6700  191.9100 O.3       1 SER1        0.0000 
      5 OG        133.0100  171.6000  188.3900 O.3       1 SER1        0.0000 
      6 O         124.2400  168.5000  193.2800 O.2       2 ALA2        0.0000 
      7 O         123.9200  169.8000  192.6100 O.2       2 ALA2        0.0000 
      8 O         124.9900  169.5400  191.5800 O.2       2 ALA2        0.0000 
      9 O         124.5100  168.1700  195.8500 O.2       2 ALA2        0.0000 
     10 O         124.1900  169.4700  195.1700 O.2       2 ALA2        0.0000 
     11 N         129.7700  167.8000  192.6200 N.am      2 ALA2        0.0000 
     12 N         130.5200  168.8300  190.9200 N.am      2 ALA2        0.0000 
     13 N         131.5800  168.5700  189.9000 N.am      2 ALA2        0.0000 
     14 O         132.2600  170.5700  190.0900 O.2       2 ALA2        0.0000 
     15 N         132.9500  172.5600  190.2800 N.am      2 ALA2        0.0000 
     16 OD1       126.5800  168.6000  195.6900 O.co2     3 ASP3        0.0000 
     17 OD1       125.1900  170.1700  196.0300 O.co2     3 ASP3        0.0000 
     18 OD1       126.2600  169.9000  195.0100 O.co2     3 ASP3        0.0000 
     19 OD1       127.3200  169.6400  193.9900 O.co2     3 ASP3        0.0000 
     20 OD1       124.8700  171.4700  195.3600 O.co2     3 ASP3        0.0000 
     21 OD1       125.9400  171.2000  194.3400 O.co2     3 ASP3        0.0000 
     22 OD1       127.0000  170.9400  193.3100 O.co2     3 ASP3        0.0000 
     23 OD1       124.5500  172.7700  194.6800 O.co2     3 ASP3        0.0000 
     24 OD1       125.6100  172.5000  193.6600 O.co2     3 ASP3        0.0000 
     25 OD1       128.6500  169.0400  195.5300 O.co2     3 ASP3        0.0000 
     26 OD1       128.3300  170.3400  194.8500 O.co2     3 ASP3        0.0000 
     27 OD1       126.3000  174.5000  193.8500 O.co2     3 ASP3        0.0000 
     28 NZ        124.0400  167.8700  188.8300 N.4       4 LYS4        0.0000 
     29 NZ        124.3000  167.5400  191.4000 N.4       4 LYS4        0.0000 
     30 NZ        125.3700  167.2700  190.3700 N.4       4 LYS4        0.0000 
     31 NZ        125.0400  168.5700  189.7000 N.4       4 LYS4        0.0000 
     32 NZ        124.5700  167.2000  193.9600 N.4       4 LYS4        0.0000 
     33 NZ        125.5700  167.9000  194.8200 N.4       4 LYS4        0.0000 
     34 NZ        128.0600  170.6700  192.2900 N.4       4 LYS4        0.0000 
     35 NZ        129.1300  170.4000  191.2700 N.4       4 LYS4        0.0000 
     36 NZ        127.7400  171.9700  191.6200 N.4       4 LYS4        0.0000 
     37 NZ        128.8100  171.7000  190.5900 N.4       4 LYS4        0.0000 
     38 NZ        128.0100  171.6300  194.1800 N.4       4 LYS4        0.0000 
     39 NZ        127.6800  172.9300  193.5000 N.4       4 LYS4        0.0000 
     40 NZ        130.8800  172.1300  190.4400 N.4       4 LYS4        0.0000 
     41 NZ        128.4300  173.9700  191.8100 N.4       4 LYS4        0.0000 
     42 NZ        131.8800  172.8300  191.3000 N.4       4 LYS4        0.0000 
     43 CZ        126.1100  168.3000  188.6700 C.ar      5 PHE5        0.0000 
     44 CZ        127.1700  168.0400  187.6500 C.ar      5 PHE5        0.0000 
     45 CZ        128.2400  167.7700  186.6300 C.ar      5 PHE5        0.0000 
     46 CZ        129.3000  167.5000  185.6100 C.ar      5 PHE5        0.0000 
     47 CZ        125.7900  169.6000  188.0000 C.ar      5 PHE5        0.0000 
     48 CZ        124.6600  170.8400  190.9100 C.ar      5 PHE5        0.0000 
     49 CZ        123.5400  172.0700  193.8200 C.ar      5 PHE5        0.0000 
     50 CZ        124.6100  171.8000  192.8000 C.ar      5 PHE5        0.0000 
     51 CZ        133.6900  173.6000  188.5800 C.ar      5 PHE5        0.0000 
     52 CA        126.4300  167.0000  189.3500 C.3       6 GLY6        0.0000 
     53 CA        127.5000  166.7400  188.3300 C.3       6 GLY6        0.0000 
     54 CA        128.5600  166.4700  187.3000 C.3       6 GLY6        0.0000 
     55 CA        129.6200  166.2000  186.2800 C.3       6 GLY6        0.0000 
     56 CA        123.9800  168.8400  190.7200 C.3       6 GLY6        0.0000 
     57 CA        127.7600  166.4000  190.8900 C.3       6 GLY6        0.0000 
     58 CA        125.3100  168.2400  192.2600 C.3       6 GLY6        0.0000 
     59 CA        128.5000  167.4400  189.1900 C.3       6 GLY6        0.0000 
     60 CA        129.5700  167.1700  188.1700 C.3       6 GLY6        0.0000 
     61 CA        129.2400  168.4700  187.4900 C.3       6 GLY6        0.0000 
     62 CA        128.7700  167.1000  191.7600 C.3       6 GLY6        0.0000 
     63 CA        129.5100  168.1300  190.0600 C.3       6 GLY6        0.0000 
     64 CA        130.5700  167.8700  189.0300 C.3       6 GLY6        0.0000 
     65 CA        123.8600  170.7700  194.4900 C.3       6 GLY6        0.0000 
     66 CA        124.9300  170.5000  193.4700 C.3       6 GLY6        0.0000 
     67 CA        131.3100  168.9000  187.3400 C.3       6 GLY6        0.0000 
     68 CA        128.3900  169.3700  192.9700 C.3       6 GLY6        0.0000 
     69 CA        129.4500  169.1000  191.9400 C.3       6 GLY6        0.0000 
     70 CA        132.6400  168.3000  188.8800 C.3       6 GLY6        0.0000 
     71 CA        132.3200  169.6000  188.2000 C.3       6 GLY6        0.0000 
     72 CA        129.7200  168.7700  194.5100 C.3       6 GLY6        0.0000 
     73 CA        129.3900  170.0700  193.8300 C.3       6 GLY6        0.0000 
     74 CA        131.2000  170.8300  191.1100 C.3       6 GLY6        0.0000 
     75 CA        133.3300  170.3000  189.0700 C.3       6 GLY6        0.0000 
     76 CA        131.5600  174.1300  190.6300 C.3       6 GLY6        0.0000 
     77 CA        132.6200  173.8600  189.6000 C.3       6 GLY6        0.0000 
     78 DU        124.7200  169.8700  189.0200 H         7 CUB7        0.0000 
     79 DU        126.3700  167.9700  191.2400 H         7 CUB7        0.0000 
     80 DU        127.4400  167.7000  190.2100 H         7 CUB7        0.0000 
     81 DU        126.0500  169.2700  190.5600 H         7 CUB7        0.0000 
     82 DU        127.1200  169.0000  189.5400 H         7 CUB7        0.0000 
     83 DU        128.1800  168.7400  188.5200 H         7 CUB7        0.0000 
     84 DU        125.7300  170.5700  189.8900 H         7 CUB7        0.0000 
     85 DU        126.7900  170.3000  188.8600 H         7 CUB7        0.0000 
     86 DU        126.6400  167.6400  193.8000 H         7 CUB7        0.0000 
     87 DU        127.7000  167.3700  192.7800 H         7 CUB7        0.0000 
     88 DU        125.2500  169.2000  194.1500 H         7 CUB7        0.0000 
     89 DU        126.3200  168.9400  193.1200 H         7 CUB7        0.0000 
     90 DU        128.4400  168.4000  191.0800 H         7 CUB7        0.0000 
     91 DU        125.9900  170.2400  192.4500 H         7 CUB7        0.0000 
     92 DU        127.0600  169.9700  191.4300 H         7 CUB7        0.0000 
     93 DU        129.1900  169.4300  189.3800 H         7 CUB7        0.0000 
     94 DU        130.2500  169.1700  188.3600 H         7 CUB7        0.0000 
     95 DU        125.6700  171.5400  191.7700 H         7 CUB7        0.0000 
     96 DU        127.6400  168.3400  194.6700 H         7 CUB7        0.0000 
     97 DU        128.7100  168.0700  193.6400 H         7 CUB7        0.0000 
     98 DU        130.1900  170.1300  190.2500 H         7 CUB7        0.0000 
     99 DU        131.2600  169.8700  189.2200 H         7 CUB7        0.0000 
    100 DU        126.6800  172.2400  192.6400 H         7 CUB7        0.0000 
    101 DU        131.9400  171.8700  189.4100 H         7 CUB7        0.0000 
@<TRIPOS>BOND
@<TRIPOS>SUBSTRUCTURE
     1 SER1        1 GROUP   
     2 ALA2        6 GROUP   
     3 ASP3       16 GROUP   
     4 LYS4       28 GROUP   
     5 PHE5       43 GROUP   
     6 GLY6       52 GROUP   
     7 CUB7       78 GROUP   
@<TRIPOS>SET

