#    Name: 5zgh_4_ZEX
#    Modification time : Fri May 22 19:30:49 2020

@<TRIPOS>MOLECULE
5zgh_4_ZEX
   42    43     1     0     0
SMALL
NO_CHARGES


@<TRIPOS>ATOM
      1 C6        182.8060  162.6990  196.2440 C.2       1 ZEX616      0.0000 
      2 C17       181.8820  161.5590  194.2070 C.3       1 ZEX616      0.0000 
      3 C4        181.6670  161.6660  198.3480 C.3       1 ZEX616      0.0000 
      4 C3        180.9400  160.7890  197.3250 C.3       1 ZEX616      0.0000 
      5 O3        180.3340  159.7130  198.0080 O.3       1 ZEX616      0.0000 
      6 C2        181.9050  160.2410  196.2980 C.3       1 ZEX616      0.0000 
      7 C1        182.6520  161.3140  195.5310 C.3       1 ZEX616      0.0000 
      8 C5        182.6760  162.6600  197.7810 C.2       1 ZEX616      0.0000 
      9 C18       184.0240  162.4200  198.4480 C.3       1 ZEX616      0.0000 
     10 C16       184.0220  160.7440  195.1820 C.3       1 ZEX616      0.0000 
     11 O23       201.0500  172.0100  187.1520 O.3       1 ZEX616      0.0000 
     12 C26       200.5110  172.8520  190.8130 C.2       1 ZEX616      0.0000 
     13 C7        184.0760  163.5330  195.7880 C.2       1 ZEX616      0.0000 
     14 C8        183.9500  164.9340  195.7590 C.2       1 ZEX616      0.0000 
     15 C9        185.0700  165.8900  195.3570 C.2       1 ZEX616      0.0000 
     16 C19       184.9890  166.1970  193.8980 C.3       1 ZEX616      0.0000 
     17 C10       186.4510  165.3120  195.6660 C.2       1 ZEX616      0.0000 
     18 C11       187.5400  166.3760  195.5080 C.2       1 ZEX616      0.0000 
     19 C12       187.4640  167.5470  196.2220 C.2       1 ZEX616      0.0000 
     20 C13       188.5090  168.6340  196.1050 C.2       1 ZEX616      0.0000 
     21 C20       189.2820  168.7050  197.3840 C.3       1 ZEX616      0.0000 
     22 C14       189.4650  168.3700  194.9150 C.2       1 ZEX616      0.0000 
     23 C15       190.7230  169.2310  194.9680 C.2       1 ZEX616      0.0000 
     24 C35       191.7570  169.0380  194.0750 C.2       1 ZEX616      0.0000 
     25 C34       193.0160  169.9270  194.1640 C.2       1 ZEX616      0.0000 
     26 C33       194.2510  169.1180  194.4960 C.2       1 ZEX616      0.0000 
     27 C40       194.5690  169.2540  195.9730 C.3       1 ZEX616      0.0000 
     28 C32       195.4230  169.6160  193.6720 C.2       1 ZEX616      0.0000 
     29 C31       196.0810  170.7700  194.0150 C.2       1 ZEX616      0.0000 
     30 C30       197.2620  171.2500  193.1600 C.2       1 ZEX616      0.0000 
     31 C29       197.5360  172.7320  193.3350 C.2       1 ZEX616      0.0000 
     32 C39       198.2390  172.9380  194.6350 C.3       1 ZEX616      0.0000 
     33 C28       198.4550  173.2050  192.2070 C.2       1 ZEX616      0.0000 
     34 C27       199.5660  172.4370  191.9120 C.2       1 ZEX616      0.0000 
     35 C21       201.3890  171.6630  190.3850 C.3       1 ZEX616      0.0000 
     36 C36       200.5170  170.4650  190.0390 C.3       1 ZEX616      0.0000 
     37 C37       202.2770  171.2700  191.5800 C.3       1 ZEX616      0.0000 
     38 C22       202.2980  172.0010  189.1980 C.3       1 ZEX616      0.0000 
     39 C23       201.6850  172.8520  188.0980 C.3       1 ZEX616      0.0000 
     40 C24       200.6920  173.9080  188.5710 C.3       1 ZEX616      0.0000 
     41 C25       199.7250  173.3720  189.6240 C.2       1 ZEX616      0.0000 
     42 C38       199.8920  174.4150  187.3920 C.3       1 ZEX616      0.0000 
@<TRIPOS>BOND
     1    1    7 1    
     2    1    8 2    
     3    1   13 1    
     4    2    7 1    
     5    3    4 1    
     6    3    8 1    
     7    4    5 1    
     8    4    6 1    
     9    6    7 1    
    10    7   10 1    
    11    8    9 1    
    12   11   39 1    
    13   12   34 1    
    14   12   35 1    
    15   12   41 2    
    16   13   14 2    
    17   14   15 1    
    18   15   16 1    
    19   15   17 2    
    20   17   18 1    
    21   18   19 2    
    22   19   20 1    
    23   20   21 1    
    24   20   22 2    
    25   22   23 1    
    26   23   24 2    
    27   24   25 1    
    28   25   26 2    
    29   26   27 1    
    30   26   28 1    
    31   28   29 2    
    32   29   30 1    
    33   30   31 2    
    34   31   32 1    
    35   31   33 1    
    36   33   34 2    
    37   35   36 1    
    38   35   37 1    
    39   35   38 1    
    40   38   39 1    
    41   39   40 1    
    42   40   41 1    
    43   40   42 1    
@<TRIPOS>SUBSTRUCTURE
     1 ZEX616      1 GROUP   
@<TRIPOS>SET

