#    Name: 5zgh_12_ZEX_CAVITY_N1_6
#    Modification time : Fri May 22 19:31:08 2020

@<TRIPOS>MOLECULE
5zgh_12_ZEX_CAVITY_N1_6
   77     0     6     0     0
SMALL
NO_CHARGES


@<TRIPOS>ATOM
      1 N          90.8000  165.0200  172.5800 N.am      1 ALA2        0.0000 
      2 O          91.8600  164.7600  171.5600 O.2       1 ALA2        0.0000 
      3 N          91.8100  165.7200  173.4500 N.am      1 ALA2        0.0000 
      4 N          90.4200  167.2900  173.7900 N.am      1 ALA2        0.0000 
      5 N          91.4800  167.0200  172.7700 N.am      1 ALA2        0.0000 
      6 O          89.9400  165.9300  178.0500 O.2       1 ALA2        0.0000 
      7 N          91.0100  165.6600  177.0300 N.am      1 ALA2        0.0000 
      8 N          90.6800  166.9600  176.3600 N.am      1 ALA2        0.0000 
      9 N          91.7500  166.6900  175.3300 N.am      1 ALA2        0.0000 
     10 N          92.8100  166.4200  174.3100 N.am      1 ALA2        0.0000 
     11 N          91.4200  167.9900  174.6600 N.am      1 ALA2        0.0000 
     12 N          96.1500  167.2200  177.5800 N.am      1 ALA2        0.0000 
     13 N          96.9000  168.2500  175.8800 N.am      1 ALA2        0.0000 
     14 N          98.2600  172.2500  176.2600 N.am      1 ALA2        0.0000 
     15 OD1        90.6300  167.9200  178.2400 O.co2     2 ASP3        0.0000 
     16 OD1        89.2400  169.4900  178.5900 O.co2     2 ASP3        0.0000 
     17 OD1        90.3000  169.2200  177.5700 O.co2     2 ASP3        0.0000 
     18 OD1        91.6300  168.6200  179.1100 O.co2     2 ASP3        0.0000 
     19 NZ         93.1900  164.1600  173.1000 N.4       3 LYS4        0.0000 
     20 NZ         92.0700  165.3900  176.0100 N.4       3 LYS4        0.0000 
     21 NZ         93.1300  165.1200  174.9900 N.4       3 LYS4        0.0000 
     22 NZ         92.7000  168.3600  178.0900 N.4       3 LYS4        0.0000 
     23 NZ         93.7600  168.0900  177.0600 N.4       3 LYS4        0.0000 
     24 NZ         92.3700  169.6600  177.4100 N.4       3 LYS4        0.0000 
     25 NZ         93.4400  169.3900  176.3900 N.4       3 LYS4        0.0000 
     26 NZ         94.5000  169.1200  175.3700 N.4       3 LYS4        0.0000 
     27 NZ         95.0900  167.4900  178.6000 N.4       3 LYS4        0.0000 
     28 NZ         95.8300  168.5200  176.9100 N.4       3 LYS4        0.0000 
     29 NZ         95.5100  169.8200  176.2300 N.4       3 LYS4        0.0000 
     30 NZ         95.1900  171.1200  175.5600 N.4       3 LYS4        0.0000 
     31 NZ         93.8000  172.6900  175.9000 N.4       3 LYS4        0.0000 
     32 NZ         96.1900  171.8200  176.4200 N.4       3 LYS4        0.0000 
     33 NZ         94.8100  173.3900  176.7700 N.4       3 LYS4        0.0000 
     34 CZ         89.3000  168.5300  176.7000 C.ar      4 PHE5        0.0000 
     35 CZ         90.3600  168.2600  175.6800 C.ar      4 PHE5        0.0000 
     36 CA         92.9300  164.4900  170.5400 C.3       5 GLY6        0.0000 
     37 CA         90.4800  166.3200  171.9100 C.3       5 GLY6        0.0000 
     38 CA         91.5400  166.0600  170.8800 C.3       5 GLY6        0.0000 
     39 CA         92.6100  165.7900  169.8600 C.3       5 GLY6        0.0000 
     40 CA         92.2800  167.0900  169.1900 C.3       5 GLY6        0.0000 
     41 CA         93.9300  165.1900  171.4000 C.3       5 GLY6        0.0000 
     42 CA         93.6100  166.4900  170.7300 C.3       5 GLY6        0.0000 
     43 CA         94.2000  164.8600  173.9600 C.3       5 GLY6        0.0000 
     44 CA         88.5500  167.4900  178.4000 C.3       5 GLY6        0.0000 
     45 CA         89.6200  167.2300  177.3800 C.3       5 GLY6        0.0000 
     46 CA         94.9400  165.8900  172.2700 C.3       5 GLY6        0.0000 
     47 CA         88.2300  168.7900  177.7300 C.3       5 GLY6        0.0000 
     48 CA         95.2100  165.5600  174.8300 C.3       5 GLY6        0.0000 
     49 CA         94.8800  166.8600  174.1500 C.3       5 GLY6        0.0000 
     50 CA         95.9500  166.5900  173.1300 C.3       5 GLY6        0.0000 
     51 CA         96.2100  166.2500  175.6900 C.3       5 GLY6        0.0000 
     52 CA         95.8900  167.5500  175.0200 C.3       5 GLY6        0.0000 
     53 CA         96.9500  167.2900  174.0000 C.3       5 GLY6        0.0000 
     54 CA         92.7300  172.9600  176.9200 C.3       5 GLY6        0.0000 
     55 CA         93.4800  173.9900  175.2300 C.3       5 GLY6        0.0000 
     56 CA         95.8700  173.1200  175.7400 C.3       5 GLY6        0.0000 
     57 CA         96.8800  173.8200  176.6100 C.3       5 GLY6        0.0000 
     58 CA         97.9400  173.5500  175.5900 C.3       5 GLY6        0.0000 
     59 CA         97.6200  174.8500  174.9100 C.3       5 GLY6        0.0000 
     60 DU         92.8700  165.4600  172.4200 H         6 CUB7        0.0000 
     61 DU         92.5500  166.7600  171.7500 H         6 CUB7        0.0000 
     62 DU         93.8800  166.1600  173.2900 H         6 CUB7        0.0000 
     63 DU         92.4900  167.7200  173.6400 H         6 CUB7        0.0000 
     64 DU         90.9500  166.6200  178.9200 H         6 CUB7        0.0000 
     65 DU         92.0100  166.3600  177.9000 H         6 CUB7        0.0000 
     66 DU         93.0800  166.0900  176.8700 H         6 CUB7        0.0000 
     67 DU         94.1400  165.8200  175.8500 H         6 CUB7        0.0000 
     68 DU         91.6900  167.6600  177.2200 H         6 CUB7        0.0000 
     69 DU         92.7500  167.3900  176.2000 H         6 CUB7        0.0000 
     70 DU         93.8200  167.1200  175.1800 H         6 CUB7        0.0000 
     71 DU         91.3700  168.9600  176.5500 H         6 CUB7        0.0000 
     72 DU         92.4300  168.6900  175.5200 H         6 CUB7        0.0000 
     73 DU         93.0200  167.0600  178.7600 H         6 CUB7        0.0000 
     74 DU         94.0800  166.7900  177.7400 H         6 CUB7        0.0000 
     75 DU         95.1500  166.5200  176.7200 H         6 CUB7        0.0000 
     76 DU         94.8200  167.8200  176.0400 H         6 CUB7        0.0000 
     77 DU         96.5700  169.5500  175.2100 H         6 CUB7        0.0000 
@<TRIPOS>BOND
@<TRIPOS>SUBSTRUCTURE
     1 ALA2        1 GROUP   
     2 ASP3       15 GROUP   
     3 LYS4       19 GROUP   
     4 PHE5       34 GROUP   
     5 GLY6       36 GROUP   
     6 CUB7       60 GROUP   
@<TRIPOS>SET

