#    Name: 5zgh_12_ZEX
#    Modification time : Fri May 22 19:31:06 2020

@<TRIPOS>MOLECULE
5zgh_12_ZEX
   42    43     1     0     0
SMALL
NO_CHARGES


@<TRIPOS>ATOM
      1 C6         91.1110  168.5860  171.1890 C.2       1 ZEX215      0.0000 
      2 C17        90.1580  167.4250  169.1710 C.3       1 ZEX215      0.0000 
      3 C4         91.3700  166.2480  172.4350 C.3       1 ZEX215      0.0000 
      4 C3         91.6110  165.6230  171.0570 C.3       1 ZEX215      0.0000 
      5 O3         92.3820  164.4450  171.2030 O.3       1 ZEX215      0.0000 
      6 C2         92.3170  166.5830  170.1310 C.3       1 ZEX215      0.0000 
      7 C1         91.4850  167.8160  169.8820 C.3       1 ZEX215      0.0000 
      8 C5         91.0520  167.7430  172.4940 C.2       1 ZEX215      0.0000 
      9 C18        91.9380  168.3340  173.5800 C.3       1 ZEX215      0.0000 
     10 C16        92.2600  168.6990  168.9070 C.3       1 ZEX215      0.0000 
     11 O23       104.8140  191.2700  173.8260 O.3       1 ZEX215      0.0000 
     12 C26       103.4600  187.3380  174.6500 C.2       1 ZEX215      0.0000 
     13 C7         91.8740  169.9680  171.3430 C.2       1 ZEX215      0.0000 
     14 C8         91.0590  171.1040  171.3470 C.2       1 ZEX215      0.0000 
     15 C9         91.5970  172.5160  171.4860 C.2       1 ZEX215      0.0000 
     16 C19        91.1980  173.2730  170.2610 C.3       1 ZEX215      0.0000 
     17 C10        93.1160  172.5400  171.6360 C.2       1 ZEX215      0.0000 
     18 C11        93.6060  173.9850  171.6150 C.2       1 ZEX215      0.0000 
     19 C12        94.9260  174.3120  171.7710 C.2       1 ZEX215      0.0000 
     20 C13        95.3350  175.7650  171.7320 C.2       1 ZEX215      0.0000 
     21 C20        94.3820  176.5280  172.5610 C.3       1 ZEX215      0.0000 
     22 C14        96.7180  176.0080  172.3570 C.2       1 ZEX215      0.0000 
     23 C15        97.0680  177.4860  172.4520 C.2       1 ZEX215      0.0000 
     24 C35        98.2130  177.8850  173.1000 C.2       1 ZEX215      0.0000 
     25 C34        98.5390  179.3880  173.1930 C.2       1 ZEX215      0.0000 
     26 C33        99.6460  179.7050  174.1700 C.2       1 ZEX215      0.0000 
     27 C40        99.2580  179.2360  175.5550 C.3       1 ZEX215      0.0000 
     28 C32        99.8430  181.2030  174.1800 C.2       1 ZEX215      0.0000 
     29 C31       100.4190  181.8230  175.2560 C.2       1 ZEX215      0.0000 
     30 C30       100.5960  183.3450  175.2080 C.2       1 ZEX215      0.0000 
     31 C29       102.0220  183.8000  175.4440 C.2       1 ZEX215      0.0000 
     32 C39       102.9930  182.8910  174.7770 C.3       1 ZEX215      0.0000 
     33 C28       102.2380  185.1730  174.8190 C.2       1 ZEX215      0.0000 
     34 C27       103.2500  185.9860  175.2920 C.2       1 ZEX215      0.0000 
     35 C21       102.8430  188.4990  175.4630 C.3       1 ZEX215      0.0000 
     36 C36       102.8140  188.2030  176.9490 C.3       1 ZEX215      0.0000 
     37 C37       101.3890  188.6110  175.0000 C.3       1 ZEX215      0.0000 
     38 C22       103.5040  189.8650  175.2560 C.3       1 ZEX215      0.0000 
     39 C23       104.1950  189.9970  173.9180 C.3       1 ZEX215      0.0000 
     40 C24       105.2170  188.8900  173.6650 C.3       1 ZEX215      0.0000 
     41 C25       104.9420  187.5670  174.3960 C.2       1 ZEX215      0.0000 
     42 C38       106.5920  189.3680  174.0750 C.3       1 ZEX215      0.0000 
@<TRIPOS>BOND
     1    1    7 1    
     2    1    8 2    
     3    1   13 1    
     4    2    7 1    
     5    3    4 1    
     6    3    8 1    
     7    4    5 1    
     8    4    6 1    
     9    6    7 1    
    10    7   10 1    
    11    8    9 1    
    12   11   39 1    
    13   12   34 1    
    14   12   35 1    
    15   12   41 2    
    16   13   14 2    
    17   14   15 1    
    18   15   16 1    
    19   15   17 2    
    20   17   18 1    
    21   18   19 2    
    22   19   20 1    
    23   20   21 1    
    24   20   22 2    
    25   22   23 1    
    26   23   24 2    
    27   24   25 1    
    28   25   26 2    
    29   26   27 1    
    30   26   28 1    
    31   28   29 2    
    32   29   30 1    
    33   30   31 2    
    34   31   32 1    
    35   31   33 1    
    36   33   34 2    
    37   35   36 1    
    38   35   37 1    
    39   35   38 1    
    40   38   39 1    
    41   39   40 1    
    42   40   41 1    
    43   40   42 1    
@<TRIPOS>SUBSTRUCTURE
     1 ZEX215      1 GROUP   
@<TRIPOS>SET

