#    Name: 5zgh_7_ZEX_CAVITY_N1_4
#    Modification time : Fri May 22 19:30:59 2020

@<TRIPOS>MOLECULE
5zgh_7_ZEX_CAVITY_N1_4
   41     0     6     0     0
SMALL
NO_CHARGES


@<TRIPOS>ATOM
      1 O         124.2400  168.5000  193.2800 O.2       1 ALA2        0.0000 
      2 O         123.9200  169.8000  192.6100 O.2       1 ALA2        0.0000 
      3 O         124.9900  169.5400  191.5800 O.2       1 ALA2        0.0000 
      4 OD1       125.9400  171.2000  194.3400 O.co2     2 ASP3        0.0000 
      5 OD1       127.0000  170.9400  193.3100 O.co2     2 ASP3        0.0000 
      6 OD1       125.6100  172.5000  193.6600 O.co2     2 ASP3        0.0000 
      7 NZ        124.0400  167.8700  188.8300 N.4       3 LYS4        0.0000 
      8 NZ        124.3000  167.5400  191.4000 N.4       3 LYS4        0.0000 
      9 NZ        125.3700  167.2700  190.3700 N.4       3 LYS4        0.0000 
     10 NZ        125.0400  168.5700  189.7000 N.4       3 LYS4        0.0000 
     11 NZ        128.0600  170.6700  192.2900 N.4       3 LYS4        0.0000 
     12 NZ        127.7400  171.9700  191.6200 N.4       3 LYS4        0.0000 
     13 NZ        128.8100  171.7000  190.5900 N.4       3 LYS4        0.0000 
     14 CZ        126.1100  168.3000  188.6700 C.ar      4 PHE5        0.0000 
     15 CZ        127.1700  168.0400  187.6500 C.ar      4 PHE5        0.0000 
     16 CZ        125.7900  169.6000  188.0000 C.ar      4 PHE5        0.0000 
     17 CZ        124.6600  170.8400  190.9100 C.ar      4 PHE5        0.0000 
     18 CZ        123.5400  172.0700  193.8200 C.ar      4 PHE5        0.0000 
     19 CZ        124.6100  171.8000  192.8000 C.ar      4 PHE5        0.0000 
     20 CA        126.4300  167.0000  189.3500 C.3       5 GLY6        0.0000 
     21 CA        127.5000  166.7400  188.3300 C.3       5 GLY6        0.0000 
     22 CA        123.9800  168.8400  190.7200 C.3       5 GLY6        0.0000 
     23 CA        125.3100  168.2400  192.2600 C.3       5 GLY6        0.0000 
     24 CA        123.8600  170.7700  194.4900 C.3       5 GLY6        0.0000 
     25 CA        124.9300  170.5000  193.4700 C.3       5 GLY6        0.0000 
     26 CA        131.5600  174.1300  190.6300 C.3       5 GLY6        0.0000 
     27 CA        132.6200  173.8600  189.6000 C.3       5 GLY6        0.0000 
     28 DU        124.7200  169.8700  189.0200 H         6 CUB7        0.0000 
     29 DU        126.3700  167.9700  191.2400 H         6 CUB7        0.0000 
     30 DU        127.4400  167.7000  190.2100 H         6 CUB7        0.0000 
     31 DU        126.0500  169.2700  190.5600 H         6 CUB7        0.0000 
     32 DU        127.1200  169.0000  189.5400 H         6 CUB7        0.0000 
     33 DU        128.1800  168.7400  188.5200 H         6 CUB7        0.0000 
     34 DU        125.7300  170.5700  189.8900 H         6 CUB7        0.0000 
     35 DU        126.7900  170.3000  188.8600 H         6 CUB7        0.0000 
     36 DU        125.2500  169.2000  194.1500 H         6 CUB7        0.0000 
     37 DU        126.3200  168.9400  193.1200 H         6 CUB7        0.0000 
     38 DU        125.9900  170.2400  192.4500 H         6 CUB7        0.0000 
     39 DU        127.0600  169.9700  191.4300 H         6 CUB7        0.0000 
     40 DU        125.6700  171.5400  191.7700 H         6 CUB7        0.0000 
     41 DU        126.6800  172.2400  192.6400 H         6 CUB7        0.0000 
@<TRIPOS>BOND
@<TRIPOS>SUBSTRUCTURE
     1 ALA2        1 GROUP   
     2 ASP3        4 GROUP   
     3 LYS4        7 GROUP   
     4 PHE5       14 GROUP   
     5 GLY6       20 GROUP   
     6 CUB7       28 GROUP   
@<TRIPOS>SET

