#    Name: 5zgh_12_ZEX_CAVITY_N1_4
#    Modification time : Fri May 22 19:31:08 2020

@<TRIPOS>MOLECULE
5zgh_12_ZEX_CAVITY_N1_4
   38     0     5     0     0
SMALL
NO_CHARGES


@<TRIPOS>ATOM
      1 N          90.8000  165.0200  172.5800 N.am      1 ALA2        0.0000 
      2 O          91.8600  164.7600  171.5600 O.2       1 ALA2        0.0000 
      3 N          91.8100  165.7200  173.4500 N.am      1 ALA2        0.0000 
      4 N          90.4200  167.2900  173.7900 N.am      1 ALA2        0.0000 
      5 N          91.4800  167.0200  172.7700 N.am      1 ALA2        0.0000 
      6 N          90.6800  166.9600  176.3600 N.am      1 ALA2        0.0000 
      7 N          91.7500  166.6900  175.3300 N.am      1 ALA2        0.0000 
      8 N          92.8100  166.4200  174.3100 N.am      1 ALA2        0.0000 
      9 N          91.4200  167.9900  174.6600 N.am      1 ALA2        0.0000 
     10 NZ         93.1900  164.1600  173.1000 N.4       2 LYS4        0.0000 
     11 NZ         92.0700  165.3900  176.0100 N.4       2 LYS4        0.0000 
     12 NZ         93.1300  165.1200  174.9900 N.4       2 LYS4        0.0000 
     13 NZ         93.7600  168.0900  177.0600 N.4       2 LYS4        0.0000 
     14 NZ         93.4400  169.3900  176.3900 N.4       2 LYS4        0.0000 
     15 NZ         94.5000  169.1200  175.3700 N.4       2 LYS4        0.0000 
     16 CZ         90.3600  168.2600  175.6800 C.ar      3 PHE5        0.0000 
     17 CA         92.9300  164.4900  170.5400 C.3       4 GLY6        0.0000 
     18 CA         90.4800  166.3200  171.9100 C.3       4 GLY6        0.0000 
     19 CA         91.5400  166.0600  170.8800 C.3       4 GLY6        0.0000 
     20 CA         92.6100  165.7900  169.8600 C.3       4 GLY6        0.0000 
     21 CA         92.2800  167.0900  169.1900 C.3       4 GLY6        0.0000 
     22 CA         93.9300  165.1900  171.4000 C.3       4 GLY6        0.0000 
     23 CA         93.6100  166.4900  170.7300 C.3       4 GLY6        0.0000 
     24 CA         94.2000  164.8600  173.9600 C.3       4 GLY6        0.0000 
     25 CA         94.9400  165.8900  172.2700 C.3       4 GLY6        0.0000 
     26 CA         94.8800  166.8600  174.1500 C.3       4 GLY6        0.0000 
     27 CA         93.4800  173.9900  175.2300 C.3       4 GLY6        0.0000 
     28 CA         97.6200  174.8500  174.9100 C.3       4 GLY6        0.0000 
     29 DU         92.8700  165.4600  172.4200 H         5 CUB7        0.0000 
     30 DU         92.5500  166.7600  171.7500 H         5 CUB7        0.0000 
     31 DU         93.8800  166.1600  173.2900 H         5 CUB7        0.0000 
     32 DU         92.4900  167.7200  173.6400 H         5 CUB7        0.0000 
     33 DU         91.6900  167.6600  177.2200 H         5 CUB7        0.0000 
     34 DU         92.7500  167.3900  176.2000 H         5 CUB7        0.0000 
     35 DU         93.8200  167.1200  175.1800 H         5 CUB7        0.0000 
     36 DU         91.3700  168.9600  176.5500 H         5 CUB7        0.0000 
     37 DU         92.4300  168.6900  175.5200 H         5 CUB7        0.0000 
     38 DU         94.8200  167.8200  176.0400 H         5 CUB7        0.0000 
@<TRIPOS>BOND
@<TRIPOS>SUBSTRUCTURE
     1 ALA2        1 GROUP   
     2 LYS4       10 GROUP   
     3 PHE5       16 GROUP   
     4 GLY6       17 GROUP   
     5 CUB7       29 GROUP   
@<TRIPOS>SET

