#    Name: 6aa4_1_MKS_CAVITY_N1_4
#    Modification time : Fri May 22 19:28:45 2020

@<TRIPOS>MOLECULE
6aa4_1_MKS_CAVITY_N1_4
   95     0     5     0     0
SMALL
NO_CHARGES


@<TRIPOS>ATOM
      1 O          23.0600  -17.1100   16.9100 O.2       1 ALA2        0.0000 
      2 N          22.1100  -15.9900   16.6200 N.am      1 ALA2        0.0000 
      3 O          22.8500  -15.1200   17.6000 O.2       1 ALA2        0.0000 
      4 O          21.9000  -13.9900   17.3100 O.2       1 ALA2        0.0000 
      5 N          24.7900  -18.9700   19.5700 N.am      1 ALA2        0.0000 
      6 N          23.8400  -17.8500   19.2800 N.am      1 ALA2        0.0000 
      7 N          22.9000  -16.7200   18.9900 N.am      1 ALA2        0.0000 
      8 O          21.9500  -15.5900   18.7000 O.2       1 ALA2        0.0000 
      9 O          21.0000  -14.4700   18.4100 O.2       1 ALA2        0.0000 
     10 O          23.5800  -14.2500   18.5800 O.2       1 ALA2        0.0000 
     11 O          22.6400  -13.1200   18.2900 O.2       1 ALA2        0.0000 
     12 O          21.6900  -12.0000   18.0000 O.2       1 ALA2        0.0000 
     13 O          23.6300  -15.8500   19.9700 O.2       1 ALA2        0.0000 
     14 O          25.2700  -14.5000   19.8400 O.2       1 ALA2        0.0000 
     15 O          24.3200  -13.3800   19.5500 O.2       1 ALA2        0.0000 
     16 O          23.3700  -12.2500   19.2600 O.2       1 ALA2        0.0000 
     17 O          24.3700  -14.9800   20.9400 O.2       1 ALA2        0.0000 
     18 N          30.0800   -7.2600   16.6900 N.am      1 ALA2        0.0000 
     19 NZ         22.3700   -9.5200   17.5900 N.4       2 LYS4        0.0000 
     20 CZ         24.9100  -17.7600   16.1000 C.ar      3 PHE5        0.0000 
     21 CZ         23.9600  -16.6400   15.8100 C.ar      3 PHE5        0.0000 
     22 CZ         21.1200  -13.2600   14.9400 C.ar      3 PHE5        0.0000 
     23 CZ         27.4500  -15.9400   14.8700 C.ar      3 PHE5        0.0000 
     24 CZ         26.5500  -16.4200   15.9700 C.ar      3 PHE5        0.0000 
     25 CZ         25.6500  -16.8900   17.0700 C.ar      3 PHE5        0.0000 
     26 CZ         22.8000  -13.5100   16.2100 C.ar      3 PHE5        0.0000 
     27 CZ         20.9500  -12.8700   17.0200 C.ar      3 PHE5        0.0000 
     28 CZ         24.4400  -12.1700   16.0800 C.ar      3 PHE5        0.0000 
     29 CZ         23.5400  -12.6500   17.1900 C.ar      3 PHE5        0.0000 
     30 CZ         22.5900  -11.5200   16.9000 C.ar      3 PHE5        0.0000 
     31 CZ         29.7700  -12.1200   14.3300 C.ar      3 PHE5        0.0000 
     32 CZ         27.9200  -11.4700   15.1500 C.ar      3 PHE5        0.0000 
     33 CZ         28.9200  -14.2000   16.8300 C.ar      3 PHE5        0.0000 
     34 CZ         27.9700  -13.0800   16.5400 C.ar      3 PHE5        0.0000 
     35 CZ         27.0200  -11.9500   16.2500 C.ar      3 PHE5        0.0000 
     36 CZ         26.0700  -10.8200   15.9600 C.ar      3 PHE5        0.0000 
     37 CZ         25.1200   -9.7000   15.6700 C.ar      3 PHE5        0.0000 
     38 CZ         28.0200  -14.6800   17.9300 C.ar      3 PHE5        0.0000 
     39 CZ         27.0700  -13.5500   17.6400 C.ar      3 PHE5        0.0000 
     40 CZ         26.1200  -12.4300   17.3500 C.ar      3 PHE5        0.0000 
     41 CZ         24.2200  -10.1700   16.7700 C.ar      3 PHE5        0.0000 
     42 CZ         23.2700   -9.0500   16.4800 C.ar      3 PHE5        0.0000 
     43 CZ         27.1200  -15.1500   19.0300 C.ar      3 PHE5        0.0000 
     44 CZ         26.1700  -14.0300   18.7400 C.ar      3 PHE5        0.0000 
     45 CZ         25.2200  -12.9000   18.4500 C.ar      3 PHE5        0.0000 
     46 CZ         24.2700  -11.7800   18.1600 C.ar      3 PHE5        0.0000 
     47 CZ         23.3200  -10.6500   17.8700 C.ar      3 PHE5        0.0000 
     48 CZ         26.2200  -15.6300   20.1300 C.ar      3 PHE5        0.0000 
     49 CZ         22.4200  -11.1300   18.9800 C.ar      3 PHE5        0.0000 
     50 CZ         30.5000  -11.2500   15.3100 C.ar      3 PHE5        0.0000 
     51 CZ         29.5600  -10.1300   15.0200 C.ar      3 PHE5        0.0000 
     52 CZ         30.5500  -12.8600   16.7000 C.ar      3 PHE5        0.0000 
     53 CZ         29.6000  -11.7300   16.4100 C.ar      3 PHE5        0.0000 
     54 CZ         28.6600  -10.6000   16.1200 C.ar      3 PHE5        0.0000 
     55 CZ         27.7100   -9.4800   15.8400 C.ar      3 PHE5        0.0000 
     56 CZ         26.7600   -8.3500   15.5500 C.ar      3 PHE5        0.0000 
     57 CZ         27.7500  -11.0800   17.2300 C.ar      3 PHE5        0.0000 
     58 CZ         26.8100   -9.9500   16.9400 C.ar      3 PHE5        0.0000 
     59 CZ         25.8600   -8.8300   16.6500 C.ar      3 PHE5        0.0000 
     60 CZ         26.8500  -11.5600   18.3300 C.ar      3 PHE5        0.0000 
     61 CZ         25.9100  -10.4300   18.0400 C.ar      3 PHE5        0.0000 
     62 CZ         24.9600   -9.3100   17.7500 C.ar      3 PHE5        0.0000 
     63 CZ         31.2400  -10.3900   16.2900 C.ar      3 PHE5        0.0000 
     64 CZ         30.2900   -9.2600   16.0000 C.ar      3 PHE5        0.0000 
     65 CZ         29.3400   -8.1300   15.7100 C.ar      3 PHE5        0.0000 
     66 CZ         28.4400   -8.6100   16.8100 C.ar      3 PHE5        0.0000 
     67 CZ         31.9700   -9.5200   17.2600 C.ar      3 PHE5        0.0000 
     68 CA         23.0100  -15.5100   15.5200 C.3       4 GLY6        0.0000 
     69 CA         22.0700  -14.3800   15.2300 C.3       4 GLY6        0.0000 
     70 CA         21.1700  -14.8600   16.3300 C.3       4 GLY6        0.0000 
     71 CA         20.2200  -13.7300   16.0500 C.3       4 GLY6        0.0000 
     72 CA         22.1600  -17.5900   18.0100 C.3       4 GLY6        0.0000 
     73 CA         21.2100  -16.4600   17.7200 C.3       4 GLY6        0.0000 
     74 CA         25.6000  -15.2900   15.6800 C.3       4 GLY6        0.0000 
     75 CA         23.7000  -13.0400   15.1100 C.3       4 GLY6        0.0000 
     76 CA         24.7000  -15.7700   16.7900 C.3       4 GLY6        0.0000 
     77 CA         23.7500  -14.6400   16.5000 C.3       4 GLY6        0.0000 
     78 CA         25.6900  -18.4900   18.4600 C.3       4 GLY6        0.0000 
     79 CA         24.7500  -17.3700   18.1800 C.3       4 GLY6        0.0000 
     80 CA         27.2300  -13.9500   15.5600 C.3       4 GLY6        0.0000 
     81 CA         25.3400  -11.6900   14.9800 C.3       4 GLY6        0.0000 
     82 CA         26.3300  -14.4200   16.6600 C.3       4 GLY6        0.0000 
     83 CA         25.3800  -13.3000   16.3700 C.3       4 GLY6        0.0000 
     84 CA         28.8700  -12.6000   15.4400 C.3       4 GLY6        0.0000 
     85 CA         31.0300   -8.3900   16.9800 C.3       4 GLY6        0.0000 
     86 DU         23.8000  -16.2400   17.8900 H         5 CUB7        0.0000 
     87 DU         28.1800  -15.0700   15.8500 H         5 CUB7        0.0000 
     88 DU         27.2800  -15.5500   16.9500 H         5 CUB7        0.0000 
     89 DU         26.3800  -16.0200   18.0500 H         5 CUB7        0.0000 
     90 DU         25.4300  -14.9000   17.7600 H         5 CUB7        0.0000 
     91 DU         24.4800  -13.7700   17.4700 H         5 CUB7        0.0000 
     92 DU         25.4800  -16.5000   19.1500 H         5 CUB7        0.0000 
     93 DU         24.5300  -15.3700   18.8600 H         5 CUB7        0.0000 
     94 DU         24.5800  -16.9800   20.2500 H         5 CUB7        0.0000 
     95 DU         25.1700  -11.3000   17.0600 H         5 CUB7        0.0000 
@<TRIPOS>BOND
@<TRIPOS>SUBSTRUCTURE
     1 ALA2        1 GROUP   
     2 LYS4       19 GROUP   
     3 PHE5       20 GROUP   
     4 GLY6       68 GROUP   
     5 CUB7       86 GROUP   
@<TRIPOS>SET

