#    Name: 6aa4_1_MKS
#    Modification time : Fri May 22 19:28:43 2020

@<TRIPOS>MOLECULE
6aa4_1_MKS
   30    32     1     0     0
SMALL
NO_CHARGES


@<TRIPOS>ATOM
      1 CAD        22.5950  -16.2030   18.0380           1 MKS203      0.0000 
      2 CAS        23.1840  -15.6210   16.7410           1 MKS203      0.0000 
      3 CAE        22.6620  -16.0840   15.4050           1 MKS203      0.0000 
      4 CAK        24.2830  -14.5690   16.7870           1 MKS203      0.0000 
      5 CAO        24.3320  -13.5820   17.9810           1 MKS203      0.0000 
      6 CAX        24.0300  -12.0980   17.7120           1 MKS203      0.0000 
      7 CBD        25.0310  -11.1150   17.2530           1 MKS203      0.0000 
      8 CAZ        26.4290  -11.4510   16.8240           1 MKS203      0.0000 
      9 OAF        26.8990  -12.7380   16.5630           1 MKS203      0.0000 
     10 CBC        27.2970  -10.3250   16.4180           1 MKS203      0.0000 
     11 CAV        28.6320  -10.5780   16.0070           1 MKS203      0.0000 
     12 OAI        29.0860  -11.8850   15.9640           1 MKS203      0.0000 
     13 CAW        29.5170   -9.5010   15.8070           1 MKS203      0.0000 
     14 CAN        30.9270   -9.7410   15.3680           1 MKS203      0.0000 
     15 CAJ        31.9870   -9.8410   16.4490           1 MKS203      0.0000 
     16 CAR        33.2120   -8.8940   16.3180           1 MKS203      0.0000 
     17 CAC        33.7420   -8.1640   17.5330           1 MKS203      0.0000 
     18 CAB        33.8720   -8.6970   14.9930           1 MKS203      0.0000 
     19 CAT        29.0650   -8.1560   16.0220           1 MKS203      0.0000 
     20 OAG        29.9370   -7.0980   15.8260           1 MKS203      0.0000 
     21 CAL        27.7490   -7.9080   16.4290           1 MKS203      0.0000 
     22 CBA        26.8550   -9.0120   16.6290           1 MKS203      0.0000 
     23 OAQ        25.5450   -8.7600   16.8450           1 MKS203      0.0000 
     24 CBB        24.6400   -9.7790   17.0910           1 MKS203      0.0000 
     25 CAM        23.2800   -9.3570   17.3650           1 MKS203      0.0000 
     26 CAU        22.3330  -10.3040   17.8070           1 MKS203      0.0000 
     27 OAH        21.0160   -9.9070   18.0390           1 MKS203      0.0000 
     28 CAY        22.7100  -11.6710   17.9790           1 MKS203      0.0000 
     29 OAP        21.7180  -12.6240   18.1700           1 MKS203      0.0000 
     30 CAA        20.8720  -12.9970   17.1120           1 MKS203      0.0000 
@<TRIPOS>BOND
     1    1    2 du   
     2    2    3 du   
     3    2    4 du   
     4    4    5 du   
     5    5    6 du   
     6    6    7 du   
     7    6   28 du   
     8    7    8 du   
     9    7   24 du   
    10    8    9 du   
    11    8   10 du   
    12   10   11 du   
    13   10   22 du   
    14   11   12 du   
    15   11   13 du   
    16   13   14 du   
    17   13   19 du   
    18   14   15 du   
    19   15   16 du   
    20   16   17 du   
    21   16   18 du   
    22   19   20 du   
    23   19   21 du   
    24   21   22 du   
    25   22   23 du   
    26   23   24 du   
    27   24   25 du   
    28   25   26 du   
    29   26   27 du   
    30   26   28 du   
    31   28   29 du   
    32   29   30 du   
@<TRIPOS>SUBSTRUCTURE
     1 MKS203      1 GROUP   
@<TRIPOS>SET

