#    Name: 6avh_3_AMP
#    Modification time : Fri May 22 19:37:32 2020

@<TRIPOS>MOLECULE
6avh_3_AMP
   23    25     1     0     1
SMALL
NO_CHARGES


@<TRIPOS>ATOM
      1 P         -32.1620   36.2020   20.4040 P.3       1 AMP600      0.0000 
      2 O1P       -31.0590   36.5880   19.4900 O.co2     1 AMP600      0.0000 
      3 O2P       -33.3270   35.5730   19.7340 O.co2     1 AMP600      0.0000 
      4 O3P       -32.4920   37.1680   21.4880 O.co2     1 AMP600      0.0000 
      5 O5'       -31.5300   34.9750   21.1620 O.3       1 AMP600      0.0000 
      6 C5'       -30.4680   35.1520   22.0850 C.3       1 AMP600      0.0000 
      7 C4'       -30.4910   34.0940   23.1620 C.3       1 AMP600      0.0000 
      8 O4'       -30.1070   32.8080   22.6200 O.3       1 AMP600      0.0000 
      9 C3'       -29.5220   34.2890   24.2950 C.3       1 AMP600      0.0000 
     10 O3'       -29.9460   35.2990   25.1910 O.3       1 AMP600      0.0000 
     11 C2'       -29.4280   32.8720   24.8850 C.3       1 AMP600      0.0000 
     12 O2'       -30.5490   32.5470   25.6920 O.3       1 AMP600      0.0000 
     13 C1'       -29.5260   32.0140   23.6250 C.3       1 AMP600      0.0000 
     14 N9        -28.1990   31.5790   23.1390 N.pl3     1 AMP600      0.0000 
     15 C8        -27.4820   32.2220   22.1810 C.2       1 AMP600      0.0000 
     16 N7        -26.3050   31.5810   21.9320 N.2       1 AMP600      0.0000 
     17 C5        -26.2580   30.5160   22.7530 C.ar      1 AMP600      0.0000 
     18 C6        -25.3100   29.4470   23.0110 C.ar      1 AMP600      0.0000 
     19 N6        -24.1540   29.3960   22.3260 N.pl3     1 AMP600      0.0000 
     20 N1        -25.6340   28.5270   23.9320 N.ar      1 AMP600      0.0000 
     21 C2        -26.7800   28.5690   24.6060 C.ar      1 AMP600      0.0000 
     22 N3        -27.6890   29.5150   24.4310 N.ar      1 AMP600      0.0000 
     23 C4        -27.4920   30.5030   23.5400 C.ar      1 AMP600      0.0000 
@<TRIPOS>BOND
     1    1    2 ar   
     2    1    3 ar   
     3    1    4 ar   
     4    1    5 1    
     5    5    6 1    
     6    6    7 1    
     7    7    8 1    
     8    7    9 1    
     9    8   13 1    
    10    9   10 1    
    11    9   11 1    
    12   11   12 1    
    13   11   13 1    
    14   13   14 1    
    15   14   15 1    
    16   14   23 1    
    17   15   16 2    
    18   16   17 1    
    19   17   18 ar   
    20   17   23 ar   
    21   18   19 1    
    22   18   20 ar   
    23   20   21 ar   
    24   21   22 ar   
    25   22   23 ar   
@<TRIPOS>SUBSTRUCTURE
     1 AMP600      1 GROUP   
@<TRIPOS>SET
ATOM$ORANGE STATIC     ATOMS   COLORGROUP SYSTEM 
20 6 6 7 7 9 9 11 11 13 13 15 15 17 17 18 18 21 \
21 23 23 

