#    Name: 6avh_1_AMP_CAVITY_N1_4
#    Modification time : Fri May 22 19:37:22 2020

@<TRIPOS>MOLECULE
6avh_1_AMP_CAVITY_N1_4
  129     0     7     0     0
SMALL
NO_CHARGES


@<TRIPOS>ATOM
      1 OG        -59.4100  -38.5400   23.2500 O.3       1 SER1        0.0000 
      2 OG        -60.1200  -37.0500   21.9200 O.3       1 SER1        0.0000 
      3 OG        -58.9700  -38.0200   21.9200 O.3       1 SER1        0.0000 
      4 OG        -57.8300  -38.9900   21.9200 O.3       1 SER1        0.0000 
      5 OG        -58.5300  -37.5000   20.5800 O.3       1 SER1        0.0000 
      6 OG        -54.3600  -34.8900   21.3000 O.3       1 SER1        0.0000 
      7 OG        -60.1100  -30.0900   28.0100 O.3       1 SER1        0.0000 
      8 OG        -60.8200  -28.6000   26.6700 O.3       1 SER1        0.0000 
      9 OG        -59.6700  -29.5700   26.6700 O.3       1 SER1        0.0000 
     10 O         -66.7000  -33.2200   21.2400 O.2       2 ALA2        0.0000 
     11 N         -64.4100  -35.1600   21.2400 N.am      2 ALA2        0.0000 
     12 N         -63.2700  -36.1300   21.2400 N.am      2 ALA2        0.0000 
     13 O         -60.9800  -38.0700   21.2400 O.2       2 ALA2        0.0000 
     14 N         -64.6900  -33.1700   21.9200 N.am      2 ALA2        0.0000 
     15 N         -63.5500  -34.1400   21.9200 N.am      2 ALA2        0.0000 
     16 N         -62.4100  -35.1100   21.9200 N.am      2 ALA2        0.0000 
     17 O         -61.9700  -34.5900   20.5900 O.2       2 ALA2        0.0000 
     18 O         -59.6800  -36.5300   20.5800 O.2       2 ALA2        0.0000 
     19 N         -57.3900  -38.4700   20.5800 N.am      2 ALA2        0.0000 
     20 N         -61.0200  -38.1100   27.9400 N.am      2 ALA2        0.0000 
     21 N         -62.4200  -35.1300   25.2800 N.am      2 ALA2        0.0000 
     22 N         -61.2800  -36.1000   25.2700 N.am      2 ALA2        0.0000 
     23 N         -64.2700  -32.6700   23.9400 N.am      2 ALA2        0.0000 
     24 N         -63.1300  -33.6400   23.9400 N.am      2 ALA2        0.0000 
     25 N         -61.9800  -34.6100   23.9400 N.am      2 ALA2        0.0000 
     26 N         -60.8400  -35.5800   23.9400 N.am      2 ALA2        0.0000 
     27 N         -56.5200  -37.4500   21.2600 N.am      2 ALA2        0.0000 
     28 N         -56.0800  -36.9300   19.9300 N.am      2 ALA2        0.0000 
     29 N         -54.9400  -37.9000   19.9300 N.am      2 ALA2        0.0000 
     30 N         -59.0100  -38.0700   28.6300 N.am      2 ALA2        0.0000 
     31 N         -56.3600  -34.9400   20.6100 N.am      2 ALA2        0.0000 
     32 N         -55.2200  -35.9100   20.6100 N.am      2 ALA2        0.0000 
     33 N         -63.2600  -29.1700   27.3300 N.am      2 ALA2        0.0000 
     34 N         -62.8200  -28.6500   25.9900 N.am      2 ALA2        0.0000 
     35 O         -61.2600  -29.1200   28.0100 O.2       2 ALA2        0.0000 
     36 OD1       -59.4300  -38.5600   26.6100 O.co2     3 ASP3        0.0000 
     37 OD1       -58.9900  -38.0400   25.2700 O.co2     3 ASP3        0.0000 
     38 OD1       -57.8500  -39.0100   25.2700 O.co2     3 ASP3        0.0000 
     39 OD1       -60.4000  -35.0600   22.6000 O.co2     3 ASP3        0.0000 
     40 OD1       -59.2500  -36.0300   22.6000 O.co2     3 ASP3        0.0000 
     41 OD1       -58.1100  -37.0000   22.6000 O.co2     3 ASP3        0.0000 
     42 OD1       -59.9600  -34.5400   21.2700 O.co2     3 ASP3        0.0000 
     43 OD1       -58.8100  -35.5100   21.2700 O.co2     3 ASP3        0.0000 
     44 OD1       -57.6700  -36.4800   21.2700 O.co2     3 ASP3        0.0000 
     45 OD1       -58.5700  -37.5400   27.2900 O.co2     3 ASP3        0.0000 
     46 OD1       -56.9800  -37.9900   25.9500 O.co2     3 ASP3        0.0000 
     47 OD1       -58.8300  -35.5300   24.6200 O.co2     3 ASP3        0.0000 
     48 OD1       -57.6900  -36.5000   24.6200 O.co2     3 ASP3        0.0000 
     49 OD1       -57.2500  -35.9800   23.2800 O.co2     3 ASP3        0.0000 
     50 OD1       -56.8000  -35.4600   21.9500 O.co2     3 ASP3        0.0000 
     51 OD1       -55.6600  -36.4300   21.9500 O.co2     3 ASP3        0.0000 
     52 OD1       -58.8500  -35.5600   27.9700 O.co2     3 ASP3        0.0000 
     53 OD1       -59.5500  -34.0700   26.6400 O.co2     3 ASP3        0.0000 
     54 OD1       -58.4100  -35.0400   26.6400 O.co2     3 ASP3        0.0000 
     55 OD1       -56.8200  -35.4800   25.3000 O.co2     3 ASP3        0.0000 
     56 OD1       -56.3800  -34.9600   23.9700 O.co2     3 ASP3        0.0000 
     57 OD1       -54.8000  -35.4100   22.6300 O.co2     3 ASP3        0.0000 
     58 OD1       -59.8300  -32.0800   27.3200 O.co2     3 ASP3        0.0000 
     59 NZ        -60.3000  -39.5800   25.9300 N.4       4 LYS4        0.0000 
     60 NZ        -59.8600  -39.0600   24.5900 N.4       4 LYS4        0.0000 
     61 NZ        -61.7200  -36.6200   26.6100 N.4       4 LYS4        0.0000 
     62 NZ        -60.1500  -37.1000   28.6300 N.4       4 LYS4        0.0000 
     63 NZ        -63.1500  -33.6600   27.2900 N.4       4 LYS4        0.0000 
     64 NZ        -62.0000  -34.6300   27.2900 N.4       4 LYS4        0.0000 
     65 NZ        -60.8600  -35.6000   27.2900 N.4       4 LYS4        0.0000 
     66 NZ        -59.7100  -36.5700   27.2900 N.4       4 LYS4        0.0000 
     67 NZ        -61.1400  -33.6200   27.9800 N.4       4 LYS4        0.0000 
     68 NZ        -59.9900  -34.5900   27.9800 N.4       4 LYS4        0.0000 
     69 CZ        -64.2500  -32.6500   20.5900 C.ar      5 PHE5        0.0000 
     70 CZ        -63.1100  -33.6200   20.5900 C.ar      5 PHE5        0.0000 
     71 CZ        -64.7100  -33.1900   25.2800 C.ar      5 PHE5        0.0000 
     72 CZ        -63.8300  -32.1500   22.6100 C.ar      5 PHE5        0.0000 
     73 CZ        -62.6900  -33.1200   22.6000 C.ar      5 PHE5        0.0000 
     74 CZ        -61.5400  -34.0900   22.6000 C.ar      5 PHE5        0.0000 
     75 CZ        -61.1000  -33.5700   21.2700 C.ar      5 PHE5        0.0000 
     76 CZ        -64.9900  -31.2000   25.9600 C.ar      5 PHE5        0.0000 
     77 CZ        -63.8500  -32.1700   25.9600 C.ar      5 PHE5        0.0000 
     78 CZ        -63.4100  -31.6500   24.6200 C.ar      5 PHE5        0.0000 
     79 CZ        -62.2600  -32.6200   24.6200 C.ar      5 PHE5        0.0000 
     80 CZ        -64.1300  -30.1900   26.6400 C.ar      5 PHE5        0.0000 
     81 CZ        -62.9800  -31.1600   26.6400 C.ar      5 PHE5        0.0000 
     82 CZ        -61.8400  -32.1300   26.6400 C.ar      5 PHE5        0.0000 
     83 CZ        -62.5400  -30.6300   25.3100 C.ar      5 PHE5        0.0000 
     84 CZ        -62.1200  -30.1400   27.3300 C.ar      5 PHE5        0.0000 
     85 CZ        -60.9800  -31.1100   27.3200 C.ar      5 PHE5        0.0000 
     86 CZ        -61.6800  -29.6200   25.9900 C.ar      5 PHE5        0.0000 
     87 CA        -65.5600  -34.1900   21.2400 C.3       6 GLY6        0.0000 
     88 CA        -62.1300  -37.1000   21.2400 C.3       6 GLY6        0.0000 
     89 CA        -62.8300  -35.6100   19.9000 C.3       6 GLY6        0.0000 
     90 CA        -61.4400  -38.6100   25.9300 C.3       6 GLY6        0.0000 
     91 CA        -62.1400  -37.1200   24.5900 C.3       6 GLY6        0.0000 
     92 CA        -61.0000  -38.0900   24.5900 C.3       6 GLY6        0.0000 
     93 CA        -58.7100  -40.0300   24.5900 C.3       6 GLY6        0.0000 
     94 CA        -61.7000  -36.6000   23.2600 C.3       6 GLY6        0.0000 
     95 CA        -60.5600  -37.5700   23.2600 C.3       6 GLY6        0.0000 
     96 CA        -58.2700  -39.5100   23.2500 C.3       6 GLY6        0.0000 
     97 CA        -65.8400  -32.2000   21.9200 C.3       6 GLY6        0.0000 
     98 CA        -61.2600  -36.0800   21.9200 C.3       6 GLY6        0.0000 
     99 CA        -56.6900  -39.9600   21.9200 C.3       6 GLY6        0.0000 
    100 CA        -65.4200  -31.7000   23.9400 C.3       6 GLY6        0.0000 
    101 CA        -57.4100  -38.4900   23.9400 C.3       6 GLY6        0.0000 
    102 CA        -56.2600  -39.4600   23.9400 C.3       6 GLY6        0.0000 
    103 CA        -55.3800  -38.4200   21.2600 C.3       6 GLY6        0.0000 
    104 CA        -57.2300  -35.9600   19.9300 C.3       6 GLY6        0.0000 
    105 CA        -64.5500  -30.6800   24.6300 C.3       6 GLY6        0.0000 
    106 CA        -61.1200  -33.5900   24.6200 C.3       6 GLY6        0.0000 
    107 CA        -59.9800  -34.5600   24.6200 C.3       6 GLY6        0.0000 
    108 CA        -60.7000  -33.1000   26.6400 C.3       6 GLY6        0.0000 
    109 CA        -63.6900  -29.6600   25.3100 C.3       6 GLY6        0.0000 
    110 CA        -61.4000  -31.6000   25.3100 C.3       6 GLY6        0.0000 
    111 CA        -57.9700  -34.5100   25.3000 C.3       6 GLY6        0.0000 
    112 CA        -60.2700  -32.6000   28.6600 C.3       6 GLY6        0.0000 
    113 CA        -60.5400  -30.5900   25.9900 C.3       6 GLY6        0.0000 
    114 DU        -60.5800  -37.5900   26.6100 H         7 CUB7        0.0000 
    115 DU        -60.1400  -37.0700   25.2700 H         7 CUB7        0.0000 
    116 DU        -59.6900  -36.5500   23.9400 H         7 CUB7        0.0000 
    117 DU        -58.5500  -37.5200   23.9400 H         7 CUB7        0.0000 
    118 DU        -56.9700  -37.9700   22.6000 H         7 CUB7        0.0000 
    119 DU        -55.8200  -38.9400   22.6000 H         7 CUB7        0.0000 
    120 DU        -61.5600  -34.1100   25.9600 H         7 CUB7        0.0000 
    121 DU        -60.4200  -35.0800   25.9600 H         7 CUB7        0.0000 
    122 DU        -59.2700  -36.0500   25.9600 H         7 CUB7        0.0000 
    123 DU        -58.1300  -37.0200   25.9600 H         7 CUB7        0.0000 
    124 DU        -56.5400  -37.4700   24.6200 H         7 CUB7        0.0000 
    125 DU        -56.1000  -36.9500   23.2800 H         7 CUB7        0.0000 
    126 DU        -54.9600  -37.9200   23.2800 H         7 CUB7        0.0000 
    127 DU        -54.5200  -37.4000   21.9500 H         7 CUB7        0.0000 
    128 DU        -55.6800  -36.4500   25.3000 H         7 CUB7        0.0000 
    129 DU        -55.2400  -35.9300   23.9700 H         7 CUB7        0.0000 
@<TRIPOS>BOND
@<TRIPOS>SUBSTRUCTURE
     1 SER1        1 GROUP   
     2 ALA2       10 GROUP   
     3 ASP3       36 GROUP   
     4 LYS4       59 GROUP   
     5 PHE5       69 GROUP   
     6 GLY6       87 GROUP   
     7 CUB7      114 GROUP   
@<TRIPOS>SET

