#    Name: 6avh_2_AMP
#    Modification time : Fri May 22 19:37:27 2020

@<TRIPOS>MOLECULE
6avh_2_AMP
   23    25     1     0     1
SMALL
NO_CHARGES


@<TRIPOS>ATOM
      1 P         -75.2650   10.2150   59.1110 P.3       1 AMP600      0.0000 
      2 O1P       -74.8180    8.7780   58.9980 O.co2     1 AMP600      0.0000 
      3 O2P       -74.4400   11.1560   60.0050 O.co2     1 AMP600      0.0000 
      4 O3P       -76.7720   10.3510   59.2640 O.co2     1 AMP600      0.0000 
      5 O5'       -75.0180   10.7300   57.6230 O.3       1 AMP600      0.0000 
      6 C5'       -73.7100   10.9870   57.1250 C.3       1 AMP600      0.0000 
      7 C4'       -73.7900   11.8670   55.8990 C.3       1 AMP600      0.0000 
      8 O4'       -73.5990   13.2580   56.2610 O.3       1 AMP600      0.0000 
      9 C3'       -72.7660   11.6340   54.7940 C.3       1 AMP600      0.0000 
     10 O3'       -73.0850   10.5560   53.9310 O.3       1 AMP600      0.0000 
     11 C2'       -72.7800   12.9550   54.0670 C.3       1 AMP600      0.0000 
     12 O2'       -73.9670   13.0380   53.3160 O.3       1 AMP600      0.0000 
     13 C1'       -72.9130   13.9310   55.2260 C.3       1 AMP600      0.0000 
     14 N9        -71.5870   14.3660   55.7190 N.pl3     1 AMP600      0.0000 
     15 C8        -70.9050   13.8340   56.7630 C.2       1 AMP600      0.0000 
     16 N7        -69.7200   14.4610   56.9550 N.2       1 AMP600      0.0000 
     17 C5        -69.6000   15.4090   56.0010 C.ar      1 AMP600      0.0000 
     18 C6        -68.5840   16.4360   55.6260 C.ar      1 AMP600      0.0000 
     19 N6        -67.4200   16.5510   56.2870 N.pl3     1 AMP600      0.0000 
     20 N1        -68.8530   17.2750   54.6090 N.ar      1 AMP600      0.0000 
     21 C2        -70.0020   17.1210   53.9100 C.ar      1 AMP600      0.0000 
     22 N3        -70.9640   16.1950   54.1630 N.ar      1 AMP600      0.0000 
     23 C4        -70.8290   15.3280   55.1870 C.ar      1 AMP600      0.0000 
@<TRIPOS>BOND
     1    1    2 ar   
     2    1    3 ar   
     3    1    4 ar   
     4    1    5 1    
     5    5    6 1    
     6    6    7 1    
     7    7    8 1    
     8    7    9 1    
     9    8   13 1    
    10    9   10 1    
    11    9   11 1    
    12   11   12 1    
    13   11   13 1    
    14   13   14 1    
    15   14   15 1    
    16   14   23 1    
    17   15   16 2    
    18   16   17 1    
    19   17   18 ar   
    20   17   23 ar   
    21   18   19 1    
    22   18   20 ar   
    23   20   21 ar   
    24   21   22 ar   
    25   22   23 ar   
@<TRIPOS>SUBSTRUCTURE
     1 AMP600      1 GROUP   
@<TRIPOS>SET
ATOM$ORANGE STATIC     ATOMS   COLORGROUP SYSTEM 
20 6 6 7 7 9 9 11 11 13 13 15 15 17 17 18 18 21 \
21 23 23 

