#    Name: 6avh_1_AMP
#    Modification time : Fri May 22 19:37:21 2020

@<TRIPOS>MOLECULE
6avh_1_AMP
   23    25     1     0     1
SMALL
NO_CHARGES


@<TRIPOS>ATOM
      1 P         -59.3760  -36.6500   22.0720 P.3       1 AMP600      0.0000 
      2 O1P       -60.1260  -35.5370   21.3940 O.co2     1 AMP600      0.0000 
      3 O2P       -57.8730  -36.4370   22.1930 O.co2     1 AMP600      0.0000 
      4 O3P       -59.8970  -38.0060   21.7310 O.co2     1 AMP600      0.0000 
      5 O5'       -59.8170  -36.5390   23.5830 O.3       1 AMP600      0.0000 
      6 C5'       -61.0680  -35.9620   23.9120 C.3       1 AMP600      0.0000 
      7 C4'       -60.9450  -35.0480   25.1050 C.3       1 AMP600      0.0000 
      8 O4'       -61.1560  -33.6860   24.6860 O.3       1 AMP600      0.0000 
      9 C3'       -61.9580  -35.2410   26.2230 C.3       1 AMP600      0.0000 
     10 O3'       -61.6500  -36.3140   27.0870 O.3       1 AMP600      0.0000 
     11 C2'       -61.9600  -33.8860   26.9120 C.3       1 AMP600      0.0000 
     12 O2'       -60.8620  -33.7590   27.7870 O.3       1 AMP600      0.0000 
     13 C1'       -61.7560  -32.9420   25.7270 C.3       1 AMP600      0.0000 
     14 N9        -63.0610  -32.4200   25.2480 N.pl3     1 AMP600      0.0000 
     15 C8        -63.8430  -32.9390   24.2550 C.2       1 AMP600      0.0000 
     16 N7        -65.0090  -32.2610   24.1170 N.2       1 AMP600      0.0000 
     17 C5        -65.0020  -31.2770   25.0500 C.ar      1 AMP600      0.0000 
     18 C6        -65.9020  -30.1650   25.4700 C.ar      1 AMP600      0.0000 
     19 N6        -67.0880  -29.9510   24.8570 N.pl3     1 AMP600      0.0000 
     20 N1        -65.4910  -29.3560   26.4800 N.ar      1 AMP600      0.0000 
     21 C2        -64.3300  -29.5280   27.1420 C.ar      1 AMP600      0.0000 
     22 N3        -63.4750  -30.5110   26.8240 N.ar      1 AMP600      0.0000 
     23 C4        -63.7310  -31.3930   25.8070 C.ar      1 AMP600      0.0000 
@<TRIPOS>BOND
     1    1    2 ar   
     2    1    3 ar   
     3    1    4 ar   
     4    1    5 1    
     5    5    6 1    
     6    6    7 1    
     7    7    8 1    
     8    7    9 1    
     9    8   13 1    
    10    9   10 1    
    11    9   11 1    
    12   11   12 1    
    13   11   13 1    
    14   13   14 1    
    15   14   15 1    
    16   14   23 1    
    17   15   16 2    
    18   16   17 1    
    19   17   18 ar   
    20   17   23 ar   
    21   18   19 1    
    22   18   20 ar   
    23   20   21 ar   
    24   21   22 ar   
    25   22   23 ar   
@<TRIPOS>SUBSTRUCTURE
     1 AMP600      1 GROUP   
@<TRIPOS>SET
ATOM$ORANGE STATIC     ATOMS   COLORGROUP SYSTEM 
20 6 6 7 7 9 9 11 11 13 13 15 15 17 17 18 18 21 \
21 23 23 

