#    Name: 6avh_4_AMP
#    Modification time : Fri May 22 19:37:38 2020

@<TRIPOS>MOLECULE
6avh_4_AMP
   23    25     1     0     1
SMALL
NO_CHARGES


@<TRIPOS>ATOM
      1 P         -12.6230  -12.2160   58.0890 P.3       1 AMP600      0.0000 
      2 O1P       -11.9320  -11.4400   57.0310 O.co2     1 AMP600      0.0000 
      3 O2P       -13.3400  -11.3230   59.0450 O.co2     1 AMP600      0.0000 
      4 O3P       -11.8530  -13.2810   58.7560 O.co2     1 AMP600      0.0000 
      5 O5'       -13.8100  -12.8790   57.2800 O.3       1 AMP600      0.0000 
      6 C5'       -14.0520  -14.2640   57.2920 C.3       1 AMP600      0.0000 
      7 C4'       -14.1030  -14.8640   55.9080 C.3       1 AMP600      0.0000 
      8 O4'       -14.3140  -16.2910   56.0750 O.3       1 AMP600      0.0000 
      9 C3'       -15.2340  -14.4280   54.9800 C.3       1 AMP600      0.0000 
     10 O3'       -14.9530  -13.2660   54.2220 O.3       1 AMP600      0.0000 
     11 C2'       -15.4460  -15.6590   54.0900 C.3       1 AMP600      0.0000 
     12 O2'       -14.5240  -15.7340   53.0120 O.3       1 AMP600      0.0000 
     13 C1'       -15.1250  -16.8040   55.0430 C.3       1 AMP600      0.0000 
     14 N9        -16.3620  -17.3750   55.6240 N.pl3     1 AMP600      0.0000 
     15 C8        -17.0690  -16.7930   56.6110 C.2       1 AMP600      0.0000 
     16 N7        -18.1720  -17.5180   56.8870 N.2       1 AMP600      0.0000 
     17 C5        -18.2150  -18.5780   56.0580 C.ar      1 AMP600      0.0000 
     18 C6        -19.1180  -19.7260   55.8470 C.ar      1 AMP600      0.0000 
     19 N6        -20.2210  -19.8590   56.6040 N.pl3     1 AMP600      0.0000 
     20 N1        -18.7970  -20.6360   54.8810 N.ar      1 AMP600      0.0000 
     21 C2        -17.6870  -20.4840   54.1080 C.ar      1 AMP600      0.0000 
     22 N3        -16.8170  -19.4460   54.2430 N.ar      1 AMP600      0.0000 
     23 C4        -17.0200  -18.4790   55.2020 C.ar      1 AMP600      0.0000 
@<TRIPOS>BOND
     1    1    2 ar   
     2    1    3 ar   
     3    1    4 ar   
     4    1    5 1    
     5    5    6 1    
     6    6    7 1    
     7    7    8 1    
     8    7    9 1    
     9    8   13 1    
    10    9   10 1    
    11    9   11 1    
    12   11   12 1    
    13   11   13 1    
    14   13   14 1    
    15   14   15 1    
    16   14   23 1    
    17   15   16 2    
    18   16   17 1    
    19   17   18 ar   
    20   17   23 ar   
    21   18   19 1    
    22   18   20 ar   
    23   20   21 ar   
    24   21   22 ar   
    25   22   23 ar   
@<TRIPOS>SUBSTRUCTURE
     1 AMP600      1 GROUP   
@<TRIPOS>SET
ATOM$ORANGE STATIC     ATOMS   COLORGROUP SYSTEM 
20 6 6 7 7 9 9 11 11 13 13 15 15 17 17 18 18 21 \
21 23 23 

