#    Name: 6avh_3_AMP_CAVITY_N1_4
#    Modification time : Fri May 22 19:37:33 2020

@<TRIPOS>MOLECULE
6avh_3_AMP_CAVITY_N1_4
   74     0     7     0     0
SMALL
NO_CHARGES


@<TRIPOS>ATOM
      1 OG        -31.4700   29.2100   25.2300 O.3       1 SER1        0.0000 
      2 OG        -30.3300   28.2400   25.2300 O.3       1 SER1        0.0000 
      3 OG        -32.4600   32.6900   24.5800 O.3       1 SER1        0.0000 
      4 OG        -32.0200   33.2200   23.2500 O.3       1 SER1        0.0000 
      5 OG        -31.1500   34.2300   23.9300 O.3       1 SER1        0.0000 
      6 OG        -25.4300   29.3800   23.9300 O.3       1 SER1        0.0000 
      7 OG        -30.7100   34.7600   22.5900 O.3       1 SER1        0.0000 
      8 OG        -31.4100   36.2500   21.2600 O.3       1 SER1        0.0000 
      9 O         -36.2900   35.1300   19.2100 O.2       2 ALA2        0.0000 
     10 N         -35.1500   34.1600   19.2100 N.am      2 ALA2        0.0000 
     11 O         -35.8500   35.6500   17.8800 O.2       2 ALA2        0.0000 
     12 N         -29.1800   27.2700   25.2300 N.am      2 ALA2        0.0000 
     13 N         -28.7400   27.8000   23.9000 N.am      2 ALA2        0.0000 
     14 N         -27.8800   28.8100   24.5800 N.am      2 ALA2        0.0000 
     15 N         -26.7400   27.8400   24.5800 N.am      2 ALA2        0.0000 
     16 N         -29.5700   33.7900   22.5900 N.am      2 ALA2        0.0000 
     17 N         -28.4200   32.8200   22.5900 N.am      2 ALA2        0.0000 
     18 N         -27.2800   31.8500   22.5900 N.am      2 ALA2        0.0000 
     19 N         -30.2700   35.2800   21.2600 N.am      2 ALA2        0.0000 
     20 N         -26.8400   32.3700   21.2600 N.am      2 ALA2        0.0000 
     21 N         -25.6900   31.4000   21.2600 N.am      2 ALA2        0.0000 
     22 N         -28.7000   34.8000   23.2800 N.am      2 ALA2        0.0000 
     23 OD1       -32.9000   32.1700   25.9200 O.co2     3 ASP3        0.0000 
     24 OD1       -31.1300   34.2600   20.5800 O.co2     3 ASP3        0.0000 
     25 OD1       -31.5900   33.7100   25.2700 O.co2     3 ASP3        0.0000 
     26 OD1       -31.4300   36.2200   24.6100 O.co2     3 ASP3        0.0000 
     27 NZ        -30.8900   32.2200   26.6000 N.4       4 LYS4        0.0000 
     28 NZ        -30.4500   32.7400   25.2700 N.4       4 LYS4        0.0000 
     29 NZ        -30.2900   35.2500   24.6100 N.4       4 LYS4        0.0000 
     30 NZ        -29.1400   34.2800   24.6100 N.4       4 LYS4        0.0000 
     31 CZ        -29.4500   29.2900   22.5600 C.ar      5 PHE5        0.0000 
     32 CZ        -31.0500   29.7100   27.2500 C.ar      5 PHE5        0.0000 
     33 CZ        -30.6100   30.2300   25.9200 C.ar      5 PHE5        0.0000 
     34 CZ        -29.4600   29.2600   25.9200 C.ar      5 PHE5        0.0000 
     35 CZ        -28.3200   28.2900   25.9200 C.ar      5 PHE5        0.0000 
     36 CZ        -30.1700   30.7500   24.5800 C.ar      5 PHE5        0.0000 
     37 CZ        -29.0200   29.7800   24.5800 C.ar      5 PHE5        0.0000 
     38 CZ        -28.5800   30.3100   23.2400 C.ar      5 PHE5        0.0000 
     39 CZ        -29.2900   31.8000   21.9100 C.ar      5 PHE5        0.0000 
     40 CZ        -28.1400   30.8300   21.9100 C.ar      5 PHE5        0.0000 
     41 CZ        -27.0000   29.8600   21.9100 C.ar      5 PHE5        0.0000 
     42 CZ        -29.9900   33.2900   20.5800 C.ar      5 PHE5        0.0000 
     43 CZ        -27.7000   31.3500   20.5700 C.ar      5 PHE5        0.0000 
     44 CZ        -27.2600   31.8700   19.2400 C.ar      5 PHE5        0.0000 
     45 CZ        -29.3000   31.7700   25.2600 C.ar      5 PHE5        0.0000 
     46 CZ        -27.0200   29.8300   25.2600 C.ar      5 PHE5        0.0000 
     47 CZ        -25.8700   28.8600   25.2600 C.ar      5 PHE5        0.0000 
     48 CZ        -27.7200   31.3200   23.9300 C.ar      5 PHE5        0.0000 
     49 CZ        -26.5700   30.3500   23.9300 C.ar      5 PHE5        0.0000 
     50 CZ        -26.1300   30.8800   22.5900 C.ar      5 PHE5        0.0000 
     51 CZ        -28.4400   32.7900   25.9500 C.ar      5 PHE5        0.0000 
     52 CZ        -28.0000   33.3100   24.6100 C.ar      5 PHE5        0.0000 
     53 CZ        -26.8600   32.3400   24.6100 C.ar      5 PHE5        0.0000 
     54 CA        -30.7500   27.7500   23.2100 C.3       6 GLY6        0.0000 
     55 CA        -33.0600   29.6600   26.5700 C.3       6 GLY6        0.0000 
     56 CA        -33.7600   31.1500   25.2400 C.3       6 GLY6        0.0000 
     57 CA        -32.6200   30.1800   25.2400 C.3       6 GLY6        0.0000 
     58 CA        -32.1800   30.7100   23.9000 C.3       6 GLY6        0.0000 
     59 CA        -31.0300   29.7400   23.9000 C.3       6 GLY6        0.0000 
     60 CA        -30.5900   30.2600   22.5600 C.3       6 GLY6        0.0000 
     61 CA        -28.3000   28.3200   22.5600 C.3       6 GLY6        0.0000 
     62 CA        -31.7500   31.2000   25.9200 C.3       6 GLY6        0.0000 
     63 CA        -31.3100   31.7200   24.5800 C.3       6 GLY6        0.0000 
     64 CA        -30.8700   32.2500   23.2500 C.3       6 GLY6        0.0000 
     65 CA        -29.7300   31.2800   23.2500 C.3       6 GLY6        0.0000 
     66 CA        -27.4400   29.3400   23.2400 C.3       6 GLY6        0.0000 
     67 CA        -26.2900   28.3700   23.2400 C.3       6 GLY6        0.0000 
     68 CA        -31.5700   33.7400   21.9100 C.3       6 GLY6        0.0000 
     69 CA        -30.4300   32.7700   21.9100 C.3       6 GLY6        0.0000 
     70 CA        -32.2800   35.2300   20.5800 C.3       6 GLY6        0.0000 
     71 CA        -30.9900   36.7400   23.2800 C.3       6 GLY6        0.0000 
     72 DU        -29.8900   28.7700   23.9000 H         7 CUB7        0.0000 
     73 DU        -30.0100   33.2600   23.9300 H         7 CUB7        0.0000 
     74 DU        -28.8600   32.2900   23.9300 H         7 CUB7        0.0000 
@<TRIPOS>BOND
@<TRIPOS>SUBSTRUCTURE
     1 SER1        1 GROUP   
     2 ALA2        9 GROUP   
     3 ASP3       23 GROUP   
     4 LYS4       27 GROUP   
     5 PHE5       31 GROUP   
     6 GLY6       54 GROUP   
     7 CUB7       72 GROUP   
@<TRIPOS>SET

