#    Name: 6avh_4_AMP_CAVITY_N1_4
#    Modification time : Fri May 22 19:37:39 2020

@<TRIPOS>MOLECULE
6avh_4_AMP_CAVITY_N1_4
   81     0     7     0     0
SMALL
NO_CHARGES


@<TRIPOS>ATOM
      1 OG        -20.2600  -20.2200   55.1300 O.3       1 SER1        0.0000 
      2 OG        -14.2200  -20.0500   53.8200 O.3       1 SER1        0.0000 
      3 OG        -13.4700  -14.5300   54.5300 O.3       1 SER1        0.0000 
      4 OG        -12.3300  -15.5000   54.5300 O.3       1 SER1        0.0000 
      5 OG        -13.0500  -14.0300   56.5500 O.3       1 SER1        0.0000 
      6 OG        -13.3300  -12.0500   57.2300 O.3       1 SER1        0.0000 
      7 N         -19.4000  -19.2000   55.8100 N.am      2 ALA2        0.0000 
      8 N         -16.6700  -20.6200   54.4700 N.am      2 ALA2        0.0000 
      9 N         -18.5300  -18.1800   56.4900 N.am      2 ALA2        0.0000 
     10 N         -19.6900  -17.2300   59.8500 N.am      2 ALA2        0.0000 
     11 O         -19.2500  -16.7100   58.5100 O.2       2 ALA2        0.0000 
     12 N         -17.6700  -17.1600   57.1700 N.am      2 ALA2        0.0000 
     13 N         -17.2300  -16.6400   55.8400 N.am      2 ALA2        0.0000 
     14 O         -18.3900  -15.6900   59.1900 O.2       2 ALA2        0.0000 
     15 N         -16.8000  -16.1400   57.8600 N.am      2 ALA2        0.0000 
     16 N         -15.9200  -15.1000   55.1900 N.am      2 ALA2        0.0000 
     17 N         -17.5300  -14.6800   59.8800 N.am      2 ALA2        0.0000 
     18 N         -15.9400  -15.1200   58.5400 N.am      2 ALA2        0.0000 
     19 N         -15.0600  -14.0800   55.8700 N.am      2 ALA2        0.0000 
     20 N         -15.0800  -14.1100   59.2200 N.am      2 ALA2        0.0000 
     21 N         -14.6400  -13.5900   57.8900 N.am      2 ALA2        0.0000 
     22 O         -14.6500  -13.6100   61.2400 O.2       2 ALA2        0.0000 
     23 O         -14.2100  -13.0900   59.9100 O.2       2 ALA2        0.0000 
     24 OD1       -14.6200  -13.5600   54.5300 O.co2     3 ASP3        0.0000 
     25 NZ        -13.6200  -17.0200   51.8300 N.4       4 LYS4        0.0000 
     26 NZ        -14.3400  -15.5500   53.8500 N.4       4 LYS4        0.0000 
     27 CZ        -18.9600  -18.6800   54.4700 C.ar      5 PHE5        0.0000 
     28 CZ        -17.8100  -19.6500   54.4700 C.ar      5 PHE5        0.0000 
     29 CZ        -16.2300  -20.1000   53.1400 C.ar      5 PHE5        0.0000 
     30 CZ        -16.2400  -20.1200   56.4900 C.ar      5 PHE5        0.0000 
     31 CZ        -18.0900  -17.6600   55.1600 C.ar      5 PHE5        0.0000 
     32 CZ        -16.9500  -18.6300   55.1500 C.ar      5 PHE5        0.0000 
     33 CZ        -15.8000  -19.6000   55.1500 C.ar      5 PHE5        0.0000 
     34 CZ        -14.6600  -20.5700   55.1500 C.ar      5 PHE5        0.0000 
     35 CZ        -16.5100  -18.1100   53.8200 C.ar      5 PHE5        0.0000 
     36 CZ        -15.3600  -19.0800   53.8200 C.ar      5 PHE5        0.0000 
     37 CZ        -13.7800  -19.5300   52.4800 C.ar      5 PHE5        0.0000 
     38 CZ        -16.5200  -18.1300   57.1700 C.ar      5 PHE5        0.0000 
     39 CZ        -16.0800  -17.6100   55.8400 C.ar      5 PHE5        0.0000 
     40 CZ        -14.9400  -18.5800   55.8400 C.ar      5 PHE5        0.0000 
     41 CZ        -13.8000  -19.5500   55.8400 C.ar      5 PHE5        0.0000 
     42 CZ        -16.7900  -16.1200   54.5000 C.ar      5 PHE5        0.0000 
     43 CZ        -15.6400  -17.0900   54.5000 C.ar      5 PHE5        0.0000 
     44 CZ        -15.2000  -16.5700   53.1700 C.ar      5 PHE5        0.0000 
     45 CZ        -14.0600  -17.5400   53.1700 C.ar      5 PHE5        0.0000 
     46 CZ        -17.2500  -16.6600   59.1900 C.ar      5 PHE5        0.0000 
     47 CZ        -15.2200  -16.5900   56.5200 C.ar      5 PHE5        0.0000 
     48 CZ        -16.3800  -15.6500   59.8800 C.ar      5 PHE5        0.0000 
     49 CZ        -14.8000  -16.0900   58.5400 C.ar      5 PHE5        0.0000 
     50 CZ        -14.3700  -15.6000   60.5600 C.ar      5 PHE5        0.0000 
     51 CZ        -13.9300  -15.0800   59.2200 C.ar      5 PHE5        0.0000 
     52 CA        -19.1200  -21.1900   55.1200 C.3       6 GLY6        0.0000 
     53 CA        -18.2500  -20.1700   55.8100 C.3       6 GLY6        0.0000 
     54 CA        -15.0800  -21.0700   53.1300 C.3       6 GLY6        0.0000 
     55 CA        -17.3900  -19.1500   56.4900 C.3       6 GLY6        0.0000 
     56 CA        -18.1100  -17.6800   58.5100 C.3       6 GLY6        0.0000 
     57 CA        -13.3500  -19.0300   54.5000 C.3       6 GLY6        0.0000 
     58 CA        -12.9100  -18.5100   53.1600 C.3       6 GLY6        0.0000 
     59 CA        -12.4700  -17.9900   51.8300 C.3       6 GLY6        0.0000 
     60 CA        -18.8300  -16.2200   60.5300 C.3       6 GLY6        0.0000 
     61 CA        -17.6900  -17.1900   60.5300 C.3       6 GLY6        0.0000 
     62 CA        -14.0800  -17.5600   56.5200 C.3       6 GLY6        0.0000 
     63 CA        -13.6300  -17.0400   55.1800 C.3       6 GLY6        0.0000 
     64 CA        -13.1900  -16.5200   53.8500 C.3       6 GLY6        0.0000 
     65 CA        -12.0500  -17.4900   53.8500 C.3       6 GLY6        0.0000 
     66 CA        -11.6100  -16.9700   52.5100 C.3       6 GLY6        0.0000 
     67 CA        -14.3600  -15.5700   57.2000 C.3       6 GLY6        0.0000 
     68 CA        -13.9100  -15.0500   55.8700 C.3       6 GLY6        0.0000 
     69 CA        -10.7400  -15.9500   53.1900 C.3       6 GLY6        0.0000 
     70 CA        -16.2200  -13.1400   59.2200 C.3       6 GLY6        0.0000 
     71 CA        -13.4900  -14.5500   57.8900 C.3       6 GLY6        0.0000 
     72 CA        -14.2000  -13.0600   56.5500 C.3       6 GLY6        0.0000 
     73 CA        -15.8000  -12.6400   61.2400 C.3       6 GLY6        0.0000 
     74 CA        -15.3600  -12.1200   59.9100 C.3       6 GLY6        0.0000 
     75 CA        -13.0700  -14.0600   59.9000 C.3       6 GLY6        0.0000 
     76 CA        -13.7700  -12.5700   58.5700 C.3       6 GLY6        0.0000 
     77 CA        -12.6300  -13.5400   58.5700 C.3       6 GLY6        0.0000 
     78 CA        -14.9300  -11.6200   61.9200 C.3       6 GLY6        0.0000 
     79 DU        -14.5000  -18.0600   54.5000 H         7 CUB7        0.0000 
     80 DU        -14.7800  -16.0700   55.1800 H         7 CUB7        0.0000 
     81 DU        -15.5200  -14.6300   60.5600 H         7 CUB7        0.0000 
@<TRIPOS>BOND
@<TRIPOS>SUBSTRUCTURE
     1 SER1        1 GROUP   
     2 ALA2        7 GROUP   
     3 ASP3       24 GROUP   
     4 LYS4       25 GROUP   
     5 PHE5       27 GROUP   
     6 GLY6       52 GROUP   
     7 CUB7       79 GROUP   
@<TRIPOS>SET

