#    Name: 6g31_1_ZOL_CAVITY_N1_6
#    Modification time : Fri May 22 19:32:43 2020

@<TRIPOS>MOLECULE
6g31_1_ZOL_CAVITY_N1_6
  114     0     7     0     0
SMALL
NO_CHARGES


@<TRIPOS>ATOM
      1 OG          3.6000    5.6000   40.4600 O.3       1 SER1        0.0000 
      2 OG          3.6200    7.0500   40.0500 O.3       1 SER1        0.0000 
      3 OG          4.8000   14.5300   39.0200 O.3       1 SER1        0.0000 
      4 OG          4.8200   15.9800   38.6100 O.3       1 SER1        0.0000 
      5 OG          3.6800    7.6200   42.0900 O.3       1 SER1        0.0000 
      6 OG          3.7000    9.0700   41.6900 O.3       1 SER1        0.0000 
      7 OG          6.9100   13.0500   39.3600 O.3       1 SER1        0.0000 
      8 OG          5.8800   13.3500   40.4100 O.3       1 SER1        0.0000 
      9 OG          4.7800    7.8900   43.0900 O.3       1 SER1        0.0000 
     10 OG          3.7700    9.6400   43.7300 O.3       1 SER1        0.0000 
     11 OG          3.7900   11.0800   43.3200 O.3       1 SER1        0.0000 
     12 N           0.3700    9.1400   36.2600 N.am      2 ALA2        0.0000 
     13 O           1.4300    6.5200   38.0700 O.2       2 ALA2        0.0000 
     14 N           1.4700    9.4100   37.2600 N.am      2 ALA2        0.0000 
     15 N           1.4900   10.8500   36.8500 N.am      2 ALA2        0.0000 
     16 N           0.4600   11.1600   37.9000 N.am      2 ALA2        0.0000 
     17 O           3.5100    3.5900   38.8200 O.2       2 ALA2        0.0000 
     18 O           3.5300    5.0300   38.4200 O.2       2 ALA2        0.0000 
     19 O           2.5200    6.7800   39.0600 O.2       2 ALA2        0.0000 
     20 O           1.5000    7.0900   40.1100 O.2       2 ALA2        0.0000 
     21 N           1.5500   11.4300   38.8900 N.am      2 ALA2        0.0000 
     22 N           4.6400    6.7400   39.0000 N.am      2 ALA2        0.0000 
     23 N           2.5900    7.3600   41.1000 N.am      2 ALA2        0.0000 
     24 N           1.5600    7.6700   42.1500 N.am      2 ALA2        0.0000 
     25 O           7.9000   15.0500   35.4600 O.2       2 ALA2        0.0000 
     26 N           2.6600    7.9300   43.1400 N.am      2 ALA2        0.0000 
     27 N           1.6300    8.2400   44.1900 N.am      2 ALA2        0.0000 
     28 N           0.6400   11.4300   44.4300 N.am      2 ALA2        0.0000 
     29 OD1         1.4000    8.8400   35.2200 O.co2     3 ASP3        0.0000 
     30 OD1         1.4200   10.2800   34.8100 O.co2     3 ASP3        0.0000 
     31 OD1         0.3500    7.7000   36.6700 O.co2     3 ASP3        0.0000 
     32 OD1         0.3900   10.5900   35.8600 O.co2     3 ASP3        0.0000 
     33 OD1         3.5400   10.2400   34.7500 O.co2     3 ASP3        0.0000 
     34 OD1         3.5600   11.6800   34.3500 O.co2     3 ASP3        0.0000 
     35 OD1         2.4900    9.1000   36.2100 O.co2     3 ASP3        0.0000 
     36 OD1         2.5100   10.5400   35.8000 O.co2     3 ASP3        0.0000 
     37 OD1         2.5300   11.9900   35.4000 O.co2     3 ASP3        0.0000 
     38 OD1         1.4500    7.9600   37.6600 O.co2     3 ASP3        0.0000 
     39 OD1         1.5000   12.3000   36.4500 O.co2     3 ASP3        0.0000 
     40 OD1         0.4200    8.2700   38.7100 O.co2     3 ASP3        0.0000 
     41 OD1         0.4400    9.7200   38.3100 O.co2     3 ASP3        0.0000 
     42 OD1         4.6100    9.0600   36.1500 O.co2     3 ASP3        0.0000 
     43 OD1         3.6100   10.8100   36.7900 O.co2     3 ASP3        0.0000 
     44 OD1         3.6300   12.2500   36.3900 O.co2     3 ASP3        0.0000 
     45 OD1         1.5100    8.5400   39.7000 O.co2     3 ASP3        0.0000 
     46 OD1         1.5300    9.9800   39.3000 O.co2     3 ASP3        0.0000 
     47 OD1         6.7900   13.3400   34.8800 O.co2     3 ASP3        0.0000 
     48 OD1         5.7600   13.6500   35.9300 O.co2     3 ASP3        0.0000 
     49 OD1         4.7200   12.5200   37.3800 O.co2     3 ASP3        0.0000 
     50 OD1         7.8800   13.6100   35.8700 O.co2     3 ASP3        0.0000 
     51 OD1         6.8400   12.4700   37.3200 O.co2     3 ASP3        0.0000 
     52 OD1         6.8600   13.9200   36.9200 O.co2     3 ASP3        0.0000 
     53 OD1         8.9600   12.4300   37.2700 O.co2     3 ASP3        0.0000 
     54 OD1         8.9800   13.8700   36.8600 O.co2     3 ASP3        0.0000 
     55 NZ          2.4700    7.6600   36.6100 N.4       4 LYS4        0.0000 
     56 NZ          4.5900    7.6100   36.5600 N.4       4 LYS4        0.0000 
     57 NZ          3.5700    7.9200   37.6000 N.4       4 LYS4        0.0000 
     58 CZ          2.6000   12.5600   37.4400 C.ar      5 PHE5        0.0000 
     59 CZ          3.6900   12.8300   38.4300 C.ar      5 PHE5        0.0000 
     60 CZ          3.7100   14.2700   38.0200 C.ar      5 PHE5        0.0000 
     61 CZ          3.7300   15.7100   37.6200 C.ar      5 PHE5        0.0000 
     62 CZ          2.6500   11.6900   39.8800 C.ar      5 PHE5        0.0000 
     63 CZ          2.6700   13.1300   39.4800 C.ar      5 PHE5        0.0000 
     64 CZ          0.6100   13.7500   41.5800 C.ar      5 PHE5        0.0000 
     65 CZ          4.7300    8.7600   40.6400 C.ar      5 PHE5        0.0000 
     66 CZ          4.7500   10.2000   40.2300 C.ar      5 PHE5        0.0000 
     67 CZ          4.7700   11.6500   39.8300 C.ar      5 PHE5        0.0000 
     68 CZ          4.7900   13.0900   39.4200 C.ar      5 PHE5        0.0000 
     69 CZ          3.7200   10.5100   41.2800 C.ar      5 PHE5        0.0000 
     70 CZ          3.7400   11.9500   40.8800 C.ar      5 PHE5        0.0000 
     71 CZ          3.7600   13.4000   40.4700 C.ar      5 PHE5        0.0000 
     72 CZ          2.6900   10.8200   42.3300 C.ar      5 PHE5        0.0000 
     73 CZ          2.7300   13.7100   41.5200 C.ar      5 PHE5        0.0000 
     74 CZ          3.8100   12.5300   42.9200 C.ar      5 PHE5        0.0000 
     75 CA          0.4000    6.8300   39.1200 C.3       6 GLY6        0.0000 
     76 CA          3.4900    2.1400   39.2300 C.3       6 GLY6        0.0000 
     77 CA          3.5500    6.4800   38.0100 C.3       6 GLY6        0.0000 
     78 CA          3.5900    9.3600   37.2000 C.3       6 GLY6        0.0000 
     79 CA          0.4900    8.8500   40.7500 C.3       6 GLY6        0.0000 
     80 CA          0.5100   10.2900   40.3500 C.3       6 GLY6        0.0000 
     81 CA          0.5300   11.7300   39.9400 C.3       6 GLY6        0.0000 
     82 CA          4.6600    8.1800   38.6000 C.3       6 GLY6        0.0000 
     83 CA          4.7000   11.0700   37.7900 C.3       6 GLY6        0.0000 
     84 CA          3.6400    8.4900   39.6500 C.3       6 GLY6        0.0000 
     85 CA          3.6500    9.9400   39.2400 C.3       6 GLY6        0.0000 
     86 CA          3.6700   11.3800   38.8400 C.3       6 GLY6        0.0000 
     87 CA          2.5700    5.9100   41.5100 C.3       6 GLY6        0.0000 
     88 CA          1.5800    9.1100   41.7500 C.3       6 GLY6        0.0000 
     89 CA          1.6000   10.5500   41.3400 C.3       6 GLY6        0.0000 
     90 CA          1.6200   12.0000   40.9300 C.3       6 GLY6        0.0000 
     91 CA          0.5900   12.3100   41.9800 C.3       6 GLY6        0.0000 
     92 CA          5.8100   12.7800   38.3700 C.3       6 GLY6        0.0000 
     93 CA          3.6600    6.1800   42.5000 C.3       6 GLY6        0.0000 
     94 CA          1.6500    9.6800   43.7900 C.3       6 GLY6        0.0000 
     95 CA          1.6700   11.1300   43.3800 C.3       6 GLY6        0.0000 
     96 CA          1.6900   12.5700   42.9800 C.3       6 GLY6        0.0000 
     97 CA          7.9300   12.7400   38.3200 C.3       6 GLY6        0.0000 
     98 CA          3.7500    8.1900   44.1300 C.3       6 GLY6        0.0000 
     99 CA          2.7400    9.9500   44.7800 C.3       6 GLY6        0.0000 
    100 DU          3.6400   13.7000   35.9800 H         7 CUB7        0.0000 
    101 DU          2.5400    8.2300   38.6500 H         7 CUB7        0.0000 
    102 DU          2.5600    9.6700   38.2500 H         7 CUB7        0.0000 
    103 DU          2.5800   11.1200   37.8400 H         7 CUB7        0.0000 
    104 DU          4.7400   13.9600   36.9800 H         7 CUB7        0.0000 
    105 DU          2.6100    8.8000   40.7000 H         7 CUB7        0.0000 
    106 DU          2.6300   10.2500   40.2900 H         7 CUB7        0.0000 
    107 DU          6.8800   15.3600   36.5100 H         7 CUB7        0.0000 
    108 DU          5.8300   14.2200   37.9700 H         7 CUB7        0.0000 
    109 DU          5.8500   15.6700   37.5600 H         7 CUB7        0.0000 
    110 DU          2.6800    9.3700   42.7400 H         7 CUB7        0.0000 
    111 DU          2.7100   12.2600   41.9300 H         7 CUB7        0.0000 
    112 DU          7.9500   14.1800   37.9100 H         7 CUB7        0.0000 
    113 DU          6.9200   14.4900   38.9600 H         7 CUB7        0.0000 
    114 DU          2.7600   11.3900   44.3700 H         7 CUB7        0.0000 
@<TRIPOS>BOND
@<TRIPOS>SUBSTRUCTURE
     1 SER1        1 GROUP   
     2 ALA2       12 GROUP   
     3 ASP3       29 GROUP   
     4 LYS4       55 GROUP   
     5 PHE5       58 GROUP   
     6 GLY6       75 GROUP   
     7 CUB7      100 GROUP   
@<TRIPOS>SET

