#    Name: 6g31_1_ZOL
#    Modification time : Fri May 22 19:32:42 2020

@<TRIPOS>MOLECULE
6g31_1_ZOL
   16    16     1     0     0
SMALL
NO_CHARGES


@<TRIPOS>ATOM
      1 O17         3.6580   12.1580   35.0280 O.co2     1 ZOL401      0.0000 
      2 P14         2.7670   11.0730   34.4460 P.3       1 ZOL401      0.0000 
      3 O16         1.6760   11.7550   33.6090 O.co2     1 ZOL401      0.0000 
      4 O15         3.5820   10.1050   33.5950 O.co2     1 ZOL401      0.0000 
      5 C8          1.9930   10.1570   35.8900 C.3       1 ZOL401      0.0000 
      6 P9          0.7370    9.0300   35.1340 P.3       1 ZOL401      0.0000 
      7 O10        -0.2270    9.9870   34.4510 O.co2     1 ZOL401      0.0000 
      8 O11         0.0830    8.2070   36.2190 O.co2     1 ZOL401      0.0000 
      9 O12         1.4600    8.0950   34.1920 O.co2     1 ZOL401      0.0000 
     10 O13         1.3320   11.0490   36.7640 O.3       1 ZOL401      0.0000 
     11 C7          3.0470    9.3290   36.6280 C.3       1 ZOL401      0.0000 
     12 N15         2.5520    8.6610   37.8380 N.pl3     1 ZOL401      0.0000 
     13 C16         1.6810    9.1130   38.7590 C.2       1 ZOL401      0.0000 
     14 N17         1.5590    8.1590   39.7030 N.2       1 ZOL401      0.0000 
     15 C18         2.3360    7.1400   39.4030 C.2       1 ZOL401      0.0000 
     16 C19         2.9440    7.4620   38.2370 C.2       1 ZOL401      0.0000 
@<TRIPOS>BOND
     1    1    2 ar   
     2    2    3 ar   
     3    2    4 ar   
     4    2    5 1    
     5    5    6 1    
     6    5   10 1    
     7    5   11 1    
     8    6    7 ar   
     9    6    8 ar   
    10    6    9 ar   
    11   11   12 1    
    12   12   13 1    
    13   12   16 1    
    14   13   14 2    
    15   14   15 1    
    16   15   16 2    
@<TRIPOS>SUBSTRUCTURE
     1 ZOL401      1 GROUP   
@<TRIPOS>SET

