#    Name: 6g31_12_ZOL
#    Modification time : Fri May 22 19:33:18 2020

@<TRIPOS>MOLECULE
6g31_12_ZOL
   16    16     1     0     0
SMALL
NO_CHARGES


@<TRIPOS>ATOM
      1 O17        44.9230    4.9250   71.6990 O.co2     1 ZOL401      0.0000 
      2 P14        43.9460    6.0680   71.5240 P.3       1 ZOL401      0.0000 
      3 O16        43.8420    6.9100   72.7780 O.co2     1 ZOL401      0.0000 
      4 O15        44.3110    6.9510   70.3380 O.co2     1 ZOL401      0.0000 
      5 C8         42.3050    5.2790   71.2310 C.3       1 ZOL401      0.0000 
      6 P9         42.5270    4.1310   69.7820 P.3       1 ZOL401      0.0000 
      7 O10        43.4870    3.0500   70.2060 O.co2     1 ZOL401      0.0000 
      8 O11        41.2140    3.5030   69.3430 O.co2     1 ZOL401      0.0000 
      9 O12        43.1460    4.9180   68.6300 O.co2     1 ZOL401      0.0000 
     10 O13        41.3900    6.3010   70.9510 O.3       1 ZOL401      0.0000 
     11 C7         41.9630    4.4960   72.4890 C.3       1 ZOL401      0.0000 
     12 N15        40.6360    3.9080   72.3730 N.pl3     1 ZOL401      0.0000 
     13 C16        39.4550    4.5570   72.4350 C.2       1 ZOL401      0.0000 
     14 N17        38.4640    3.6520   72.2920 N.2       1 ZOL401      0.0000 
     15 C18        39.0090    2.4620   72.1580 C.2       1 ZOL401      0.0000 
     16 C19        40.3670    2.6250   72.2080 C.2       1 ZOL401      0.0000 
@<TRIPOS>BOND
     1    1    2 ar   
     2    2    3 ar   
     3    2    4 ar   
     4    2    5 1    
     5    5    6 1    
     6    5   10 1    
     7    5   11 1    
     8    6    7 ar   
     9    6    8 ar   
    10    6    9 ar   
    11   11   12 1    
    12   12   13 1    
    13   12   16 1    
    14   13   14 2    
    15   14   15 1    
    16   15   16 2    
@<TRIPOS>SUBSTRUCTURE
     1 ZOL401      1 GROUP   
@<TRIPOS>SET

