#    Name: 6g31_8_ZOL_CAVITY_N1_6
#    Modification time : Fri May 22 19:33:06 2020

@<TRIPOS>MOLECULE
6g31_8_ZOL_CAVITY_N1_6
  132     0     7     0     0
SMALL
NO_CHARGES


@<TRIPOS>ATOM
      1 OG        -21.5100  -23.1000   75.7800 O.3       1 SER1        0.0000 
      2 OG        -21.5000  -21.6500   75.3800 O.3       1 SER1        0.0000 
      3 OG        -17.2200  -18.8500   74.4500 O.3       1 SER1        0.0000 
      4 OG        -17.2000  -17.4100   74.0400 O.3       1 SER1        0.0000 
      5 OG        -18.2200  -17.1000   75.0900 O.3       1 SER1        0.0000 
      6 OG        -17.1300  -16.8400   76.0900 O.3       1 SER1        0.0000 
      7 O         -21.6400  -19.0400   68.0300 O.2       2 ALA2        0.0000 
      8 O         -21.6200  -17.6000   67.6300 O.2       2 ALA2        0.0000 
      9 N         -20.5800  -21.6600   69.8400 N.am      2 ALA2        0.0000 
     10 O         -20.5500  -18.7800   69.0300 O.2       2 ALA2        0.0000 
     11 O         -20.5300  -17.3300   68.6200 O.2       2 ALA2        0.0000 
     12 O         -21.5700  -18.4700   70.0800 O.2       2 ALA2        0.0000 
     13 N         -18.4600  -21.7100   69.7800 N.am      2 ALA2        0.0000 
     14 N         -19.4900  -21.4000   70.8300 N.am      2 ALA2        0.0000 
     15 N         -19.4700  -19.9600   70.4200 N.am      2 ALA2        0.0000 
     16 O         -19.4500  -18.5100   70.0200 O.2       2 ALA2        0.0000 
     17 O         -19.4300  -17.0700   69.6100 O.2       2 ALA2        0.0000 
     18 N         -19.4100  -15.6200   69.2100 N.am      2 ALA2        0.0000 
     19 N         -20.4400  -15.3200   70.2600 N.am      2 ALA2        0.0000 
     20 N         -18.3400  -16.8000   70.6100 N.am      2 ALA2        0.0000 
     21 N         -18.3200  -15.3600   70.2000 N.am      2 ALA2        0.0000 
     22 N         -19.3500  -15.0500   71.2500 N.am      2 ALA2        0.0000 
     23 N         -20.3700  -14.7400   72.3000 N.am      2 ALA2        0.0000 
     24 O         -21.3800  -12.9900   72.9400 O.2       2 ALA2        0.0000 
     25 N         -17.2700  -17.9800   72.0000 N.am      2 ALA2        0.0000 
     26 N         -18.2700  -16.2300   72.6500 N.am      2 ALA2        0.0000 
     27 N         -19.2600  -13.0300   72.8900 N.am      2 ALA2        0.0000 
     28 N         -20.3100  -14.1700   74.3400 N.am      2 ALA2        0.0000 
     29 N         -20.2900  -12.7300   73.9300 N.am      2 ALA2        0.0000 
     30 N         -16.1700  -17.7200   72.9900 N.am      2 ALA2        0.0000 
     31 N         -19.2500  -16.7900   76.1400 N.am      2 ALA2        0.0000 
     32 OD1       -28.0000  -18.9100   68.2100 O.co2     3 ASP3        0.0000 
     33 OD1       -25.9000  -20.4000   68.5500 O.co2     3 ASP3        0.0000 
     34 OD1       -25.8800  -18.9500   68.1500 O.co2     3 ASP3        0.0000 
     35 OD1       -23.7600  -19.0000   68.0900 O.co2     3 ASP3        0.0000 
     36 OD1       -23.7400  -17.5500   67.6900 O.co2     3 ASP3        0.0000 
     37 OD1       -24.8400  -23.0200   70.3600 O.co2     3 ASP3        0.0000 
     38 OD1       -24.7900  -18.6900   69.1400 O.co2     3 ASP3        0.0000 
     39 OD1       -25.8500  -21.2700   71.0000 O.co2     3 ASP3        0.0000 
     40 OD1       -25.8300  -19.8200   70.6000 O.co2     3 ASP3        0.0000 
     41 OD1       -22.6700  -18.7300   69.0800 O.co2     3 ASP3        0.0000 
     42 OD1       -22.6500  -17.2900   68.6800 O.co2     3 ASP3        0.0000 
     43 OD1       -23.7500  -22.7600   71.3500 O.co2     3 ASP3        0.0000 
     44 OD1       -23.7300  -21.3100   70.9400 O.co2     3 ASP3        0.0000 
     45 OD1       -23.7100  -19.8700   70.5400 O.co2     3 ASP3        0.0000 
     46 OD1       -23.6900  -18.4200   70.1300 O.co2     3 ASP3        0.0000 
     47 OD1       -24.7400  -19.5600   71.5900 O.co2     3 ASP3        0.0000 
     48 OD1       -24.7200  -18.1200   71.1800 O.co2     3 ASP3        0.0000 
     49 OD1       -20.5100  -15.8900   68.2200 O.co2     3 ASP3        0.0000 
     50 OD1       -21.5900  -19.9100   70.4800 O.co2     3 ASP3        0.0000 
     51 NZ        -21.6000  -16.1500   67.2200 N.4       4 LYS4        0.0000 
     52 NZ        -23.6700  -16.9800   69.7300 N.4       4 LYS4        0.0000 
     53 NZ        -21.5500  -17.0200   69.6700 N.4       4 LYS4        0.0000 
     54 NZ        -22.6000  -18.1600   71.1300 N.4       4 LYS4        0.0000 
     55 NZ        -20.4600  -16.7600   70.6600 N.4       4 LYS4        0.0000 
     56 NZ        -21.4900  -16.4500   71.7100 N.4       4 LYS4        0.0000 
     57 CZ        -24.8600  -24.4600   70.7600 C.ar      5 PHE5        0.0000 
     58 CZ        -22.7200  -23.0600   70.3000 C.ar      5 PHE5        0.0000 
     59 CZ        -23.7700  -24.2000   71.7600 C.ar      5 PHE5        0.0000 
     60 CZ        -21.6300  -22.8000   71.2900 C.ar      5 PHE5        0.0000 
     61 CZ        -21.6100  -21.3600   70.8900 C.ar      5 PHE5        0.0000 
     62 CZ        -22.6800  -23.9400   72.7500 C.ar      5 PHE5        0.0000 
     63 CZ        -22.6600  -22.4900   72.3400 C.ar      5 PHE5        0.0000 
     64 CZ        -18.4800  -23.1500   70.1900 C.ar      5 PHE5        0.0000 
     65 CZ        -20.5400  -22.5400   72.2800 C.ar      5 PHE5        0.0000 
     66 CZ        -21.5800  -23.6700   73.7400 C.ar      5 PHE5        0.0000 
     67 CZ        -21.5600  -22.2300   73.3300 C.ar      5 PHE5        0.0000 
     68 CZ        -18.4200  -22.5800   72.2300 C.ar      5 PHE5        0.0000 
     69 CZ        -19.4400  -22.2700   73.2800 C.ar      5 PHE5        0.0000 
     70 CZ        -19.4200  -20.8300   72.8700 C.ar      5 PHE5        0.0000 
     71 CZ        -20.4700  -21.9600   74.3300 C.ar      5 PHE5        0.0000 
     72 CZ        -20.4500  -20.5200   73.9200 C.ar      5 PHE5        0.0000 
     73 CZ        -20.4300  -19.0800   73.5200 C.ar      5 PHE5        0.0000 
     74 CZ        -18.3300  -20.5600   73.8600 C.ar      5 PHE5        0.0000 
     75 CZ        -18.3100  -19.1200   73.4600 C.ar      5 PHE5        0.0000 
     76 CZ        -19.3400  -18.8100   74.5100 C.ar      5 PHE5        0.0000 
     77 CZ        -19.3200  -17.3700   74.1000 C.ar      5 PHE5        0.0000 
     78 CZ        -17.2400  -20.3000   74.8600 C.ar      5 PHE5        0.0000 
     79 CA        -23.6600  -20.7400   72.9900 C.3       6 GLY6        0.0000 
     80 CA        -23.6400  -19.3000   72.5800 C.3       6 GLY6        0.0000 
     81 CA        -22.5700  -20.4700   73.9800 C.3       6 GLY6        0.0000 
     82 CA        -22.5500  -19.0300   73.5700 C.3       6 GLY6        0.0000 
     83 CA        -22.5300  -17.5900   73.1700 C.3       6 GLY6        0.0000 
     84 CA        -16.3400  -21.7500   69.7200 C.3       6 GLY6        0.0000 
     85 CA        -17.3900  -22.8900   71.1800 C.3       6 GLY6        0.0000 
     86 CA        -17.3700  -21.4400   70.7700 C.3       6 GLY6        0.0000 
     87 CA        -17.3500  -20.0000   70.3700 C.3       6 GLY6        0.0000 
     88 CA        -17.3300  -18.5600   69.9600 C.3       6 GLY6        0.0000 
     89 CA        -21.4600  -18.7700   74.5600 C.3       6 GLY6        0.0000 
     90 CA        -21.4400  -17.3200   74.1600 C.3       6 GLY6        0.0000 
     91 CA        -21.4200  -15.8800   73.7500 C.3       6 GLY6        0.0000 
     92 CA        -21.4000  -14.4300   73.3500 C.3       6 GLY6        0.0000 
     93 CA        -16.2800  -21.1800   71.7600 C.3       6 GLY6        0.0000 
     94 CA        -16.2600  -19.7400   71.3600 C.3       6 GLY6        0.0000 
     95 CA        -18.2500  -14.7900   72.2400 C.3       6 GLY6        0.0000 
     96 CA        -19.3000  -15.9200   73.7000 C.3       6 GLY6        0.0000 
     97 CA        -19.2800  -14.4800   73.2900 C.3       6 GLY6        0.0000 
     98 CA        -20.3400  -17.0600   75.1500 C.3       6 GLY6        0.0000 
     99 CA        -20.3300  -15.6100   74.7500 C.3       6 GLY6        0.0000 
    100 CA        -20.2700  -11.2800   73.5300 C.3       6 GLY6        0.0000 
    101 CA        -15.1600  -19.4700   72.3500 C.3       6 GLY6        0.0000 
    102 CA        -17.1800  -15.9700   73.6400 C.3       6 GLY6        0.0000 
    103 CA        -18.2100  -15.6600   74.6900 C.3       6 GLY6        0.0000 
    104 CA        -18.1900  -14.2100   74.2800 C.3       6 GLY6        0.0000 
    105 CA        -15.0800  -17.4600   73.9900 C.3       6 GLY6        0.0000 
    106 CA        -16.0900  -15.7000   74.6300 C.3       6 GLY6        0.0000 
    107 CA        -17.1100  -15.3900   75.6800 C.3       6 GLY6        0.0000 
    108 DU        -25.8700  -22.7100   71.4100 H         7 CUB7        0.0000 
    109 DU        -24.7800  -22.4500   72.4000 H         7 CUB7        0.0000 
    110 DU        -24.7600  -21.0000   71.9900 H         7 CUB7        0.0000 
    111 DU        -22.6400  -21.0500   71.9400 H         7 CUB7        0.0000 
    112 DU        -22.6200  -19.6000   71.5300 H         7 CUB7        0.0000 
    113 DU        -23.6800  -22.1800   73.3900 H         7 CUB7        0.0000 
    114 DU        -20.5200  -21.0900   71.8800 H         7 CUB7        0.0000 
    115 DU        -20.5000  -19.6500   71.4700 H         7 CUB7        0.0000 
    116 DU        -20.4800  -18.2000   71.0700 H         7 CUB7        0.0000 
    117 DU        -21.5400  -20.7800   72.9300 H         7 CUB7        0.0000 
    118 DU        -21.5200  -19.3400   72.5200 H         7 CUB7        0.0000 
    119 DU        -21.5100  -17.9000   72.1200 H         7 CUB7        0.0000 
    120 DU        -22.5900  -21.9200   74.3800 H         7 CUB7        0.0000 
    121 DU        -18.4000  -21.1400   71.8200 H         7 CUB7        0.0000 
    122 DU        -18.3800  -19.6900   71.4200 H         7 CUB7        0.0000 
    123 DU        -18.3600  -18.2500   71.0100 H         7 CUB7        0.0000 
    124 DU        -19.4000  -19.3800   72.4700 H         7 CUB7        0.0000 
    125 DU        -19.3700  -16.5000   71.6500 H         7 CUB7        0.0000 
    126 DU        -20.4900  -23.4100   74.7300 H         7 CUB7        0.0000 
    127 DU        -20.4100  -17.6300   73.1100 H         7 CUB7        0.0000 
    128 DU        -20.3900  -16.1900   72.7000 H         7 CUB7        0.0000 
    129 DU        -17.3000  -20.8700   72.8100 H         7 CUB7        0.0000 
    130 DU        -17.2800  -19.4300   72.4100 H         7 CUB7        0.0000 
    131 DU        -18.2900  -17.6800   73.0500 H         7 CUB7        0.0000 
    132 DU        -16.1900  -19.1600   73.4000 H         7 CUB7        0.0000 
@<TRIPOS>BOND
@<TRIPOS>SUBSTRUCTURE
     1 SER1        1 GROUP   
     2 ALA2        7 GROUP   
     3 ASP3       32 GROUP   
     4 LYS4       51 GROUP   
     5 PHE5       57 GROUP   
     6 GLY6       79 GROUP   
     7 CUB7      108 GROUP   
@<TRIPOS>SET

