#    Name: 6g31_11_ZOL
#    Modification time : Fri May 22 19:33:15 2020

@<TRIPOS>MOLECULE
6g31_11_ZOL
   16    16     1     0     0
SMALL
NO_CHARGES


@<TRIPOS>ATOM
      1 O17        44.8700  -26.7730   80.6600 O.co2     1 ZOL401      0.0000 
      2 P14        45.8070  -25.6620   81.0840 P.3       1 ZOL401      0.0000 
      3 O16        47.0750  -26.2950   81.6150 O.co2     1 ZOL401      0.0000 
      4 O15        46.1490  -24.7360   79.9350 O.co2     1 ZOL401      0.0000 
      5 C8         45.0490  -24.6650   82.4550 C.3       1 ZOL401      0.0000 
      6 P9         46.5320  -23.8450   83.1970 P.3       1 ZOL401      0.0000 
      7 O10        47.3650  -24.8380   83.9880 O.co2     1 ZOL401      0.0000 
      8 O11        46.1030  -22.6800   84.0660 O.co2     1 ZOL401      0.0000 
      9 O12        47.3240  -23.3630   82.0050 O.co2     1 ZOL401      0.0000 
     10 O13        44.3910  -25.4930   83.3770 O.3       1 ZOL401      0.0000 
     11 C7         44.1200  -23.5930   81.8820 C.3       1 ZOL401      0.0000 
     12 N15        43.1050  -23.1400   82.8340 N.pl3     1 ZOL401      0.0000 
     13 C16        43.2100  -23.0300   84.1720 C.2       1 ZOL401      0.0000 
     14 N17        42.0410  -22.5620   84.6370 N.2       1 ZOL401      0.0000 
     15 C18        41.2260  -22.3770   83.6200 C.2       1 ZOL401      0.0000 
     16 C19        41.8950  -22.7380   82.4950 C.2       1 ZOL401      0.0000 
@<TRIPOS>BOND
     1    1    2 ar   
     2    2    3 ar   
     3    2    4 ar   
     4    2    5 1    
     5    5    6 1    
     6    5   10 1    
     7    5   11 1    
     8    6    7 ar   
     9    6    8 ar   
    10    6    9 ar   
    11   11   12 1    
    12   12   13 1    
    13   12   16 1    
    14   13   14 2    
    15   14   15 1    
    16   15   16 2    
@<TRIPOS>SUBSTRUCTURE
     1 ZOL401      1 GROUP   
@<TRIPOS>SET

