#    Name: 6g31_12_ZOL_CAVITY_N1_4
#    Modification time : Fri May 22 19:33:18 2020

@<TRIPOS>MOLECULE
6g31_12_ZOL_CAVITY_N1_4
   88     0     7     0     0
SMALL
NO_CHARGES


@<TRIPOS>ATOM
      1 OG         35.2600    5.1700   73.7000 O.3       1 SER1        0.0000 
      2 OG         37.3500    2.2400   74.4600 O.3       1 SER1        0.0000 
      3 OG         37.4000    6.5700   73.2400 O.3       1 SER1        0.0000 
      4 OG         36.3400    3.9900   75.1000 O.3       1 SER1        0.0000 
      5 OG         38.4400    2.5000   75.4500 O.3       1 SER1        0.0000 
      6 N          37.2100    1.1000   70.3700 N.am      2 ALA2        0.0000 
      7 N          36.1900    1.4000   71.4200 N.am      2 ALA2        0.0000 
      8 N          39.3500    2.5000   69.9100 N.am      2 ALA2        0.0000 
      9 N          38.3300    2.8000   70.9600 N.am      2 ALA2        0.0000 
     10 N          38.3400    4.2500   70.5500 N.am      2 ALA2        0.0000 
     11 N          37.2600    0.2200   72.8200 N.am      2 ALA2        0.0000 
     12 N          37.2800    1.6700   72.4100 N.am      2 ALA2        0.0000 
     13 N          37.3000    3.1100   72.0100 N.am      2 ALA2        0.0000 
     14 O          37.3200    4.5600   71.6000 O.2       2 ALA2        0.0000 
     15 N          36.2700    3.4200   73.0600 N.am      2 ALA2        0.0000 
     16 N          35.2500    3.7300   74.1100 N.am      2 ALA2        0.0000 
     17 N          40.4600    4.2000   70.5000 N.am      2 ALA2        0.0000 
     18 N          40.4800    5.6500   70.0900 N.am      2 ALA2        0.0000 
     19 O          40.5000    7.0900   69.6900 O.2       2 ALA2        0.0000 
     20 N          39.4000    1.6200   72.3600 N.am      2 ALA2        0.0000 
     21 N          39.4400    4.5100   71.5500 N.am      2 ALA2        0.0000 
     22 O          39.4600    5.9600   71.1400 O.2       2 ALA2        0.0000 
     23 O          39.4800    7.4000   70.7300 O.2       2 ALA2        0.0000 
     24 N          38.3500    0.4900   73.8100 N.am      2 ALA2        0.0000 
     25 N          38.3700    1.9300   73.4100 N.am      2 ALA2        0.0000 
     26 O          38.4300    6.2600   72.1900 O.2       2 ALA2        0.0000 
     27 O          38.4500    7.7100   71.7800 O.2       2 ALA2        0.0000 
     28 OD1        41.4900    3.9000   69.4500 O.co2     3 ASP3        0.0000 
     29 OD1        41.5100    5.3400   69.0400 O.co2     3 ASP3        0.0000 
     30 OD1        42.5800    4.1600   70.4400 O.co2     3 ASP3        0.0000 
     31 OD1        42.6000    5.6000   70.0300 O.co2     3 ASP3        0.0000 
     32 OD1        41.5800    5.9100   71.0800 O.co2     3 ASP3        0.0000 
     33 OD1        41.6000    7.3600   70.6800 O.co2     3 ASP3        0.0000 
     34 OD1        43.7000    5.8700   71.0300 O.co2     3 ASP3        0.0000 
     35 OD1        42.6700    6.1800   72.0800 O.co2     3 ASP3        0.0000 
     36 OD1        42.6900    7.6200   71.6700 O.co2     3 ASP3        0.0000 
     37 OD1        43.7500    5.0000   73.4700 O.co2     3 ASP3        0.0000 
     38 OD1        43.7600    6.4400   73.0700 O.co2     3 ASP3        0.0000 
     39 OD1        42.7200    5.3000   74.5200 O.co2     3 ASP3        0.0000 
     40 OD1        42.7400    6.7500   74.1200 O.co2     3 ASP3        0.0000 
     41 OD1        44.9400    8.7200   75.7000 O.co2     3 ASP3        0.0000 
     42 NZ         40.4300    1.3200   71.3100 N.4       4 LYS4        0.0000 
     43 NZ         40.4500    2.7600   70.9000 N.4       4 LYS4        0.0000 
     44 NZ         41.5400    3.0200   71.8900 N.4       4 LYS4        0.0000 
     45 NZ         41.5600    4.4700   71.4900 N.4       4 LYS4        0.0000 
     46 NZ         40.5100    3.3300   72.9400 N.4       4 LYS4        0.0000 
     47 NZ         42.6500    4.7300   72.4800 N.4       4 LYS4        0.0000 
     48 NZ         41.6100    3.6000   73.9400 N.4       4 LYS4        0.0000 
     49 NZ         41.6200    5.0400   73.5300 N.4       4 LYS4        0.0000 
     50 CZ         37.3800    5.1300   73.6400 C.ar      5 PHE5        0.0000 
     51 CZ         36.3600    5.4400   74.6900 C.ar      5 PHE5        0.0000 
     52 CZ         40.5700    7.6600   71.7300 C.ar      5 PHE5        0.0000 
     53 CZ         39.5400    7.9700   72.7800 C.ar      5 PHE5        0.0000 
     54 CZ         38.4600    3.9500   75.0400 C.ar      5 PHE5        0.0000 
     55 CZ         38.4800    5.3900   74.6400 C.ar      5 PHE5        0.0000 
     56 CZ         38.5000    6.8400   74.2300 C.ar      5 PHE5        0.0000 
     57 CZ         41.6800    9.3700   72.3100 C.ar      5 PHE5        0.0000 
     58 CZ         40.6400    8.2400   73.7700 C.ar      5 PHE5        0.0000 
     59 CZ         39.5900    7.1000   75.2200 C.ar      5 PHE5        0.0000 
     60 CA         37.2300    2.5400   69.9700 C.3       6 GLY6        0.0000 
     61 CA         36.2000    2.8500   71.0200 C.3       6 GLY6        0.0000 
     62 CA         36.2500    1.9800   73.4600 C.3       6 GLY6        0.0000 
     63 CA         36.2900    4.8600   72.6500 C.3       6 GLY6        0.0000 
     64 CA         37.3300    0.8000   74.8600 C.3       6 GLY6        0.0000 
     65 CA         40.4700    0.4400   73.7500 C.3       6 GLY6        0.0000 
     66 CA         40.4900    1.8900   73.3500 C.3       6 GLY6        0.0000 
     67 CA         39.4500    0.7500   74.8000 C.3       6 GLY6        0.0000 
     68 CA         39.4700    2.2000   74.4000 C.3       6 GLY6        0.0000 
     69 CA         40.5600    2.4600   75.3900 C.3       6 GLY6        0.0000 
     70 CA         40.5800    3.9000   74.9800 C.3       6 GLY6        0.0000 
     71 CA         40.6000    5.3500   74.5800 C.3       6 GLY6        0.0000 
     72 CA         41.7100    7.0600   75.1700 C.3       6 GLY6        0.0000 
     73 CA         42.8000    7.3200   76.1600 C.3       6 GLY6        0.0000 
     74 DU         39.4200    3.0700   71.9500 H         7 CUB7        0.0000 
     75 DU         38.3900    3.3800   73.0000 H         7 CUB7        0.0000 
     76 DU         38.4100    4.8200   72.6000 H         7 CUB7        0.0000 
     77 DU         37.3700    3.6800   74.0500 H         7 CUB7        0.0000 
     78 DU         40.5300    4.7800   72.5400 H         7 CUB7        0.0000 
     79 DU         40.5500    6.2200   72.1300 H         7 CUB7        0.0000 
     80 DU         39.4900    3.6400   73.9900 H         7 CUB7        0.0000 
     81 DU         39.5000    5.0800   73.5900 H         7 CUB7        0.0000 
     82 DU         39.5200    6.5300   73.1800 H         7 CUB7        0.0000 
     83 DU         41.6400    6.4800   73.1200 H         7 CUB7        0.0000 
     84 DU         41.6600    7.9300   72.7200 H         7 CUB7        0.0000 
     85 DU         40.6200    6.7900   74.1700 H         7 CUB7        0.0000 
     86 DU         42.7600    8.1900   73.7100 H         7 CUB7        0.0000 
     87 DU         41.7300    8.5000   74.7600 H         7 CUB7        0.0000 
     88 DU         42.8200    8.7700   75.7500 H         7 CUB7        0.0000 
@<TRIPOS>BOND
@<TRIPOS>SUBSTRUCTURE
     1 SER1        1 GROUP   
     2 ALA2        6 GROUP   
     3 ASP3       28 GROUP   
     4 LYS4       42 GROUP   
     5 PHE5       50 GROUP   
     6 GLY6       60 GROUP   
     7 CUB7       74 GROUP   
@<TRIPOS>SET

