#    Name: 6g31_4_ZOL_CAVITY_N1_4
#    Modification time : Fri May 22 19:32:53 2020

@<TRIPOS>MOLECULE
6g31_4_ZOL_CAVITY_N1_4
  105     0     7     0     0
SMALL
NO_CHARGES


@<TRIPOS>ATOM
      1 OG         60.2000  -21.5500   35.1900 O.3       1 SER1        0.0000 
      2 OG         62.3400  -20.1500   34.7200 O.3       1 SER1        0.0000 
      3 OG         61.3100  -19.8400   35.7700 O.3       1 SER1        0.0000 
      4 OG         60.2500  -22.4200   37.6300 O.3       1 SER1        0.0000 
      5 OG         60.2700  -20.9800   37.2300 O.3       1 SER1        0.0000 
      6 OG         63.4500  -18.4400   35.3100 O.3       1 SER1        0.0000 
      7 OG         62.4200  -18.1400   36.3600 O.3       1 SER1        0.0000 
      8 OG         63.5200  -17.8700   37.3500 O.3       1 SER1        0.0000 
      9 OG         63.7100  -21.3600   47.1400 O.3       1 SER1        0.0000 
     10 N          60.2200  -20.1100   34.7800 N.am      2 ALA2        0.0000 
     11 N          61.3300  -18.4000   35.3700 N.am      2 ALA2        0.0000 
     12 N          60.2800  -19.5400   36.8200 N.am      2 ALA2        0.0000 
     13 N          60.3000  -18.0900   36.4200 N.am      2 ALA2        0.0000 
     14 N          59.2000  -23.5600   39.0900 N.am      2 ALA2        0.0000 
     15 O          59.2200  -22.1200   38.6800 O.2       2 ALA2        0.0000 
     16 O          59.2400  -20.6700   38.2800 O.2       2 ALA2        0.0000 
     17 O          57.1900  -20.0500   40.3800 O.2       2 ALA2        0.0000 
     18 N          56.1600  -19.7500   41.4300 N.am      2 ALA2        0.0000 
     19 N          60.2900  -23.3000   40.0800 N.am      2 ALA2        0.0000 
     20 N          60.3700  -17.5200   38.4600 N.am      2 ALA2        0.0000 
     21 N          59.2900  -21.5400   40.7300 N.am      2 ALA2        0.0000 
     22 O          59.3100  -20.1000   40.3200 O.2       2 ALA2        0.0000 
     23 N          58.2600  -21.2300   41.7800 N.am      2 ALA2        0.0000 
     24 N          58.2800  -19.7900   41.3700 N.am      2 ALA2        0.0000 
     25 N          61.4800  -24.7700   45.9700 N.am      2 ALA2        0.0000 
     26 OD1        58.3000  -18.3500   40.9600 O.co2     3 ASP3        0.0000 
     27 OD1        57.2300  -20.9300   42.8200 O.co2     3 ASP3        0.0000 
     28 OD1        57.2500  -19.4800   42.4200 O.co2     3 ASP3        0.0000 
     29 OD1        56.2100  -20.6200   43.8700 O.co2     3 ASP3        0.0000 
     30 OD1        60.3600  -22.7200   42.1200 O.co2     3 ASP3        0.0000 
     31 OD1        60.3800  -21.2800   41.7200 O.co2     3 ASP3        0.0000 
     32 OD1        59.3500  -20.9700   42.7700 O.co2     3 ASP3        0.0000 
     33 OD1        59.3700  -19.5300   42.3600 O.co2     3 ASP3        0.0000 
     34 OD1        58.3500  -19.2200   43.4100 O.co2     3 ASP3        0.0000 
     35 OD1        57.3000  -20.3500   44.8700 O.co2     3 ASP3        0.0000 
     36 OD1        57.3200  -18.9100   44.4600 O.co2     3 ASP3        0.0000 
     37 OD1        62.5000  -21.3200   41.6600 O.co2     3 ASP3        0.0000 
     38 OD1        61.4600  -22.4600   43.1200 O.co2     3 ASP3        0.0000 
     39 OD1        61.4700  -21.0100   42.7100 O.co2     3 ASP3        0.0000 
     40 OD1        60.3900  -25.0400   44.9800 O.co2     3 ASP3        0.0000 
     41 OD1        59.4200  -20.4000   44.8100 O.co2     3 ASP3        0.0000 
     42 OD1        63.5600  -23.9500   43.4600 O.co2     3 ASP3        0.0000 
     43 OD1        62.5300  -23.6400   44.5100 O.co2     3 ASP3        0.0000 
     44 OD1        62.5500  -22.1900   44.1100 O.co2     3 ASP3        0.0000 
     45 OD1        61.5000  -23.3300   45.5600 O.co2     3 ASP3        0.0000 
     46 OD1        61.5200  -21.8900   45.1600 O.co2     3 ASP3        0.0000 
     47 OD1        60.4800  -23.0200   46.6100 O.co2     3 ASP3        0.0000 
     48 OD1        60.5000  -21.5800   46.2100 O.co2     3 ASP3        0.0000 
     49 OD1        63.6200  -23.3700   45.5100 O.co2     3 ASP3        0.0000 
     50 OD1        63.6400  -21.9300   45.1000 O.co2     3 ASP3        0.0000 
     51 OD1        62.6200  -21.6200   46.1500 O.co2     3 ASP3        0.0000 
     52 OD1        61.5900  -21.3100   47.2000 O.co2     3 ASP3        0.0000 
     53 OD1        61.6100  -19.8700   46.7900 O.co2     3 ASP3        0.0000 
     54 NZ         56.1800  -18.3000   41.0200 N.4       4 LYS4        0.0000 
     55 NZ         55.1100  -20.8800   42.8800 N.4       4 LYS4        0.0000 
     56 NZ         55.1300  -19.4400   42.4800 N.4       4 LYS4        0.0000 
     57 NZ         57.2700  -18.0400   42.0100 N.4       4 LYS4        0.0000 
     58 NZ         56.2300  -19.1700   43.4700 N.4       4 LYS4        0.0000 
     59 NZ         55.1800  -20.3100   44.9200 N.4       4 LYS4        0.0000 
     60 NZ         55.2000  -18.8700   44.5200 N.4       4 LYS4        0.0000 
     61 NZ         61.4300  -20.1400   40.2600 N.4       4 LYS4        0.0000 
     62 NZ         61.4500  -18.7000   39.8600 N.4       4 LYS4        0.0000 
     63 NZ         61.4600  -17.2500   39.4500 N.4       4 LYS4        0.0000 
     64 NZ         60.4000  -19.8300   41.3100 N.4       4 LYS4        0.0000 
     65 NZ         60.4200  -18.3900   40.9100 N.4       4 LYS4        0.0000 
     66 NZ         56.2800  -20.0500   45.9200 N.4       4 LYS4        0.0000 
     67 NZ         58.4000  -20.0900   45.8600 N.4       4 LYS4        0.0000 
     68 NZ         58.4100  -18.6500   45.4500 N.4       4 LYS4        0.0000 
     69 NZ         59.4900  -19.8300   46.8500 N.4       4 LYS4        0.0000 
     70 CZ         62.3200  -21.6000   35.1300 C.ar      5 PHE5        0.0000 
     71 CZ         61.2700  -22.7300   36.5900 C.ar      5 PHE5        0.0000 
     72 CZ         61.2900  -21.2900   36.1800 C.ar      5 PHE5        0.0000 
     73 CZ         62.3700  -22.4700   37.5800 C.ar      5 PHE5        0.0000 
     74 CZ         62.3900  -21.0200   37.1700 C.ar      5 PHE5        0.0000 
     75 CZ         62.4000  -19.5800   36.7700 C.ar      5 PHE5        0.0000 
     76 CZ         63.4400  -23.6500   38.9700 C.ar      5 PHE5        0.0000 
     77 CA         61.2400  -20.4200   33.7300 C.3       6 GLY6        0.0000 
     78 CA         59.1900  -19.8000   35.8300 C.3       6 GLY6        0.0000 
     79 CA         60.3200  -16.6500   36.0100 C.3       6 GLY6        0.0000 
     80 CA         59.1800  -25.0000   39.5000 C.3       6 GLY6        0.0000 
     81 CA         59.2600  -19.2300   37.8700 C.3       6 GLY6        0.0000 
     82 CA         59.2800  -17.7800   37.4700 C.3       6 GLY6        0.0000 
     83 CA         57.2100  -18.6100   39.9700 C.3       6 GLY6        0.0000 
     84 CA         62.4400  -16.6900   35.9600 C.3       6 GLY6        0.0000 
     85 CA         61.4200  -16.3800   37.0000 C.3       6 GLY6        0.0000 
     86 CA         59.3300  -18.6500   39.9100 C.3       6 GLY6        0.0000 
     87 CA         63.4600  -22.2000   38.5700 C.3       6 GLY6        0.0000 
     88 CA         63.5000  -19.3200   37.7600 C.3       6 GLY6        0.0000 
     89 CA         62.4300  -21.9000   39.6200 C.3       6 GLY6        0.0000 
     90 CA         62.4500  -20.4500   39.2100 C.3       6 GLY6        0.0000 
     91 CA         62.4700  -19.0100   38.8100 C.3       6 GLY6        0.0000 
     92 CA         62.4900  -17.5600   38.4000 C.3       6 GLY6        0.0000 
     93 CA         62.5100  -16.1200   38.0000 C.3       6 GLY6        0.0000 
     94 CA         56.2900  -18.6000   45.5100 C.3       6 GLY6        0.0000 
     95 DU         60.2300  -23.8700   38.0400 H         7 CUB7        0.0000 
     96 DU         61.3400  -22.1600   38.6300 H         7 CUB7        0.0000 
     97 DU         61.3600  -20.7200   38.2200 H         7 CUB7        0.0000 
     98 DU         61.3800  -19.2700   37.8200 H         7 CUB7        0.0000 
     99 DU         61.4000  -17.8300   37.4100 H         7 CUB7        0.0000 
    100 DU         60.3100  -21.8500   39.6800 H         7 CUB7        0.0000 
    101 DU         60.3300  -20.4100   39.2700 H         7 CUB7        0.0000 
    102 DU         60.3500  -18.9600   38.8700 H         7 CUB7        0.0000 
    103 DU         61.3900  -23.0300   41.0700 H         7 CUB7        0.0000 
    104 DU         61.4100  -21.5900   40.6700 H         7 CUB7        0.0000 
    105 DU         62.6000  -23.0700   46.5500 H         7 CUB7        0.0000 
@<TRIPOS>BOND
@<TRIPOS>SUBSTRUCTURE
     1 SER1        1 GROUP   
     2 ALA2       10 GROUP   
     3 ASP3       26 GROUP   
     4 LYS4       54 GROUP   
     5 PHE5       70 GROUP   
     6 GLY6       77 GROUP   
     7 CUB7       95 GROUP   
@<TRIPOS>SET

