#    Name: 6g31_6_ZOL
#    Modification time : Fri May 22 19:32:59 2020

@<TRIPOS>MOLECULE
6g31_6_ZOL
   16    16     1     0     0
SMALL
NO_CHARGES


@<TRIPOS>ATOM
      1 O17       -13.5840  -15.8200    6.1100 O.co2     1 ZOL401      0.0000 
      2 P14       -14.5200  -16.9830    6.4110 P.3       1 ZOL401      0.0000 
      3 O16       -14.0660  -17.7530    7.6410 O.co2     1 ZOL401      0.0000 
      4 O15       -14.6220  -17.9530    5.2490 O.co2     1 ZOL401      0.0000 
      5 C8        -16.2010  -16.2840    6.7440 C.3       1 ZOL401      0.0000 
      6 P9        -15.9020  -15.1360    8.1570 P.3       1 ZOL401      0.0000 
      7 O10       -15.0580  -15.8630    9.1810 O.co2     1 ZOL401      0.0000 
      8 O11       -17.2040  -14.6390    8.7490 O.co2     1 ZOL401      0.0000 
      9 O12       -15.1170  -13.9980    7.5650 O.co2     1 ZOL401      0.0000 
     10 O13       -17.0630  -17.3470    7.0660 O.3       1 ZOL401      0.0000 
     11 C7        -16.6410  -15.4460    5.5370 C.3       1 ZOL401      0.0000 
     12 N15       -18.0360  -14.9680    5.5640 N.pl3     1 ZOL401      0.0000 
     13 C16       -19.1600  -15.7260    5.5550 C.2       1 ZOL401      0.0000 
     14 N17       -20.2180  -14.8990    5.5590 N.2       1 ZOL401      0.0000 
     15 C18       -19.7730  -13.6580    5.5580 C.2       1 ZOL401      0.0000 
     16 C19       -18.4130  -13.6950    5.5540 C.2       1 ZOL401      0.0000 
@<TRIPOS>BOND
     1    1    2 ar   
     2    2    3 ar   
     3    2    4 ar   
     4    2    5 1    
     5    5    6 1    
     6    5   10 1    
     7    5   11 1    
     8    6    7 ar   
     9    6    8 ar   
    10    6    9 ar   
    11   11   12 1    
    12   12   13 1    
    13   12   16 1    
    14   13   14 2    
    15   14   15 1    
    16   15   16 2    
@<TRIPOS>SUBSTRUCTURE
     1 ZOL401      1 GROUP   
@<TRIPOS>SET

