#    Name: 6g31_1_ZOL_CAVITY_N1_4
#    Modification time : Fri May 22 19:32:43 2020

@<TRIPOS>MOLECULE
6g31_1_ZOL_CAVITY_N1_4
   76     0     7     0     0
SMALL
NO_CHARGES


@<TRIPOS>ATOM
      1 OG          3.6000    5.6000   40.4600 O.3       1 SER1        0.0000 
      2 OG          3.6200    7.0500   40.0500 O.3       1 SER1        0.0000 
      3 OG          3.6800    7.6200   42.0900 O.3       1 SER1        0.0000 
      4 OG          3.7000    9.0700   41.6900 O.3       1 SER1        0.0000 
      5 N           0.3700    9.1400   36.2600 N.am      2 ALA2        0.0000 
      6 O           1.4300    6.5200   38.0700 O.2       2 ALA2        0.0000 
      7 N           1.4700    9.4100   37.2600 N.am      2 ALA2        0.0000 
      8 N           1.4900   10.8500   36.8500 N.am      2 ALA2        0.0000 
      9 N           0.4600   11.1600   37.9000 N.am      2 ALA2        0.0000 
     10 O           3.5100    3.5900   38.8200 O.2       2 ALA2        0.0000 
     11 O           3.5300    5.0300   38.4200 O.2       2 ALA2        0.0000 
     12 O           2.5200    6.7800   39.0600 O.2       2 ALA2        0.0000 
     13 O           1.5000    7.0900   40.1100 O.2       2 ALA2        0.0000 
     14 N           1.5500   11.4300   38.8900 N.am      2 ALA2        0.0000 
     15 N           4.6400    6.7400   39.0000 N.am      2 ALA2        0.0000 
     16 N           2.5900    7.3600   41.1000 N.am      2 ALA2        0.0000 
     17 N           1.5600    7.6700   42.1500 N.am      2 ALA2        0.0000 
     18 N           2.6600    7.9300   43.1400 N.am      2 ALA2        0.0000 
     19 OD1         1.4000    8.8400   35.2200 O.co2     3 ASP3        0.0000 
     20 OD1         1.4200   10.2800   34.8100 O.co2     3 ASP3        0.0000 
     21 OD1         0.3500    7.7000   36.6700 O.co2     3 ASP3        0.0000 
     22 OD1         0.3900   10.5900   35.8600 O.co2     3 ASP3        0.0000 
     23 OD1         3.5400   10.2400   34.7500 O.co2     3 ASP3        0.0000 
     24 OD1         3.5600   11.6800   34.3500 O.co2     3 ASP3        0.0000 
     25 OD1         2.4900    9.1000   36.2100 O.co2     3 ASP3        0.0000 
     26 OD1         2.5100   10.5400   35.8000 O.co2     3 ASP3        0.0000 
     27 OD1         2.5300   11.9900   35.4000 O.co2     3 ASP3        0.0000 
     28 OD1         1.4500    7.9600   37.6600 O.co2     3 ASP3        0.0000 
     29 OD1         1.5000   12.3000   36.4500 O.co2     3 ASP3        0.0000 
     30 OD1         0.4200    8.2700   38.7100 O.co2     3 ASP3        0.0000 
     31 OD1         0.4400    9.7200   38.3100 O.co2     3 ASP3        0.0000 
     32 OD1         4.6100    9.0600   36.1500 O.co2     3 ASP3        0.0000 
     33 OD1         3.6100   10.8100   36.7900 O.co2     3 ASP3        0.0000 
     34 OD1         3.6300   12.2500   36.3900 O.co2     3 ASP3        0.0000 
     35 OD1         1.5100    8.5400   39.7000 O.co2     3 ASP3        0.0000 
     36 OD1         1.5300    9.9800   39.3000 O.co2     3 ASP3        0.0000 
     37 OD1         6.7900   13.3400   34.8800 O.co2     3 ASP3        0.0000 
     38 OD1         5.7600   13.6500   35.9300 O.co2     3 ASP3        0.0000 
     39 OD1         4.7200   12.5200   37.3800 O.co2     3 ASP3        0.0000 
     40 OD1         6.8400   12.4700   37.3200 O.co2     3 ASP3        0.0000 
     41 NZ          2.4700    7.6600   36.6100 N.4       4 LYS4        0.0000 
     42 NZ          4.5900    7.6100   36.5600 N.4       4 LYS4        0.0000 
     43 NZ          3.5700    7.9200   37.6000 N.4       4 LYS4        0.0000 
     44 CZ          2.6000   12.5600   37.4400 C.ar      5 PHE5        0.0000 
     45 CZ          3.6900   12.8300   38.4300 C.ar      5 PHE5        0.0000 
     46 CZ          3.7100   14.2700   38.0200 C.ar      5 PHE5        0.0000 
     47 CZ          2.6500   11.6900   39.8800 C.ar      5 PHE5        0.0000 
     48 CZ          2.6700   13.1300   39.4800 C.ar      5 PHE5        0.0000 
     49 CZ          4.7300    8.7600   40.6400 C.ar      5 PHE5        0.0000 
     50 CZ          4.7500   10.2000   40.2300 C.ar      5 PHE5        0.0000 
     51 CZ          3.7200   10.5100   41.2800 C.ar      5 PHE5        0.0000 
     52 CZ          2.6900   10.8200   42.3300 C.ar      5 PHE5        0.0000 
     53 CA          0.4000    6.8300   39.1200 C.3       6 GLY6        0.0000 
     54 CA          3.5500    6.4800   38.0100 C.3       6 GLY6        0.0000 
     55 CA          3.5900    9.3600   37.2000 C.3       6 GLY6        0.0000 
     56 CA          0.4900    8.8500   40.7500 C.3       6 GLY6        0.0000 
     57 CA          0.5100   10.2900   40.3500 C.3       6 GLY6        0.0000 
     58 CA          0.5300   11.7300   39.9400 C.3       6 GLY6        0.0000 
     59 CA          4.6600    8.1800   38.6000 C.3       6 GLY6        0.0000 
     60 CA          4.7000   11.0700   37.7900 C.3       6 GLY6        0.0000 
     61 CA          3.6400    8.4900   39.6500 C.3       6 GLY6        0.0000 
     62 CA          3.6500    9.9400   39.2400 C.3       6 GLY6        0.0000 
     63 CA          3.6700   11.3800   38.8400 C.3       6 GLY6        0.0000 
     64 CA          2.5700    5.9100   41.5100 C.3       6 GLY6        0.0000 
     65 CA          1.5800    9.1100   41.7500 C.3       6 GLY6        0.0000 
     66 CA          1.6000   10.5500   41.3400 C.3       6 GLY6        0.0000 
     67 CA          1.6200   12.0000   40.9300 C.3       6 GLY6        0.0000 
     68 CA          3.6600    6.1800   42.5000 C.3       6 GLY6        0.0000 
     69 DU          3.6400   13.7000   35.9800 H         7 CUB7        0.0000 
     70 DU          2.5400    8.2300   38.6500 H         7 CUB7        0.0000 
     71 DU          2.5600    9.6700   38.2500 H         7 CUB7        0.0000 
     72 DU          2.5800   11.1200   37.8400 H         7 CUB7        0.0000 
     73 DU          4.7400   13.9600   36.9800 H         7 CUB7        0.0000 
     74 DU          2.6100    8.8000   40.7000 H         7 CUB7        0.0000 
     75 DU          2.6300   10.2500   40.2900 H         7 CUB7        0.0000 
     76 DU          2.6800    9.3700   42.7400 H         7 CUB7        0.0000 
@<TRIPOS>BOND
@<TRIPOS>SUBSTRUCTURE
     1 SER1        1 GROUP   
     2 ALA2        5 GROUP   
     3 ASP3       19 GROUP   
     4 LYS4       41 GROUP   
     5 PHE5       44 GROUP   
     6 GLY6       53 GROUP   
     7 CUB7       69 GROUP   
@<TRIPOS>SET

