#    Name: 6g31_10_ZOL_CAVITY_N1_4
#    Modification time : Fri May 22 19:33:12 2020

@<TRIPOS>MOLECULE
6g31_10_ZOL_CAVITY_N1_4
   98     0     7     0     0
SMALL
NO_CHARGES


@<TRIPOS>ATOM
      1 OG         38.7000    5.8100    3.9800 O.3       1 SER1        0.0000 
      2 OG         37.6900    7.5600    4.6200 O.3       1 SER1        0.0000 
      3 OG         39.8100    7.5100    4.5700 O.3       1 SER1        0.0000 
      4 OG         39.8300    8.9600    4.1600 O.3       1 SER1        0.0000 
      5 O          38.7600    6.3800    6.0200 O.2       2 ALA2        0.0000 
      6 O          37.7400    6.6900    7.0700 O.2       2 ALA2        0.0000 
      7 N          40.9200    9.2200    5.1500 N.am      2 ALA2        0.0000 
      8 O          39.8600    6.6400    7.0100 O.2       2 ALA2        0.0000 
      9 N          39.8800    8.0900    6.6100 N.am      2 ALA2        0.0000 
     10 O          38.8300    6.9500    8.0600 O.2       2 ALA2        0.0000 
     11 O          37.7900    5.8100    9.5200 O.2       2 ALA2        0.0000 
     12 O          37.8100    7.2600    9.1100 O.2       2 ALA2        0.0000 
     13 O          37.8200    8.7000    8.7100 O.2       2 ALA2        0.0000 
     14 O          37.8400   10.1500    8.3000 O.2       2 ALA2        0.0000 
     15 N          37.8600   11.5900    7.9000 N.am      2 ALA2        0.0000 
     16 N          37.8800   13.0400    7.4900 N.am      2 ALA2        0.0000 
     17 O          36.8000    9.0100    9.7600 O.2       2 ALA2        0.0000 
     18 O          36.8200   10.4600    9.3500 O.2       2 ALA2        0.0000 
     19 N          36.8400   11.9000    8.9400 N.am      2 ALA2        0.0000 
     20 N          36.8500   13.3400    8.5400 N.am      2 ALA2        0.0000 
     21 O          35.7700    9.3200   10.8000 O.2       2 ALA2        0.0000 
     22 O          38.8800    6.0800   10.5100 O.2       2 ALA2        0.0000 
     23 O          38.9000    7.5200   10.1000 O.2       2 ALA2        0.0000 
     24 N          38.9700   13.3000    8.4800 N.am      2 ALA2        0.0000 
     25 O          37.8700    7.8300   11.1500 O.2       2 ALA2        0.0000 
     26 O          36.8500    8.1400   12.2000 O.2       2 ALA2        0.0000 
     27 O          37.9400    8.4000   13.1900 O.2       2 ALA2        0.0000 
     28 OD1        34.6300    9.9300    7.3700 O.co2     3 ASP3        0.0000 
     29 OD1        34.6500   11.3700    6.9600 O.co2     3 ASP3        0.0000 
     30 OD1        33.6000   10.2400    8.4200 O.co2     3 ASP3        0.0000 
     31 OD1        35.7000    8.7500    8.7600 O.co2     3 ASP3        0.0000 
     32 OD1        35.7200   10.1900    8.3600 O.co2     3 ASP3        0.0000 
     33 OD1        35.7400   11.6400    7.9500 O.co2     3 ASP3        0.0000 
     34 OD1        35.7600   13.0800    7.5500 O.co2     3 ASP3        0.0000 
     35 OD1        34.6800    9.0600    9.8100 O.co2     3 ASP3        0.0000 
     36 OD1        33.6300    7.9200   11.2700 O.co2     3 ASP3        0.0000 
     37 OD1        33.6500    9.3600   10.8600 O.co2     3 ASP3        0.0000 
     38 OD1        36.7600    6.1200   10.5700 O.co2     3 ASP3        0.0000 
     39 OD1        36.7800    7.5700   10.1600 O.co2     3 ASP3        0.0000 
     40 OD1        35.7500    7.8800   11.2100 O.co2     3 ASP3        0.0000 
     41 OD1        35.7900   10.7600   10.4000 O.co2     3 ASP3        0.0000 
     42 OD1        34.7400    9.6300   11.8500 O.co2     3 ASP3        0.0000 
     43 NZ         33.5400    9.6600    6.3700 N.4       4 LYS4        0.0000 
     44 NZ         36.6600    7.8700    5.6700 N.4       4 LYS4        0.0000 
     45 NZ         35.6400    8.1700    6.7200 N.4       4 LYS4        0.0000 
     46 NZ         35.6600    9.6200    6.3200 N.4       4 LYS4        0.0000 
     47 NZ         34.6100    8.4800    7.7700 N.4       4 LYS4        0.0000 
     48 NZ         37.7600    8.1300    6.6600 N.4       4 LYS4        0.0000 
     49 NZ         36.7100    6.9900    8.1200 N.4       4 LYS4        0.0000 
     50 NZ         36.7300    8.4400    7.7100 N.4       4 LYS4        0.0000 
     51 NZ         34.7300    8.1800   12.2600 N.4       4 LYS4        0.0000 
     52 NZ         33.7200    9.9400   12.9000 N.4       4 LYS4        0.0000 
     53 NZ         37.8500    6.3900   11.5600 N.4       4 LYS4        0.0000 
     54 NZ         35.8200    8.4500   13.2500 N.4       4 LYS4        0.0000 
     55 NZ         35.8400    9.8900   12.8500 N.4       4 LYS4        0.0000 
     56 CZ         39.8500   10.4000    3.7500 C.ar      5 PHE5        0.0000 
     57 CZ         38.8200   10.7100    4.8000 C.ar      5 PHE5        0.0000 
     58 CZ         38.8400   12.1500    4.4000 C.ar      5 PHE5        0.0000 
     59 CZ         40.9400   10.6700    4.7500 C.ar      5 PHE5        0.0000 
     60 CA         35.6300   11.9300    3.4600 C.3       6 GLY6        0.0000 
     61 CA         34.5800   10.8000    4.9200 C.3       6 GLY6        0.0000 
     62 CA         37.6700    6.1100    5.0300 C.3       6 GLY6        0.0000 
     63 CA         37.7100    9.0000    4.2200 C.3       6 GLY6        0.0000 
     64 CA         37.7300   10.4500    3.8100 C.3       6 GLY6        0.0000 
     65 CA         36.6800    9.3100    5.2700 C.3       6 GLY6        0.0000 
     66 CA         36.7000   10.7500    4.8600 C.3       6 GLY6        0.0000 
     67 CA         36.7200   12.2000    4.4600 C.3       6 GLY6        0.0000 
     68 CA         35.6800   11.0600    5.9100 C.3       6 GLY6        0.0000 
     69 CA         39.7900    6.0700    4.9700 C.3       6 GLY6        0.0000 
     70 CA         40.9000    7.7800    5.5600 C.3       6 GLY6        0.0000 
     71 CA         38.8700    9.8400    7.2500 C.3       6 GLY6        0.0000 
     72 CA         36.8700   14.7900    8.1300 C.3       6 GLY6        0.0000 
     73 CA         33.7000    8.4900   13.3100 C.3       6 GLY6        0.0000 
     74 CA         42.0200    9.4900    6.1400 C.3       6 GLY6        0.0000 
     75 CA         42.0400   10.9300    5.7400 C.3       6 GLY6        0.0000 
     76 CA         40.9700    8.3500    7.6000 C.3       6 GLY6        0.0000 
     77 CA         40.9900    9.7900    7.1900 C.3       6 GLY6        0.0000 
     78 CA         41.0100   11.2400    6.7900 C.3       6 GLY6        0.0000 
     79 CA         39.9300    7.2100    9.0500 C.3       6 GLY6        0.0000 
     80 CA         39.9800   11.5500    7.8400 C.3       6 GLY6        0.0000 
     81 CA         40.0000   12.9900    7.4300 C.3       6 GLY6        0.0000 
     82 DU         35.6900   12.5100    5.5100 H         7 CUB7        0.0000 
     83 DU         38.7800    7.8200    5.6200 H         7 CUB7        0.0000 
     84 DU         38.8000    9.2700    5.2100 H         7 CUB7        0.0000 
     85 DU         37.7800    9.5700    6.2600 H         7 CUB7        0.0000 
     86 DU         37.8000   11.0200    5.8500 H         7 CUB7        0.0000 
     87 DU         37.8100   12.4600    5.4500 H         7 CUB7        0.0000 
     88 DU         36.7500    9.8800    7.3100 H         7 CUB7        0.0000 
     89 DU         36.7700   11.3300    6.9000 H         7 CUB7        0.0000 
     90 DU         36.7900   12.7700    6.5000 H         7 CUB7        0.0000 
     91 DU         36.8100   14.2200    6.0900 H         7 CUB7        0.0000 
     92 DU         39.9000    9.5300    6.2000 H         7 CUB7        0.0000 
     93 DU         39.9200   10.9700    5.8000 H         7 CUB7        0.0000 
     94 DU         39.9300   12.4200    5.3900 H         7 CUB7        0.0000 
     95 DU         38.8500    8.3900    7.6600 H         7 CUB7        0.0000 
     96 DU         38.8900   11.2800    6.8500 H         7 CUB7        0.0000 
     97 DU         38.9100   12.7300    6.4400 H         7 CUB7        0.0000 
     98 DU         37.9000   14.4800    7.0800 H         7 CUB7        0.0000 
@<TRIPOS>BOND
@<TRIPOS>SUBSTRUCTURE
     1 SER1        1 GROUP   
     2 ALA2        5 GROUP   
     3 ASP3       28 GROUP   
     4 LYS4       43 GROUP   
     5 PHE5       56 GROUP   
     6 GLY6       60 GROUP   
     7 CUB7       82 GROUP   
@<TRIPOS>SET

