#    Name: 6g31_9_ZOL
#    Modification time : Fri May 22 19:33:09 2020

@<TRIPOS>MOLECULE
6g31_9_ZOL
   16    16     1     0     0
SMALL
NO_CHARGES


@<TRIPOS>ATOM
      1 O17        30.8230  -18.9450   -3.9490 O.co2     1 ZOL401      0.0000 
      2 P14        31.7020  -19.7820   -4.8510 P.3       1 ZOL401      0.0000 
      3 O16        32.9280  -20.2190   -4.0880 O.co2     1 ZOL401      0.0000 
      4 O15        30.9550  -20.9960   -5.3810 O.co2     1 ZOL401      0.0000 
      5 C8         32.2750  -18.6780   -6.2340 C.3       1 ZOL401      0.0000 
      6 P9         30.8350  -17.6940   -6.9270 P.3       1 ZOL401      0.0000 
      7 O10        30.2730  -16.9280   -5.7550 O.co2     1 ZOL401      0.0000 
      8 O11        29.7510  -18.5800   -7.5270 O.co2     1 ZOL401      0.0000 
      9 O12        31.3310  -16.7140   -7.9750 O.co2     1 ZOL401      0.0000 
     10 O13        32.9440  -19.4260   -7.2180 O.3       1 ZOL401      0.0000 
     11 C7         33.2490  -17.7510   -5.5180 C.3       1 ZOL401      0.0000 
     12 N15        34.0280  -16.9070   -6.3990 N.pl3     1 ZOL401      0.0000 
     13 C16        34.9290  -17.3000   -7.2990 C.2       1 ZOL401      0.0000 
     14 N17        35.4260  -16.1920   -7.8630 N.2       1 ZOL401      0.0000 
     15 C18        34.8570  -15.1390   -7.3290 C.2       1 ZOL401      0.0000 
     16 C19        33.9820  -15.5960   -6.4050 C.2       1 ZOL401      0.0000 
@<TRIPOS>BOND
     1    1    2 ar   
     2    2    3 ar   
     3    2    4 ar   
     4    2    5 1    
     5    5    6 1    
     6    5   10 1    
     7    5   11 1    
     8    6    7 ar   
     9    6    8 ar   
    10    6    9 ar   
    11   11   12 1    
    12   12   13 1    
    13   12   16 1    
    14   13   14 2    
    15   14   15 1    
    16   15   16 2    
@<TRIPOS>SUBSTRUCTURE
     1 ZOL401      1 GROUP   
@<TRIPOS>SET

