#    Name: 6g31_7_ZOL_CAVITY_N1_4
#    Modification time : Fri May 22 19:33:03 2020

@<TRIPOS>MOLECULE
6g31_7_ZOL_CAVITY_N1_4
  108     0     7     0     0
SMALL
NO_CHARGES


@<TRIPOS>ATOM
      1 OG        -31.3800   10.3100   77.7600 O.3       1 SER1        0.0000 
      2 OG        -22.8200    6.9400   82.8300 O.3       1 SER1        0.0000 
      3 OG        -21.7300    7.2100   83.8200 O.3       1 SER1        0.0000 
      4 O         -32.3000   14.0800   80.0400 O.2       2 ALA2        0.0000 
      5 N         -33.3500   12.9400   81.5000 N.am      2 ALA2        0.0000 
      6 O         -26.9600   10.4900   84.1800 O.2       2 ALA2        0.0000 
      7 O         -22.8400    5.5000   83.2400 O.2       2 ALA2        0.0000 
      8 O         -23.8700    5.8100   84.2900 O.2       2 ALA2        0.0000 
      9 O         -23.8500    7.2500   83.8800 O.2       2 ALA2        0.0000 
     10 N         -24.8900    6.1200   85.3400 N.am      2 ALA2        0.0000 
     11 O         -25.8800    9.3100   85.5700 O.2       2 ALA2        0.0000 
     12 O         -25.8600   10.7600   85.1700 O.2       2 ALA2        0.0000 
     13 N         -22.7700    6.0700   85.2800 N.am      2 ALA2        0.0000 
     14 N         -22.7500    7.5200   84.8700 N.am      2 ALA2        0.0000 
     15 O         -24.7900    9.5800   86.5700 O.2       2 ALA2        0.0000 
     16 O         -24.7700   11.0200   86.1600 O.2       2 ALA2        0.0000 
     17 O         -24.7500   12.4700   85.7500 O.2       2 ALA2        0.0000 
     18 OD1       -29.2400   11.7100   77.3000 O.co2     3 ASP3        0.0000 
     19 OD1       -30.2900   10.5700   78.7500 O.co2     3 ASP3        0.0000 
     20 OD1       -30.2700   12.0200   78.3500 O.co2     3 ASP3        0.0000 
     21 OD1       -31.3100   10.8800   79.8000 O.co2     3 ASP3        0.0000 
     22 OD1       -32.3800    8.3000   81.6600 O.co2     3 ASP3        0.0000 
     23 OD1       -32.3600    9.7400   81.2600 O.co2     3 ASP3        0.0000 
     24 OD1       -28.1300   13.4200   77.8800 O.co2     3 ASP3        0.0000 
     25 OD1       -29.1900   10.8400   79.7500 O.co2     3 ASP3        0.0000 
     26 OD1       -29.1700   12.2800   79.3400 O.co2     3 ASP3        0.0000 
     27 OD1       -30.2200   11.1400   80.7900 O.co2     3 ASP3        0.0000 
     28 OD1       -30.2000   12.5900   80.3900 O.co2     3 ASP3        0.0000 
     29 OD1       -31.2600   10.0100   82.2500 O.co2     3 ASP3        0.0000 
     30 OD1       -31.2300   12.9000   81.4400 O.co2     3 ASP3        0.0000 
     31 OD1       -31.2100   14.3400   81.0300 O.co2     3 ASP3        0.0000 
     32 OD1       -26.0100   13.3700   77.8300 O.co2     3 ASP3        0.0000 
     33 OD1       -27.0300   13.6800   78.8800 O.co2     3 ASP3        0.0000 
     34 OD1       -28.1000   11.1000   80.7400 O.co2     3 ASP3        0.0000 
     35 OD1       -28.0800   12.5400   80.3300 O.co2     3 ASP3        0.0000 
     36 OD1       -29.1200   11.4100   81.7900 O.co2     3 ASP3        0.0000 
     37 OD1       -29.1100   12.8500   81.3800 O.co2     3 ASP3        0.0000 
     38 OD1       -30.1100   14.6000   82.0300 O.co2     3 ASP3        0.0000 
     39 OD1       -24.9700    9.3000   80.0400 O.co2     3 ASP3        0.0000 
     40 OD1       -24.9100   13.6400   78.8200 O.co2     3 ASP3        0.0000 
     41 OD1       -25.9800   11.0600   80.6800 O.co2     3 ASP3        0.0000 
     42 OD1       -25.9600   12.5000   80.2700 O.co2     3 ASP3        0.0000 
     43 OD1       -25.9400   13.9400   79.8700 O.co2     3 ASP3        0.0000 
     44 OD1       -27.0000   11.3600   81.7300 O.co2     3 ASP3        0.0000 
     45 OD1       -28.0500   10.2300   83.1800 O.co2     3 ASP3        0.0000 
     46 OD1       -28.0300   11.6700   82.7800 O.co2     3 ASP3        0.0000 
     47 OD1       -28.0100   13.1200   82.3700 O.co2     3 ASP3        0.0000 
     48 OD1       -23.8600   11.0100   80.6200 O.co2     3 ASP3        0.0000 
     49 OD1       -23.8400   12.4600   80.2200 O.co2     3 ASP3        0.0000 
     50 OD1       -24.8800   11.3200   81.6700 O.co2     3 ASP3        0.0000 
     51 OD1       -25.9700    7.3000   83.9400 O.co2     3 ASP3        0.0000 
     52 OD1       -26.9900    7.6000   84.9900 O.co2     3 ASP3        0.0000 
     53 OD1       -26.9800    9.0500   84.5800 O.co2     3 ASP3        0.0000 
     54 NZ        -32.3400   11.1900   80.8500 N.4       4 LYS4        0.0000 
     55 NZ        -26.0000    9.6100   81.0900 N.4       4 LYS4        0.0000 
     56 NZ        -27.0200    9.9200   82.1300 N.4       4 LYS4        0.0000 
     57 NZ        -24.9200    8.4300   82.4800 N.4       4 LYS4        0.0000 
     58 NZ        -25.9500    8.7400   83.5300 N.4       4 LYS4        0.0000 
     59 CZ        -26.9900   12.8100   81.3200 C.ar      5 PHE5        0.0000 
     60 CZ        -26.9700   14.2500   80.9200 C.ar      5 PHE5        0.0000 
     61 CZ        -27.9900   14.5600   81.9700 C.ar      5 PHE5        0.0000 
     62 CZ        -23.8800    9.5700   81.0300 C.ar      5 PHE5        0.0000 
     63 CZ        -24.8700   12.7600   81.2700 C.ar      5 PHE5        0.0000 
     64 CZ        -24.8500   14.2100   80.8600 C.ar      5 PHE5        0.0000 
     65 CZ        -25.9100   11.6300   82.7200 C.ar      5 PHE5        0.0000 
     66 CZ        -25.8900   13.0700   82.3200 C.ar      5 PHE5        0.0000 
     67 CZ        -26.9400   11.9400   83.7700 C.ar      5 PHE5        0.0000 
     68 CZ        -22.8000    8.3900   82.4300 C.ar      5 PHE5        0.0000 
     69 CZ        -22.7800    9.8300   82.0200 C.ar      5 PHE5        0.0000 
     70 CZ        -23.8100   10.1400   83.0700 C.ar      5 PHE5        0.0000 
     71 CZ        -23.7900   11.5800   82.6600 C.ar      5 PHE5        0.0000 
     72 CZ        -24.8200   11.8900   83.7100 C.ar      5 PHE5        0.0000 
     73 CZ        -25.8400   12.2000   84.7600 C.ar      5 PHE5        0.0000 
     74 CZ        -21.7100    8.6500   83.4200 C.ar      5 PHE5        0.0000 
     75 CZ        -22.7200   10.4000   84.0600 C.ar      5 PHE5        0.0000 
     76 CZ        -22.7000   11.8500   83.6600 C.ar      5 PHE5        0.0000 
     77 CZ        -23.7200   12.1600   84.7100 C.ar      5 PHE5        0.0000 
     78 CA        -32.4200    9.1700   79.2200 C.3       6 GLY6        0.0000 
     79 CA        -32.2300   14.6500   82.0800 C.3       6 GLY6        0.0000 
     80 CA        -31.1400   14.9100   83.0700 C.3       6 GLY6        0.0000 
     81 CA        -29.0200   14.8700   83.0200 C.3       6 GLY6        0.0000 
     82 CA        -23.9200    6.6800   81.8400 C.3       6 GLY6        0.0000 
     83 CA        -23.9000    8.1200   81.4300 C.3       6 GLY6        0.0000 
     84 CA        -24.9400    6.9900   82.8900 C.3       6 GLY6        0.0000 
     85 CA        -24.8700    7.5600   84.9300 C.3       6 GLY6        0.0000 
     86 CA        -25.9000    7.8700   85.9800 C.3       6 GLY6        0.0000 
     87 CA        -21.7500    5.7600   84.2300 C.3       6 GLY6        0.0000 
     88 CA        -22.7900    4.6300   85.6800 C.3       6 GLY6        0.0000 
     89 CA        -23.7800    7.8200   85.9200 C.3       6 GLY6        0.0000 
     90 CA        -21.6400    9.2200   85.4600 C.3       6 GLY6        0.0000 
     91 CA        -22.6700    9.5300   86.5100 C.3       6 GLY6        0.0000 
     92 CA        -22.6500   10.9800   86.1000 C.3       6 GLY6        0.0000 
     93 CA        -23.6800   11.2900   87.1500 C.3       6 GLY6        0.0000 
     94 DU        -31.2900   12.3200   79.4000 H         7 CUB7        0.0000 
     95 DU        -32.3200   12.6300   80.4500 H         7 CUB7        0.0000 
     96 DU        -29.1500   13.7200   78.9300 H         7 CUB7        0.0000 
     97 DU        -30.1800   14.0300   79.9800 H         7 CUB7        0.0000 
     98 DU        -28.0600   13.9900   79.9300 H         7 CUB7        0.0000 
     99 DU        -29.0900   14.3000   80.9800 H         7 CUB7        0.0000 
    100 DU        -24.9000    9.8800   82.0800 H         7 CUB7        0.0000 
    101 DU        -25.9300   10.1800   83.1300 H         7 CUB7        0.0000 
    102 DU        -23.8300    8.7000   83.4700 H         7 CUB7        0.0000 
    103 DU        -24.8600    9.0000   84.5200 H         7 CUB7        0.0000 
    104 DU        -24.8400   10.4500   84.1200 H         7 CUB7        0.0000 
    105 DU        -22.7400    8.9600   84.4700 H         7 CUB7        0.0000 
    106 DU        -23.7600    9.2700   85.5200 H         7 CUB7        0.0000 
    107 DU        -23.7400   10.7100   85.1100 H         7 CUB7        0.0000 
    108 DU        -21.6200   10.6700   85.0500 H         7 CUB7        0.0000 
@<TRIPOS>BOND
@<TRIPOS>SUBSTRUCTURE
     1 SER1        1 GROUP   
     2 ALA2        4 GROUP   
     3 ASP3       18 GROUP   
     4 LYS4       54 GROUP   
     5 PHE5       59 GROUP   
     6 GLY6       78 GROUP   
     7 CUB7       94 GROUP   
@<TRIPOS>SET

