#    Name: 6g31_3_ZOL_CAVITY_N1_4
#    Modification time : Fri May 22 19:32:50 2020

@<TRIPOS>MOLECULE
6g31_3_ZOL_CAVITY_N1_4
   59     0     7     0     0
SMALL
NO_CHARGES


@<TRIPOS>ATOM
      1 OG         73.5300    6.4700   35.7100 O.3       1 SER1        0.0000 
      2 OG         73.5500    7.9100   35.3100 O.3       1 SER1        0.0000 
      3 OG         72.4700    3.8900   37.5700 O.3       1 SER1        0.0000 
      4 OG         72.4900    5.3300   37.1700 O.3       1 SER1        0.0000 
      5 OG         72.5000    6.7700   36.7600 O.3       1 SER1        0.0000 
      6 OG         71.4600    5.6400   38.2200 O.3       1 SER1        0.0000 
      7 N          74.5600    6.1600   34.6600 N.am      2 ALA2        0.0000 
      8 N          75.6500    6.4200   35.6500 N.am      2 ALA2        0.0000 
      9 N          74.6100    5.2900   37.1100 N.am      2 ALA2        0.0000 
     10 N          73.5600    4.1500   38.5600 N.am      2 ALA2        0.0000 
     11 N          74.6500    4.4100   39.5600 N.am      2 ALA2        0.0000 
     12 N          75.8200   10.4500   38.9300 N.am      2 ALA2        0.0000 
     13 OD1        74.6200    6.7300   36.7000 O.co2     3 ASP3        0.0000 
     14 OD1        71.5300    6.2100   40.2600 O.co2     3 ASP3        0.0000 
     15 OD1        75.7400    8.4400   37.2900 O.co2     3 ASP3        0.0000 
     16 OD1        74.6700    5.8600   39.1500 O.co2     3 ASP3        0.0000 
     17 OD1        74.6900    7.3000   38.7400 O.co2     3 ASP3        0.0000 
     18 OD1        74.7100    8.7500   38.3400 O.co2     3 ASP3        0.0000 
     19 OD1        72.6200    6.4700   41.2500 O.co2     3 ASP3        0.0000 
     20 OD1        72.6400    7.9200   40.8400 O.co2     3 ASP3        0.0000 
     21 OD1        71.6300    9.6700   41.4900 O.co2     3 ASP3        0.0000 
     22 OD1        75.8000    9.0100   39.3300 O.co2     3 ASP3        0.0000 
     23 OD1        74.7600    7.8700   40.7900 O.co2     3 ASP3        0.0000 
     24 OD1        74.7800    9.3200   40.3800 O.co2     3 ASP3        0.0000 
     25 OD1        73.7100    6.7400   42.2400 O.co2     3 ASP3        0.0000 
     26 OD1        73.7300    8.1800   41.8400 O.co2     3 ASP3        0.0000 
     27 OD1        73.7500    9.6300   41.4300 O.co2     3 ASP3        0.0000 
     28 OD1        75.8500    8.1400   41.7800 O.co2     3 ASP3        0.0000 
     29 OD1        74.8100    7.0000   43.2300 O.co2     3 ASP3        0.0000 
     30 OD1        74.8300    8.4500   42.8300 O.co2     3 ASP3        0.0000 
     31 NZ         73.6300    4.7200   40.6100 N.4       4 LYS4        0.0000 
     32 NZ         73.6500    6.1700   40.2000 N.4       4 LYS4        0.0000 
     33 NZ         74.7400    6.4300   41.1900 N.4       4 LYS4        0.0000 
     34 CZ         71.4800    7.0800   37.8100 C.ar      5 PHE5        0.0000 
     35 CZ         73.6200    8.4800   37.3500 C.ar      5 PHE5        0.0000 
     36 CZ         73.6400    9.9300   36.9400 C.ar      5 PHE5        0.0000 
     37 CZ         72.5700    7.3500   38.8000 C.ar      5 PHE5        0.0000 
     38 CZ         72.5900    8.7900   38.4000 C.ar      5 PHE5        0.0000 
     39 CA         73.5100    5.0200   36.1200 C.3       6 GLY6        0.0000 
     40 CA         75.6700    7.8700   35.2500 C.3       6 GLY6        0.0000 
     41 CA         72.5300    4.4600   39.6100 C.3       6 GLY6        0.0000 
     42 CA         71.5400    7.6500   39.8500 C.3       6 GLY6        0.0000 
     43 CA         71.5600    9.1000   39.4500 C.3       6 GLY6        0.0000 
     44 CA         75.7600    9.8800   36.8800 C.3       6 GLY6        0.0000 
     45 CA         76.8500   10.1500   37.8800 C.3       6 GLY6        0.0000 
     46 CA         74.8200   12.2100   39.5700 C.3       6 GLY6        0.0000 
     47 DU         74.6400    8.1700   36.3000 H         7 CUB7        0.0000 
     48 DU         73.5800    5.5900   38.1600 H         7 CUB7        0.0000 
     49 DU         73.6000    7.0400   37.7500 H         7 CUB7        0.0000 
     50 DU         72.5500    5.9000   39.2100 H         7 CUB7        0.0000 
     51 DU         74.7300   10.1900   37.9300 H         7 CUB7        0.0000 
     52 DU         73.6700    7.6100   39.7900 H         7 CUB7        0.0000 
     53 DU         73.6800    9.0500   39.3900 H         7 CUB7        0.0000 
     54 DU         73.7000   10.5000   38.9800 H         7 CUB7        0.0000 
     55 DU         72.6600    9.3600   40.4400 H         7 CUB7        0.0000 
     56 DU         72.6800   10.8100   40.0300 H         7 CUB7        0.0000 
     57 DU         71.6500   11.1100   41.0800 H         7 CUB7        0.0000 
     58 DU         74.8000   10.7600   39.9800 H         7 CUB7        0.0000 
     59 DU         73.7700   11.0700   41.0300 H         7 CUB7        0.0000 
@<TRIPOS>BOND
@<TRIPOS>SUBSTRUCTURE
     1 SER1        1 GROUP   
     2 ALA2        7 GROUP   
     3 ASP3       13 GROUP   
     4 LYS4       31 GROUP   
     5 PHE5       34 GROUP   
     6 GLY6       39 GROUP   
     7 CUB7       47 GROUP   
@<TRIPOS>SET

