#    Name: 6g31_3_ZOL_CAVITY_N1_6
#    Modification time : Fri May 22 19:32:50 2020

@<TRIPOS>MOLECULE
6g31_3_ZOL_CAVITY_N1_6
   84     0     7     0     0
SMALL
NO_CHARGES


@<TRIPOS>ATOM
      1 OG         72.4600    7.6500   34.3100 O.3       1 SER1        0.0000 
      2 OG         72.4800    9.0900   33.9100 O.3       1 SER1        0.0000 
      3 OG         73.5300    6.4700   35.7100 O.3       1 SER1        0.0000 
      4 OG         73.5500    7.9100   35.3100 O.3       1 SER1        0.0000 
      5 OG         72.4700    3.8900   37.5700 O.3       1 SER1        0.0000 
      6 OG         72.4900    5.3300   37.1700 O.3       1 SER1        0.0000 
      7 OG         72.5000    6.7700   36.7600 O.3       1 SER1        0.0000 
      8 OG         71.4600    5.6400   38.2200 O.3       1 SER1        0.0000 
      9 N          74.5600    6.1600   34.6600 N.am      2 ALA2        0.0000 
     10 N          74.6000    9.0500   33.8500 N.am      2 ALA2        0.0000 
     11 N          75.6500    6.4200   35.6500 N.am      2 ALA2        0.0000 
     12 N          74.6100    5.2900   37.1100 N.am      2 ALA2        0.0000 
     13 N          73.5600    4.1500   38.5600 N.am      2 ALA2        0.0000 
     14 N          74.6500    4.4100   39.5600 N.am      2 ALA2        0.0000 
     15 N          75.8200   10.4500   38.9300 N.am      2 ALA2        0.0000 
     16 N          75.8600   13.3400   38.1200 N.am      2 ALA2        0.0000 
     17 OD1        74.6200    6.7300   36.7000 O.co2     3 ASP3        0.0000 
     18 OD1        71.5300    6.2100   40.2600 O.co2     3 ASP3        0.0000 
     19 OD1        75.7400    8.4400   37.2900 O.co2     3 ASP3        0.0000 
     20 OD1        74.6700    5.8600   39.1500 O.co2     3 ASP3        0.0000 
     21 OD1        74.6900    7.3000   38.7400 O.co2     3 ASP3        0.0000 
     22 OD1        74.7100    8.7500   38.3400 O.co2     3 ASP3        0.0000 
     23 OD1        72.6200    6.4700   41.2500 O.co2     3 ASP3        0.0000 
     24 OD1        72.6400    7.9200   40.8400 O.co2     3 ASP3        0.0000 
     25 OD1        71.6300    9.6700   41.4900 O.co2     3 ASP3        0.0000 
     26 OD1        75.8000    9.0100   39.3300 O.co2     3 ASP3        0.0000 
     27 OD1        74.7600    7.8700   40.7900 O.co2     3 ASP3        0.0000 
     28 OD1        74.7800    9.3200   40.3800 O.co2     3 ASP3        0.0000 
     29 OD1        73.7100    6.7400   42.2400 O.co2     3 ASP3        0.0000 
     30 OD1        73.7300    8.1800   41.8400 O.co2     3 ASP3        0.0000 
     31 OD1        73.7500    9.6300   41.4300 O.co2     3 ASP3        0.0000 
     32 OD1        75.8500    8.1400   41.7800 O.co2     3 ASP3        0.0000 
     33 OD1        74.8100    7.0000   43.2300 O.co2     3 ASP3        0.0000 
     34 OD1        74.8300    8.4500   42.8300 O.co2     3 ASP3        0.0000 
     35 NZ         73.6300    4.7200   40.6100 N.4       4 LYS4        0.0000 
     36 NZ         73.6500    6.1700   40.2000 N.4       4 LYS4        0.0000 
     37 NZ         74.7400    6.4300   41.1900 N.4       4 LYS4        0.0000 
     38 CZ         73.5700    9.3500   34.9000 C.ar      5 PHE5        0.0000 
     39 CZ         72.5600   11.1100   35.5400 C.ar      5 PHE5        0.0000 
     40 CZ         71.4800    7.0800   37.8100 C.ar      5 PHE5        0.0000 
     41 CZ         71.5300   11.4100   36.5900 C.ar      5 PHE5        0.0000 
     42 CZ         73.6200    8.4800   37.3500 C.ar      5 PHE5        0.0000 
     43 CZ         73.6400    9.9300   36.9400 C.ar      5 PHE5        0.0000 
     44 CZ         72.5700    7.3500   38.8000 C.ar      5 PHE5        0.0000 
     45 CZ         72.5900    8.7900   38.4000 C.ar      5 PHE5        0.0000 
     46 CZ         72.6100   10.2300   37.9900 C.ar      5 PHE5        0.0000 
     47 CZ         72.6300   11.6800   37.5900 C.ar      5 PHE5        0.0000 
     48 CZ         71.5800   10.5400   39.0400 C.ar      5 PHE5        0.0000 
     49 CA         73.4800    7.3400   33.2600 C.3       6 GLY6        0.0000 
     50 CA         72.4400    6.2000   34.7200 C.3       6 GLY6        0.0000 
     51 CA         74.5800    7.6000   34.2600 C.3       6 GLY6        0.0000 
     52 CA         73.5100    5.0200   36.1200 C.3       6 GLY6        0.0000 
     53 CA         75.6700    7.8700   35.2500 C.3       6 GLY6        0.0000 
     54 CA         75.6900    9.3100   34.8400 C.3       6 GLY6        0.0000 
     55 CA         72.5300    4.4600   39.6100 C.3       6 GLY6        0.0000 
     56 CA         71.5400    7.6500   39.8500 C.3       6 GLY6        0.0000 
     57 CA         71.5600    9.1000   39.4500 C.3       6 GLY6        0.0000 
     58 CA         75.7600    9.8800   36.8800 C.3       6 GLY6        0.0000 
     59 CA         75.7800   11.3300   36.4800 C.3       6 GLY6        0.0000 
     60 CA         76.8500   10.1500   37.8800 C.3       6 GLY6        0.0000 
     61 CA         76.8700   11.5900   37.4700 C.3       6 GLY6        0.0000 
     62 CA         74.8200   12.2100   39.5700 C.3       6 GLY6        0.0000 
     63 CA         74.8300   13.6500   39.1600 C.3       6 GLY6        0.0000 
     64 CA         76.9400   12.1600   39.5100 C.3       6 GLY6        0.0000 
     65 DU         74.6400    8.1700   36.3000 H         7 CUB7        0.0000 
     66 DU         74.6600    9.6200   35.8900 H         7 CUB7        0.0000 
     67 DU         74.6800   11.0600   35.4900 H         7 CUB7        0.0000 
     68 DU         73.5800    5.5900   38.1600 H         7 CUB7        0.0000 
     69 DU         73.6000    7.0400   37.7500 H         7 CUB7        0.0000 
     70 DU         73.6600   11.3700   36.5400 H         7 CUB7        0.0000 
     71 DU         72.5500    5.9000   39.2100 H         7 CUB7        0.0000 
     72 DU         74.7300   10.1900   37.9300 H         7 CUB7        0.0000 
     73 DU         74.7500   11.6300   37.5300 H         7 CUB7        0.0000 
     74 DU         73.6700    7.6100   39.7900 H         7 CUB7        0.0000 
     75 DU         73.6800    9.0500   39.3900 H         7 CUB7        0.0000 
     76 DU         73.7000   10.5000   38.9800 H         7 CUB7        0.0000 
     77 DU         73.7400   13.3900   38.1700 H         7 CUB7        0.0000 
     78 DU         72.6600    9.3600   40.4400 H         7 CUB7        0.0000 
     79 DU         72.6800   10.8100   40.0300 H         7 CUB7        0.0000 
     80 DU         71.6500   11.1100   41.0800 H         7 CUB7        0.0000 
     81 DU         75.8400   11.9000   38.5200 H         7 CUB7        0.0000 
     82 DU         74.8000   10.7600   39.9800 H         7 CUB7        0.0000 
     83 DU         73.7700   11.0700   41.0300 H         7 CUB7        0.0000 
     84 DU         73.8100   13.9600   40.2100 H         7 CUB7        0.0000 
@<TRIPOS>BOND
@<TRIPOS>SUBSTRUCTURE
     1 SER1        1 GROUP   
     2 ALA2        9 GROUP   
     3 ASP3       17 GROUP   
     4 LYS4       35 GROUP   
     5 PHE5       38 GROUP   
     6 GLY6       49 GROUP   
     7 CUB7       65 GROUP   
@<TRIPOS>SET

