#    Name: 6g31_8_ZOL
#    Modification time : Fri May 22 19:33:06 2020

@<TRIPOS>MOLECULE
6g31_8_ZOL
   16    16     1     0     0
SMALL
NO_CHARGES


@<TRIPOS>ATOM
      1 O17       -25.7550  -18.5980   70.9700 O.co2     1 ZOL401      0.0000 
      2 P14       -24.8740  -19.7910   70.6560 P.3       1 ZOL401      0.0000 
      3 O16       -24.6680  -20.6280   71.9090 O.co2     1 ZOL401      0.0000 
      4 O15       -25.4560  -20.6050   69.5120 O.co2     1 ZOL401      0.0000 
      5 C8        -23.2610  -19.0840   70.0880 C.3       1 ZOL401      0.0000 
      6 P9        -23.5480  -18.0390   68.5700 P.3       1 ZOL401      0.0000 
      7 O10       -23.8710  -16.6410   69.0340 O.co2     1 ZOL401      0.0000 
      8 O11       -24.6660  -18.6600   67.7600 O.co2     1 ZOL401      0.0000 
      9 O12       -22.2940  -17.9720   67.7390 O.co2     1 ZOL401      0.0000 
     10 O13       -22.3850  -20.1500   69.8010 O.3       1 ZOL401      0.0000 
     11 C7        -22.8470  -18.2160   71.2860 C.3       1 ZOL401      0.0000 
     12 N15       -21.5670  -17.5280   71.1160 N.pl3     1 ZOL401      0.0000 
     13 C16       -20.6170  -17.7590   70.1760 C.2       1 ZOL401      0.0000 
     14 N17       -19.5940  -16.9070   70.3920 N.2       1 ZOL401      0.0000 
     15 C18       -19.9040  -16.1710   71.4490 C.2       1 ZOL401      0.0000 
     16 C19       -21.1300  -16.5610   71.9040 C.2       1 ZOL401      0.0000 
@<TRIPOS>BOND
     1    1    2 ar   
     2    2    3 ar   
     3    2    4 ar   
     4    2    5 1    
     5    5    6 1    
     6    5   10 1    
     7    5   11 1    
     8    6    7 ar   
     9    6    8 ar   
    10    6    9 ar   
    11   11   12 1    
    12   12   13 1    
    13   12   16 1    
    14   13   14 2    
    15   14   15 1    
    16   15   16 2    
@<TRIPOS>SUBSTRUCTURE
     1 ZOL401      1 GROUP   
@<TRIPOS>SET

