#    Name: 6g31_8_ZOL_CAVITY_N1_4
#    Modification time : Fri May 22 19:33:06 2020

@<TRIPOS>MOLECULE
6g31_8_ZOL_CAVITY_N1_4
   99     0     7     0     0
SMALL
NO_CHARGES


@<TRIPOS>ATOM
      1 OG        -17.2000  -17.4100   74.0400 O.3       1 SER1        0.0000 
      2 O         -21.6400  -19.0400   68.0300 O.2       2 ALA2        0.0000 
      3 O         -21.6200  -17.6000   67.6300 O.2       2 ALA2        0.0000 
      4 N         -20.5800  -21.6600   69.8400 N.am      2 ALA2        0.0000 
      5 O         -20.5500  -18.7800   69.0300 O.2       2 ALA2        0.0000 
      6 O         -20.5300  -17.3300   68.6200 O.2       2 ALA2        0.0000 
      7 O         -21.5700  -18.4700   70.0800 O.2       2 ALA2        0.0000 
      8 N         -19.4900  -21.4000   70.8300 N.am      2 ALA2        0.0000 
      9 N         -19.4700  -19.9600   70.4200 N.am      2 ALA2        0.0000 
     10 O         -19.4500  -18.5100   70.0200 O.2       2 ALA2        0.0000 
     11 O         -19.4300  -17.0700   69.6100 O.2       2 ALA2        0.0000 
     12 N         -19.4100  -15.6200   69.2100 N.am      2 ALA2        0.0000 
     13 N         -20.4400  -15.3200   70.2600 N.am      2 ALA2        0.0000 
     14 N         -18.3400  -16.8000   70.6100 N.am      2 ALA2        0.0000 
     15 N         -18.3200  -15.3600   70.2000 N.am      2 ALA2        0.0000 
     16 N         -19.3500  -15.0500   71.2500 N.am      2 ALA2        0.0000 
     17 N         -20.3700  -14.7400   72.3000 N.am      2 ALA2        0.0000 
     18 O         -21.3800  -12.9900   72.9400 O.2       2 ALA2        0.0000 
     19 N         -17.2700  -17.9800   72.0000 N.am      2 ALA2        0.0000 
     20 N         -18.2700  -16.2300   72.6500 N.am      2 ALA2        0.0000 
     21 N         -19.2600  -13.0300   72.8900 N.am      2 ALA2        0.0000 
     22 N         -20.3100  -14.1700   74.3400 N.am      2 ALA2        0.0000 
     23 OD1       -28.0000  -18.9100   68.2100 O.co2     3 ASP3        0.0000 
     24 OD1       -25.9000  -20.4000   68.5500 O.co2     3 ASP3        0.0000 
     25 OD1       -25.8800  -18.9500   68.1500 O.co2     3 ASP3        0.0000 
     26 OD1       -23.7600  -19.0000   68.0900 O.co2     3 ASP3        0.0000 
     27 OD1       -23.7400  -17.5500   67.6900 O.co2     3 ASP3        0.0000 
     28 OD1       -24.8400  -23.0200   70.3600 O.co2     3 ASP3        0.0000 
     29 OD1       -24.7900  -18.6900   69.1400 O.co2     3 ASP3        0.0000 
     30 OD1       -25.8500  -21.2700   71.0000 O.co2     3 ASP3        0.0000 
     31 OD1       -25.8300  -19.8200   70.6000 O.co2     3 ASP3        0.0000 
     32 OD1       -22.6700  -18.7300   69.0800 O.co2     3 ASP3        0.0000 
     33 OD1       -22.6500  -17.2900   68.6800 O.co2     3 ASP3        0.0000 
     34 OD1       -23.7500  -22.7600   71.3500 O.co2     3 ASP3        0.0000 
     35 OD1       -23.7300  -21.3100   70.9400 O.co2     3 ASP3        0.0000 
     36 OD1       -23.7100  -19.8700   70.5400 O.co2     3 ASP3        0.0000 
     37 OD1       -23.6900  -18.4200   70.1300 O.co2     3 ASP3        0.0000 
     38 OD1       -24.7400  -19.5600   71.5900 O.co2     3 ASP3        0.0000 
     39 OD1       -24.7200  -18.1200   71.1800 O.co2     3 ASP3        0.0000 
     40 OD1       -20.5100  -15.8900   68.2200 O.co2     3 ASP3        0.0000 
     41 OD1       -21.5900  -19.9100   70.4800 O.co2     3 ASP3        0.0000 
     42 NZ        -21.6000  -16.1500   67.2200 N.4       4 LYS4        0.0000 
     43 NZ        -23.6700  -16.9800   69.7300 N.4       4 LYS4        0.0000 
     44 NZ        -21.5500  -17.0200   69.6700 N.4       4 LYS4        0.0000 
     45 NZ        -22.6000  -18.1600   71.1300 N.4       4 LYS4        0.0000 
     46 NZ        -20.4600  -16.7600   70.6600 N.4       4 LYS4        0.0000 
     47 NZ        -21.4900  -16.4500   71.7100 N.4       4 LYS4        0.0000 
     48 CZ        -22.7200  -23.0600   70.3000 C.ar      5 PHE5        0.0000 
     49 CZ        -23.7700  -24.2000   71.7600 C.ar      5 PHE5        0.0000 
     50 CZ        -21.6300  -22.8000   71.2900 C.ar      5 PHE5        0.0000 
     51 CZ        -21.6100  -21.3600   70.8900 C.ar      5 PHE5        0.0000 
     52 CZ        -22.6800  -23.9400   72.7500 C.ar      5 PHE5        0.0000 
     53 CZ        -22.6600  -22.4900   72.3400 C.ar      5 PHE5        0.0000 
     54 CZ        -20.5400  -22.5400   72.2800 C.ar      5 PHE5        0.0000 
     55 CZ        -21.5600  -22.2300   73.3300 C.ar      5 PHE5        0.0000 
     56 CZ        -20.4300  -19.0800   73.5200 C.ar      5 PHE5        0.0000 
     57 CZ        -18.3100  -19.1200   73.4600 C.ar      5 PHE5        0.0000 
     58 CZ        -19.3400  -18.8100   74.5100 C.ar      5 PHE5        0.0000 
     59 CZ        -19.3200  -17.3700   74.1000 C.ar      5 PHE5        0.0000 
     60 CA        -23.6600  -20.7400   72.9900 C.3       6 GLY6        0.0000 
     61 CA        -23.6400  -19.3000   72.5800 C.3       6 GLY6        0.0000 
     62 CA        -22.5700  -20.4700   73.9800 C.3       6 GLY6        0.0000 
     63 CA        -22.5500  -19.0300   73.5700 C.3       6 GLY6        0.0000 
     64 CA        -22.5300  -17.5900   73.1700 C.3       6 GLY6        0.0000 
     65 CA        -17.3500  -20.0000   70.3700 C.3       6 GLY6        0.0000 
     66 CA        -17.3300  -18.5600   69.9600 C.3       6 GLY6        0.0000 
     67 CA        -21.4600  -18.7700   74.5600 C.3       6 GLY6        0.0000 
     68 CA        -21.4400  -17.3200   74.1600 C.3       6 GLY6        0.0000 
     69 CA        -21.4200  -15.8800   73.7500 C.3       6 GLY6        0.0000 
     70 CA        -21.4000  -14.4300   73.3500 C.3       6 GLY6        0.0000 
     71 CA        -18.2500  -14.7900   72.2400 C.3       6 GLY6        0.0000 
     72 CA        -19.3000  -15.9200   73.7000 C.3       6 GLY6        0.0000 
     73 CA        -19.2800  -14.4800   73.2900 C.3       6 GLY6        0.0000 
     74 CA        -20.3400  -17.0600   75.1500 C.3       6 GLY6        0.0000 
     75 CA        -20.3300  -15.6100   74.7500 C.3       6 GLY6        0.0000 
     76 CA        -17.1800  -15.9700   73.6400 C.3       6 GLY6        0.0000 
     77 CA        -18.2100  -15.6600   74.6900 C.3       6 GLY6        0.0000 
     78 CA        -18.1900  -14.2100   74.2800 C.3       6 GLY6        0.0000 
     79 DU        -25.8700  -22.7100   71.4100 H         7 CUB7        0.0000 
     80 DU        -24.7800  -22.4500   72.4000 H         7 CUB7        0.0000 
     81 DU        -24.7600  -21.0000   71.9900 H         7 CUB7        0.0000 
     82 DU        -22.6400  -21.0500   71.9400 H         7 CUB7        0.0000 
     83 DU        -22.6200  -19.6000   71.5300 H         7 CUB7        0.0000 
     84 DU        -23.6800  -22.1800   73.3900 H         7 CUB7        0.0000 
     85 DU        -20.5200  -21.0900   71.8800 H         7 CUB7        0.0000 
     86 DU        -20.5000  -19.6500   71.4700 H         7 CUB7        0.0000 
     87 DU        -20.4800  -18.2000   71.0700 H         7 CUB7        0.0000 
     88 DU        -21.5400  -20.7800   72.9300 H         7 CUB7        0.0000 
     89 DU        -21.5200  -19.3400   72.5200 H         7 CUB7        0.0000 
     90 DU        -21.5100  -17.9000   72.1200 H         7 CUB7        0.0000 
     91 DU        -22.5900  -21.9200   74.3800 H         7 CUB7        0.0000 
     92 DU        -18.3800  -19.6900   71.4200 H         7 CUB7        0.0000 
     93 DU        -18.3600  -18.2500   71.0100 H         7 CUB7        0.0000 
     94 DU        -19.4000  -19.3800   72.4700 H         7 CUB7        0.0000 
     95 DU        -19.3700  -16.5000   71.6500 H         7 CUB7        0.0000 
     96 DU        -20.4100  -17.6300   73.1100 H         7 CUB7        0.0000 
     97 DU        -20.3900  -16.1900   72.7000 H         7 CUB7        0.0000 
     98 DU        -17.2800  -19.4300   72.4100 H         7 CUB7        0.0000 
     99 DU        -18.2900  -17.6800   73.0500 H         7 CUB7        0.0000 
@<TRIPOS>BOND
@<TRIPOS>SUBSTRUCTURE
     1 SER1        1 GROUP   
     2 ALA2        2 GROUP   
     3 ASP3       23 GROUP   
     4 LYS4       42 GROUP   
     5 PHE5       48 GROUP   
     6 GLY6       60 GROUP   
     7 CUB7       79 GROUP   
@<TRIPOS>SET

