#    Name: 6g31_3_ZOL
#    Modification time : Fri May 22 19:32:49 2020

@<TRIPOS>MOLECULE
6g31_3_ZOL
   16    16     1     0     0
SMALL
NO_CHARGES


@<TRIPOS>ATOM
      1 O17        73.2600    7.5290   44.3440 O.co2     1 ZOL401      0.0000 
      2 P14        73.8630    8.6150   43.4790 P.3       1 ZOL401      0.0000 
      3 O16        74.9060    9.3940   44.2580 O.co2     1 ZOL401      0.0000 
      4 O15        72.8440    9.6120   42.9740 O.co2     1 ZOL401      0.0000 
      5 C8         74.6900    7.7620   42.0570 C.3       1 ZOL401      0.0000 
      6 P9         75.9050    6.5710   42.7920 P.3       1 ZOL401      0.0000 
      7 O10        75.1020    5.7070   43.7140 O.co2     1 ZOL401      0.0000 
      8 O11        76.9120    7.3680   43.5870 O.co2     1 ZOL401      0.0000 
      9 O12        76.5550    5.7380   41.7080 O.co2     1 ZOL401      0.0000 
     10 O13        75.2930    8.7170   41.2250 O.3       1 ZOL401      0.0000 
     11 C7         73.6170    6.9740   41.3340 C.3       1 ZOL401      0.0000 
     12 N15        74.1310    6.3560   40.1220 N.pl3     1 ZOL401      0.0000 
     13 C16        74.6920    6.9840   39.0780 C.2       1 ZOL401      0.0000 
     14 N17        75.0040    6.0530   38.1700 N.2       1 ZOL401      0.0000 
     15 C18        74.6200    4.8900   38.6370 C.2       1 ZOL401      0.0000 
     16 C19        74.0770    5.0680   39.8610 C.2       1 ZOL401      0.0000 
@<TRIPOS>BOND
     1    1    2 ar   
     2    2    3 ar   
     3    2    4 ar   
     4    2    5 1    
     5    5    6 1    
     6    5   10 1    
     7    5   11 1    
     8    6    7 ar   
     9    6    8 ar   
    10    6    9 ar   
    11   11   12 1    
    12   12   13 1    
    13   12   16 1    
    14   13   14 2    
    15   14   15 1    
    16   15   16 2    
@<TRIPOS>SUBSTRUCTURE
     1 ZOL401      1 GROUP   
@<TRIPOS>SET

