#    Name: 6g31_10_ZOL
#    Modification time : Fri May 22 19:33:12 2020

@<TRIPOS>MOLECULE
6g31_10_ZOL
   16    16     1     0     0
SMALL
NO_CHARGES


@<TRIPOS>ATOM
      1 O17        32.4290    9.6410    6.9290 O.co2     1 ZOL401      0.0000 
      2 P14        33.3190   10.8390    7.1930 P.3       1 ZOL401      0.0000 
      3 O16        32.7890   11.6900    8.3350 O.co2     1 ZOL401      0.0000 
      4 O15        33.3640   11.6970    5.9450 O.co2     1 ZOL401      0.0000 
      5 C8         35.0360   10.2280    7.6220 C.3       1 ZOL401      0.0000 
      6 P9         35.0060    8.9510    8.9670 P.3       1 ZOL401      0.0000 
      7 O10        34.0550    9.4320   10.0410 O.co2     1 ZOL401      0.0000 
      8 O11        36.3780    8.7580    9.5530 O.co2     1 ZOL401      0.0000 
      9 O12        34.5580    7.6430    8.3930 O.co2     1 ZOL401      0.0000 
     10 O13        35.8330   11.2960    8.0780 O.3       1 ZOL401      0.0000 
     11 C7         35.5720    9.5710    6.3550 C.3       1 ZOL401      0.0000 
     12 N15        36.9260    9.0580    6.4990 N.pl3     1 ZOL401      0.0000 
     13 C16        37.9740    9.6410    7.1170 C.2       1 ZOL401      0.0000 
     14 N17        39.0330    8.8230    6.9740 N.2       1 ZOL401      0.0000 
     15 C18        38.6600    7.7630    6.2820 C.2       1 ZOL401      0.0000 
     16 C19        37.3400    7.9150    5.9820 C.2       1 ZOL401      0.0000 
@<TRIPOS>BOND
     1    1    2 ar   
     2    2    3 ar   
     3    2    4 ar   
     4    2    5 1    
     5    5    6 1    
     6    5   10 1    
     7    5   11 1    
     8    6    7 ar   
     9    6    8 ar   
    10    6    9 ar   
    11   11   12 1    
    12   12   13 1    
    13   12   16 1    
    14   13   14 2    
    15   14   15 1    
    16   15   16 2    
@<TRIPOS>SUBSTRUCTURE
     1 ZOL401      1 GROUP   
@<TRIPOS>SET

