#    Name: 6g31_11_ZOL_CAVITY_N1_4
#    Modification time : Fri May 22 19:33:15 2020

@<TRIPOS>MOLECULE
6g31_11_ZOL_CAVITY_N1_4
  127     0     7     0     0
SMALL
NO_CHARGES


@<TRIPOS>ATOM
      1 OG         39.1400  -22.3500   81.2900 O.3       1 SER1        0.0000 
      2 OG         38.1200  -22.0400   82.3400 O.3       1 SER1        0.0000 
      3 OG         39.1900  -23.2200   83.7400 O.3       1 SER1        0.0000 
      4 N          38.1500  -24.3600   85.1900 N.am      2 ALA2        0.0000 
      5 N          38.1600  -22.9200   84.7900 N.am      2 ALA2        0.0000 
      6 N          38.1800  -21.4700   84.3800 N.am      2 ALA2        0.0000 
      7 O          41.3300  -21.8200   83.2800 O.2       2 ALA2        0.0000 
      8 O          41.3500  -20.3800   82.8700 O.2       2 ALA2        0.0000 
      9 N          40.2800  -22.9600   84.7300 N.am      2 ALA2        0.0000 
     10 O          40.3000  -21.5200   84.3200 O.2       2 ALA2        0.0000 
     11 O          40.3200  -20.0700   83.9200 O.2       2 ALA2        0.0000 
     12 N          39.2800  -21.2100   85.3700 N.am      2 ALA2        0.0000 
     13 N          48.5100  -29.1900   79.5900 N.am      2 ALA2        0.0000 
     14 O          43.4300  -23.3100   83.6200 O.2       2 ALA2        0.0000 
     15 O          42.4000  -23.0000   84.6700 O.2       2 ALA2        0.0000 
     16 N          41.3800  -22.7000   85.7200 N.am      2 ALA2        0.0000 
     17 O          41.4000  -21.2500   85.3200 O.2       2 ALA2        0.0000 
     18 O          43.5000  -22.7400   85.6600 O.2       2 ALA2        0.0000 
     19 O          44.5900  -22.4800   86.6600 O.2       2 ALA2        0.0000 
     20 OD1        46.3600  -26.8300   76.8000 O.co2     3 ASP3        0.0000 
     21 OD1        47.4500  -26.5600   77.7900 O.co2     3 ASP3        0.0000 
     22 OD1        47.4700  -25.1200   77.3800 O.co2     3 ASP3        0.0000 
     23 OD1        46.4200  -26.2500   78.8400 O.co2     3 ASP3        0.0000 
     24 OD1        45.4000  -25.9400   79.8900 O.co2     3 ASP3        0.0000 
     25 OD1        44.3700  -25.6400   80.9400 O.co2     3 ASP3        0.0000 
     26 OD1        48.5300  -27.7400   79.1900 O.co2     3 ASP3        0.0000 
     27 OD1        48.5600  -24.8500   78.3800 O.co2     3 ASP3        0.0000 
     28 OD1        47.5000  -27.4300   80.2400 O.co2     3 ASP3        0.0000 
     29 OD1        47.5200  -25.9900   79.8300 O.co2     3 ASP3        0.0000 
     30 OD1        46.4900  -25.6800   80.8800 O.co2     3 ASP3        0.0000 
     31 OD1        45.4700  -25.3700   81.9300 O.co2     3 ASP3        0.0000 
     32 OD1        49.6400  -26.0300   79.7700 O.co2     3 ASP3        0.0000 
     33 OD1        49.6600  -24.5900   79.3700 O.co2     3 ASP3        0.0000 
     34 OD1        48.6100  -25.7200   80.8200 O.co2     3 ASP3        0.0000 
     35 OD1        46.5600  -25.1100   82.9200 O.co2     3 ASP3        0.0000 
     36 OD1        46.5800  -23.6600   82.5200 O.co2     3 ASP3        0.0000 
     37 OD1        45.5100  -26.2400   84.3800 O.co2     3 ASP3        0.0000 
     38 OD1        45.5500  -23.3600   83.5700 O.co2     3 ASP3        0.0000 
     39 OD1        44.5200  -23.0500   84.6200 O.co2     3 ASP3        0.0000 
     40 OD1        50.7300  -25.7700   80.7700 O.co2     3 ASP3        0.0000 
     41 OD1        50.7500  -24.3200   80.3600 O.co2     3 ASP3        0.0000 
     42 OD1        49.7100  -25.4600   81.8200 O.co2     3 ASP3        0.0000 
     43 OD1        49.7200  -24.0200   81.4100 O.co2     3 ASP3        0.0000 
     44 OD1        47.6500  -24.8400   83.9100 O.co2     3 ASP3        0.0000 
     45 OD1        46.6100  -25.9800   85.3700 O.co2     3 ASP3        0.0000 
     46 OD1        46.6300  -24.5400   84.9600 O.co2     3 ASP3        0.0000 
     47 OD1        45.6200  -22.7800   85.6100 O.co2     3 ASP3        0.0000 
     48 OD1        49.7700  -24.8900   83.8600 O.co2     3 ASP3        0.0000 
     49 OD1        48.7300  -26.0200   85.3100 O.co2     3 ASP3        0.0000 
     50 OD1        48.7500  -24.5800   84.9100 O.co2     3 ASP3        0.0000 
     51 OD1        47.7400  -22.8300   85.5500 O.co2     3 ASP3        0.0000 
     52 NZ         44.4600  -23.6200   82.5700 N.4       4 LYS4        0.0000 
     53 NZ         48.7000  -23.7100   82.4600 N.4       4 LYS4        0.0000 
     54 NZ         47.6700  -23.4000   83.5100 N.4       4 LYS4        0.0000 
     55 NZ         46.5900  -27.4200   85.7700 N.4       4 LYS4        0.0000 
     56 NZ         45.5600  -27.1200   86.8200 N.4       4 LYS4        0.0000 
     57 NZ         45.5800  -25.6700   86.4200 N.4       4 LYS4        0.0000 
     58 NZ         50.8200  -23.7500   82.4000 N.4       4 LYS4        0.0000 
     59 NZ         50.8400  -22.3100   82.0000 N.4       4 LYS4        0.0000 
     60 NZ         49.7900  -23.4400   83.4500 N.4       4 LYS4        0.0000 
     61 NZ         48.7600  -23.1400   84.5000 N.4       4 LYS4        0.0000 
     62 NZ         47.7000  -25.7200   86.3600 N.4       4 LYS4        0.0000 
     63 NZ         46.6700  -25.4100   87.4100 N.4       4 LYS4        0.0000 
     64 NZ         46.6900  -23.9600   87.0100 N.4       4 LYS4        0.0000 
     65 NZ         45.6900  -22.2100   87.6500 N.4       4 LYS4        0.0000 
     66 NZ         50.8700  -24.6200   84.8500 N.4       4 LYS4        0.0000 
     67 NZ         49.8200  -25.7600   86.3000 N.4       4 LYS4        0.0000 
     68 NZ         48.7900  -25.4500   87.3500 N.4       4 LYS4        0.0000 
     69 NZ         48.8100  -24.0100   86.9500 N.4       4 LYS4        0.0000 
     70 NZ         48.8300  -22.5600   86.5400 N.4       4 LYS4        0.0000 
     71 CZ         41.1800  -24.4100   79.6000 C.ar      5 PHE5        0.0000 
     72 CZ         40.1700  -22.6600   80.2400 C.ar      5 PHE5        0.0000 
     73 CZ         41.2200  -25.2800   82.0400 C.ar      5 PHE5        0.0000 
     74 CZ         41.2400  -23.8400   81.6400 C.ar      5 PHE5        0.0000 
     75 CZ         40.2000  -24.9800   83.0900 C.ar      5 PHE5        0.0000 
     76 CZ         40.2200  -23.5300   82.6900 C.ar      5 PHE5        0.0000 
     77 CZ         39.1700  -24.6700   84.1400 C.ar      5 PHE5        0.0000 
     78 CA         42.2900  -22.7000   80.1800 C.3       6 GLY6        0.0000 
     79 CA         41.2600  -22.4000   81.2300 C.3       6 GLY6        0.0000 
     80 CA         40.2400  -22.0900   82.2800 C.3       6 GLY6        0.0000 
     81 CA         39.2100  -21.7800   83.3300 C.3       6 GLY6        0.0000 
     82 CA         39.2300  -20.3400   82.9300 C.3       6 GLY6        0.0000 
     83 CA         38.2000  -20.0300   83.9800 C.3       6 GLY6        0.0000 
     84 CA         43.3800  -22.4400   81.1800 C.3       6 GLY6        0.0000 
     85 CA         42.3600  -22.1300   82.2300 C.3       6 GLY6        0.0000 
     86 CA         42.3800  -20.6900   81.8200 C.3       6 GLY6        0.0000 
     87 CA         40.2500  -25.8500   85.5400 C.3       6 GLY6        0.0000 
     88 CA         40.2700  -24.4000   85.1400 C.3       6 GLY6        0.0000 
     89 CA         40.3400  -18.6300   83.5100 C.3       6 GLY6        0.0000 
     90 CA         39.3000  -19.7600   84.9700 C.3       6 GLY6        0.0000 
     91 CA         43.3700  -27.6400   84.8400 C.3       6 GLY6        0.0000 
     92 CA         42.3500  -27.3400   85.8900 C.3       6 GLY6        0.0000 
     93 CA         41.3400  -25.5800   86.5300 C.3       6 GLY6        0.0000 
     94 CA         41.3600  -24.1400   86.1300 C.3       6 GLY6        0.0000 
     95 CA         45.4900  -27.6900   84.7800 C.3       6 GLY6        0.0000 
     96 CA         44.4700  -27.3800   85.8300 C.3       6 GLY6        0.0000 
     97 CA         43.4400  -27.0700   86.8800 C.3       6 GLY6        0.0000 
     98 CA         43.4600  -25.6300   86.4800 C.3       6 GLY6        0.0000 
     99 CA         42.4500  -23.8800   87.1200 C.3       6 GLY6        0.0000 
    100 CA         42.4700  -22.4300   86.7100 C.3       6 GLY6        0.0000 
    101 CA         43.5500  -23.6100   88.1100 C.3       6 GLY6        0.0000 
    102 CA         43.5700  -22.1700   87.7100 C.3       6 GLY6        0.0000 
    103 CA         50.8900  -23.1800   84.4400 C.3       6 GLY6        0.0000 
    104 CA         49.8400  -24.3200   85.9000 C.3       6 GLY6        0.0000 
    105 CA         49.8600  -22.8700   85.4900 C.3       6 GLY6        0.0000 
    106 DU         42.2700  -24.1500   80.5900 H         7 CUB7        0.0000 
    107 DU         47.4300  -28.0100   78.1900 H         7 CUB7        0.0000 
    108 DU         43.3400  -25.3300   81.9900 H         7 CUB7        0.0000 
    109 DU         43.3600  -23.8800   81.5800 H         7 CUB7        0.0000 
    110 DU         42.3200  -25.0200   83.0400 H         7 CUB7        0.0000 
    111 DU         42.3400  -23.5800   82.6300 H         7 CUB7        0.0000 
    112 DU         41.2700  -26.1600   84.4900 H         7 CUB7        0.0000 
    113 DU         41.2900  -24.7100   84.0900 H         7 CUB7        0.0000 
    114 DU         41.3100  -23.2700   83.6800 H         7 CUB7        0.0000 
    115 DU         48.5400  -26.3000   78.7800 H         7 CUB7        0.0000 
    116 DU         44.4200  -26.5100   83.3800 H         7 CUB7        0.0000 
    117 DU         44.4400  -25.0600   82.9800 H         7 CUB7        0.0000 
    118 DU         43.3900  -26.2000   84.4300 H         7 CUB7        0.0000 
    119 DU         42.3700  -25.8900   85.4800 H         7 CUB7        0.0000 
    120 DU         42.3900  -24.4500   85.0800 H         7 CUB7        0.0000 
    121 DU         45.5300  -24.8000   83.9700 H         7 CUB7        0.0000 
    122 DU         44.4900  -25.9400   85.4300 H         7 CUB7        0.0000 
    123 DU         44.5100  -24.4900   85.0200 H         7 CUB7        0.0000 
    124 DU         43.4800  -24.1800   86.0700 H         7 CUB7        0.0000 
    125 DU         45.6000  -24.2300   86.0100 H         7 CUB7        0.0000 
    126 DU         44.5700  -23.9200   87.0600 H         7 CUB7        0.0000 
    127 DU         47.7200  -24.2700   85.9600 H         7 CUB7        0.0000 
@<TRIPOS>BOND
@<TRIPOS>SUBSTRUCTURE
     1 SER1        1 GROUP   
     2 ALA2        4 GROUP   
     3 ASP3       20 GROUP   
     4 LYS4       52 GROUP   
     5 PHE5       71 GROUP   
     6 GLY6       78 GROUP   
     7 CUB7      106 GROUP   
@<TRIPOS>SET

