#    Name: 6g31_2_ZOL
#    Modification time : Fri May 22 19:32:46 2020

@<TRIPOS>MOLECULE
6g31_2_ZOL
   16    16     1     0     0
SMALL
NO_CHARGES


@<TRIPOS>ATOM
      1 O17        14.9750  -19.8000   34.4340 O.co2     1 ZOL401      0.0000 
      2 P14        16.0690  -19.0330   33.7200 P.3       1 ZOL401      0.0000 
      3 O16        17.1060  -19.9490   33.0860 O.co2     1 ZOL401      0.0000 
      4 O15        15.4810  -18.1490   32.6290 O.co2     1 ZOL401      0.0000 
      5 C8         16.8520  -18.0650   35.0890 C.3       1 ZOL401      0.0000 
      6 P9         17.9360  -16.7740   34.3380 P.3       1 ZOL401      0.0000 
      7 O10        19.0490  -17.5230   33.6300 O.co2     1 ZOL401      0.0000 
      8 O11        18.4180  -15.8840   35.4640 O.co2     1 ZOL401      0.0000 
      9 O12        17.1890  -15.9300   33.3310 O.co2     1 ZOL401      0.0000 
     10 O13        17.6920  -18.8800   35.8560 O.3       1 ZOL401      0.0000 
     11 C7         15.7120  -17.4870   35.9060 C.3       1 ZOL401      0.0000 
     12 N15        16.1920  -16.9730   37.1800 N.pl3     1 ZOL401      0.0000 
     13 C16        16.6590  -17.6830   38.2270 C.2       1 ZOL401      0.0000 
     14 N17        16.9700  -16.8150   39.2100 N.2       1 ZOL401      0.0000 
     15 C18        16.6860  -15.5980   38.7980 C.2       1 ZOL401      0.0000 
     16 C19        16.2020  -15.6980   37.5300 C.2       1 ZOL401      0.0000 
@<TRIPOS>BOND
     1    1    2 ar   
     2    2    3 ar   
     3    2    4 ar   
     4    2    5 1    
     5    5    6 1    
     6    5   10 1    
     7    5   11 1    
     8    6    7 ar   
     9    6    8 ar   
    10    6    9 ar   
    11   11   12 1    
    12   12   13 1    
    13   12   16 1    
    14   13   14 2    
    15   14   15 1    
    16   15   16 2    
@<TRIPOS>SUBSTRUCTURE
     1 ZOL401      1 GROUP   
@<TRIPOS>SET

