#    Name: 6g31_2_ZOL_CAVITY_N1_6
#    Modification time : Fri May 22 19:32:47 2020

@<TRIPOS>MOLECULE
6g31_2_ZOL_CAVITY_N1_6
  124     0     7     0     0
SMALL
NO_CHARGES


@<TRIPOS>ATOM
      1 OG         12.4900  -23.1600   38.3100 O.3       1 SER1        0.0000 
      2 OG         12.5100  -21.7200   37.9000 O.3       1 SER1        0.0000 
      3 OG         13.5900  -22.9000   39.3000 O.3       1 SER1        0.0000 
      4 OG         14.7600  -16.8600   38.6700 O.3       1 SER1        0.0000 
      5 OG         14.7700  -15.4100   38.2700 O.3       1 SER1        0.0000 
      6 OG         15.8700  -15.1500   39.2600 O.3       1 SER1        0.0000 
      7 OG         14.8000  -17.7300   41.1200 O.3       1 SER1        0.0000 
      8 OG         14.8200  -16.2800   40.7100 O.3       1 SER1        0.0000 
      9 OG         14.8400  -14.8400   40.3100 O.3       1 SER1        0.0000 
     10 OG         18.9400  -21.2800   39.7700 O.3       1 SER1        0.0000 
     11 OG         18.9600  -19.8300   39.3700 O.3       1 SER1        0.0000 
     12 OG         17.8900  -22.4100   41.2300 O.3       1 SER1        0.0000 
     13 OG         17.9100  -20.9700   40.8200 O.3       1 SER1        0.0000 
     14 OG         17.9300  -19.5300   40.4200 O.3       1 SER1        0.0000 
     15 OG         17.9500  -18.0800   40.0100 O.3       1 SER1        0.0000 
     16 OG         16.8900  -20.6600   41.8700 O.3       1 SER1        0.0000 
     17 OG         16.9000  -19.2200   41.4700 O.3       1 SER1        0.0000 
     18 OG         15.8800  -18.9100   42.5200 O.3       1 SER1        0.0000 
     19 N          17.8000  -20.6700   36.3400 N.am      2 ALA2        0.0000 
     20 N          17.8200  -19.2300   35.9300 N.am      2 ALA2        0.0000 
     21 O          17.8300  -17.7800   35.5200 O.2       2 ALA2        0.0000 
     22 N          16.7700  -20.3600   37.3800 N.am      2 ALA2        0.0000 
     23 O          20.9800  -18.1300   34.4200 O.2       2 ALA2        0.0000 
     24 O          21.0000  -16.6900   34.0100 O.2       2 ALA2        0.0000 
     25 O          19.9700  -16.3800   35.0600 O.2       2 ALA2        0.0000 
     26 N          18.8700  -21.8500   37.7300 N.am      2 ALA2        0.0000 
     27 O          18.9300  -17.5200   36.5200 O.2       2 ALA2        0.0000 
     28 N          17.8600  -20.1000   38.3800 N.am      2 ALA2        0.0000 
     29 N          17.8800  -18.6500   37.9700 N.am      2 ALA2        0.0000 
     30 N          16.8900  -15.4600   38.2100 N.am      2 ALA2        0.0000 
     31 N          15.8900  -13.7100   38.8500 N.am      2 ALA2        0.0000 
     32 O          14.8800  -11.9500   39.5000 O.2       2 ALA2        0.0000 
     33 N          18.9800  -18.3900   38.9600 N.am      2 ALA2        0.0000 
     34 N          16.9200  -17.7700   41.0600 N.am      2 ALA2        0.0000 
     35 N          16.9400  -16.3300   40.6600 N.am      2 ALA2        0.0000 
     36 N          16.9600  -14.8900   40.2500 N.am      2 ALA2        0.0000 
     37 N          16.9800  -13.4400   39.8500 N.am      2 ALA2        0.0000 
     38 N          15.9000  -17.4600   42.1100 N.am      2 ALA2        0.0000 
     39 N          15.9200  -16.0200   41.7100 N.am      2 ALA2        0.0000 
     40 N          16.9700  -18.6400   43.5100 N.am      2 ALA2        0.0000 
     41 N          16.9900  -17.2000   43.1000 N.am      2 ALA2        0.0000 
     42 OD1        10.3200  -22.2500   35.9200 O.co2     3 ASP3        0.0000 
     43 OD1        11.4200  -21.9800   36.9100 O.co2     3 ASP3        0.0000 
     44 OD1        15.6100  -21.2000   34.3500 O.co2     3 ASP3        0.0000 
     45 OD1        14.5800  -20.8900   35.4000 O.co2     3 ASP3        0.0000 
     46 OD1        14.6000  -19.4500   35.0000 O.co2     3 ASP3        0.0000 
     47 OD1        14.6200  -18.0000   34.5900 O.co2     3 ASP3        0.0000 
     48 OD1        18.8100  -17.2200   32.0300 O.co2     3 ASP3        0.0000 
     49 OD1        17.7700  -18.3500   33.4800 O.co2     3 ASP3        0.0000 
     50 OD1        16.7000  -20.9300   35.3400 O.co2     3 ASP3        0.0000 
     51 OD1        16.7200  -19.4900   34.9400 O.co2     3 ASP3        0.0000 
     52 OD1        16.7400  -18.0500   34.5300 O.co2     3 ASP3        0.0000 
     53 OD1        19.8900  -18.4000   33.4300 O.co2     3 ASP3        0.0000 
     54 OD1        19.9100  -16.9500   33.0200 O.co2     3 ASP3        0.0000 
     55 OD1        19.9300  -15.5100   32.6100 O.co2     3 ASP3        0.0000 
     56 OD1        18.8400  -19.5300   34.8800 O.co2     3 ASP3        0.0000 
     57 OD1        18.8600  -18.0900   34.4700 O.co2     3 ASP3        0.0000 
     58 OD1        18.8800  -16.6500   34.0700 O.co2     3 ASP3        0.0000 
     59 OD1        18.9500  -16.0700   36.1100 O.co2     3 ASP3        0.0000 
     60 NZ         15.7100  -17.7400   35.5800 N.4       4 LYS4        0.0000 
     61 NZ         20.9300  -17.2600   31.9700 N.4       4 LYS4        0.0000 
     62 NZ         16.8300  -16.0300   36.1700 N.4       4 LYS4        0.0000 
     63 NZ         15.8000  -15.7200   37.2200 N.4       4 LYS4        0.0000 
     64 NZ         22.0300  -17.0000   32.9600 N.4       4 LYS4        0.0000 
     65 NZ         22.0500  -15.5500   32.5600 N.4       4 LYS4        0.0000 
     66 CZ         16.6800  -22.3800   35.7500 C.ar      5 PHE5        0.0000 
     67 CZ         15.6600  -22.0700   36.8000 C.ar      5 PHE5        0.0000 
     68 CZ         14.6100  -23.2100   38.2500 C.ar      5 PHE5        0.0000 
     69 CZ         13.6000  -21.4500   38.9000 C.ar      5 PHE5        0.0000 
     70 CZ         13.6200  -20.0100   38.4900 C.ar      5 PHE5        0.0000 
     71 CZ         16.7500  -21.8100   37.7900 C.ar      5 PHE5        0.0000 
     72 CZ         15.7100  -22.9400   39.2500 C.ar      5 PHE5        0.0000 
     73 CZ         14.6800  -22.6300   40.2900 C.ar      5 PHE5        0.0000 
     74 CZ         14.7000  -21.1900   39.8900 C.ar      5 PHE5        0.0000 
     75 CZ         14.7200  -19.7500   39.4800 C.ar      5 PHE5        0.0000 
     76 CZ         14.7400  -18.3000   39.0800 C.ar      5 PHE5        0.0000 
     77 CZ         17.8300  -22.9900   39.1900 C.ar      5 PHE5        0.0000 
     78 CZ         17.8400  -21.5400   38.7800 C.ar      5 PHE5        0.0000 
     79 CZ         16.8000  -22.6800   40.2400 C.ar      5 PHE5        0.0000 
     80 CZ         15.7900  -20.9300   40.8800 C.ar      5 PHE5        0.0000 
     81 CZ         15.8100  -19.4800   40.4800 C.ar      5 PHE5        0.0000 
     82 CZ         15.8300  -18.0400   40.0700 C.ar      5 PHE5        0.0000 
     83 CZ         14.7700  -20.6200   41.9300 C.ar      5 PHE5        0.0000 
     84 CZ         15.8600  -20.3500   42.9200 C.ar      5 PHE5        0.0000 
     85 CZ         16.9500  -20.0900   43.9100 C.ar      5 PHE5        0.0000 
     86 CA         11.4400  -20.5400   36.5100 C.3       6 GLY6        0.0000 
     87 CA         13.5600  -20.5800   36.4500 C.3       6 GLY6        0.0000 
     88 CA         12.5300  -20.2700   37.5000 C.3       6 GLY6        0.0000 
     89 CA         14.6500  -20.3200   37.4400 C.3       6 GLY6        0.0000 
     90 CA         14.6700  -18.8700   37.0400 C.3       6 GLY6        0.0000 
     91 CA         14.6900  -17.4300   36.6300 C.3       6 GLY6        0.0000 
     92 CA         14.7100  -15.9900   36.2300 C.3       6 GLY6        0.0000 
     93 CA         20.9500  -15.8200   31.5700 C.3       6 GLY6        0.0000 
     94 CA         14.7900  -13.9700   37.8600 C.3       6 GLY6        0.0000 
     95 CA         17.9000  -17.2100   37.5700 C.3       6 GLY6        0.0000 
     96 CA         17.9200  -15.7700   37.1600 C.3       6 GLY6        0.0000 
     97 CA         14.8600  -13.4000   39.9000 C.3       6 GLY6        0.0000 
     98 CA         18.9200  -22.7200   40.1800 C.3       6 GLY6        0.0000 
     99 CA         17.9700  -16.6400   39.6100 C.3       6 GLY6        0.0000 
    100 CA         15.9400  -14.5800   41.3000 C.3       6 GLY6        0.0000 
    101 CA         15.9500  -13.1300   40.9000 C.3       6 GLY6        0.0000 
    102 CA         14.8500  -18.6000   43.5700 C.3       6 GLY6        0.0000 
    103 CA         14.8700  -17.1600   43.1600 C.3       6 GLY6        0.0000 
    104 DU         11.3300  -24.0000   35.2800 H         7 CUB7        0.0000 
    105 DU         12.4200  -23.7300   36.2700 H         7 CUB7        0.0000 
    106 DU         11.4000  -23.4300   37.3200 H         7 CUB7        0.0000 
    107 DU         14.5600  -22.3300   35.8100 H         7 CUB7        0.0000 
    108 DU         13.5200  -23.4700   37.2600 H         7 CUB7        0.0000 
    109 DU         13.5400  -22.0300   36.8600 H         7 CUB7        0.0000 
    110 DU         15.6800  -20.6300   36.3900 H         7 CUB7        0.0000 
    111 DU         15.7000  -19.1800   35.9900 H         7 CUB7        0.0000 
    112 DU         14.6300  -21.7600   37.8500 H         7 CUB7        0.0000 
    113 DU         16.7900  -18.9200   36.9800 H         7 CUB7        0.0000 
    114 DU         16.8100  -17.4700   36.5700 H         7 CUB7        0.0000 
    115 DU         15.7200  -21.5000   38.8400 H         7 CUB7        0.0000 
    116 DU         15.7400  -20.0500   38.4300 H         7 CUB7        0.0000 
    117 DU         15.7600  -18.6100   38.0300 H         7 CUB7        0.0000 
    118 DU         15.7800  -17.1700   37.6200 H         7 CUB7        0.0000 
    119 DU         16.8200  -21.2300   39.8300 H         7 CUB7        0.0000 
    120 DU         16.8400  -19.7900   39.4300 H         7 CUB7        0.0000 
    121 DU         16.8600  -18.3500   39.0200 H         7 CUB7        0.0000 
    122 DU         16.8800  -16.9000   38.6200 H         7 CUB7        0.0000 
    123 DU         15.7700  -22.3700   41.2900 H         7 CUB7        0.0000 
    124 DU         15.8500  -16.5900   39.6600 H         7 CUB7        0.0000 
@<TRIPOS>BOND
@<TRIPOS>SUBSTRUCTURE
     1 SER1        1 GROUP   
     2 ALA2       19 GROUP   
     3 ASP3       42 GROUP   
     4 LYS4       60 GROUP   
     5 PHE5       66 GROUP   
     6 GLY6       86 GROUP   
     7 CUB7      104 GROUP   
@<TRIPOS>SET

