#    Name: 6g31_7_ZOL
#    Modification time : Fri May 22 19:33:03 2020

@<TRIPOS>MOLECULE
6g31_7_ZOL
   16    16     1     0     0
SMALL
NO_CHARGES


@<TRIPOS>ATOM
      1 O17       -27.5660   12.3450   81.0480 O.co2     1 ZOL401      0.0000 
      2 P14       -28.5360   11.3590   81.6780 P.3       1 ZOL401      0.0000 
      3 O16       -29.7850   12.0660   82.1900 O.co2     1 ZOL401      0.0000 
      4 O15       -28.8840   10.2750   80.6760 O.co2     1 ZOL401      0.0000 
      5 C8        -27.6920   10.5500   83.1200 C.3       1 ZOL401      0.0000 
      6 P9        -28.9050    9.4220   83.9710 P.3       1 ZOL401      0.0000 
      7 O10       -30.1780   10.1840   84.2950 O.co2     1 ZOL401      0.0000 
      8 O11       -28.2790    8.8700   85.2270 O.co2     1 ZOL401      0.0000 
      9 O12       -29.1680    8.2720   83.0380 O.co2     1 ZOL401      0.0000 
     10 O13       -27.1950   11.5310   84.0030 O.3       1 ZOL401      0.0000 
     11 C7        -26.5790    9.7010   82.5160 C.3       1 ZOL401      0.0000 
     12 N15       -25.9460    8.8940   83.5420 N.pl3     1 ZOL401      0.0000 
     13 C16       -25.3100    9.3520   84.6320 C.2       1 ZOL401      0.0000 
     14 N17       -24.8570    8.2870   85.3140 N.2       1 ZOL401      0.0000 
     15 C18       -25.1960    7.1970   84.6590 C.2       1 ZOL401      0.0000 
     16 C19       -25.8800    7.5820   83.5490 C.2       1 ZOL401      0.0000 
@<TRIPOS>BOND
     1    1    2 ar   
     2    2    3 ar   
     3    2    4 ar   
     4    2    5 1    
     5    5    6 1    
     6    5   10 1    
     7    5   11 1    
     8    6    7 ar   
     9    6    8 ar   
    10    6    9 ar   
    11   11   12 1    
    12   12   13 1    
    13   12   16 1    
    14   13   14 2    
    15   14   15 1    
    16   15   16 2    
@<TRIPOS>SUBSTRUCTURE
     1 ZOL401      1 GROUP   
@<TRIPOS>SET

