#    Name: 6g31_9_ZOL_CAVITY_N1_4
#    Modification time : Fri May 22 19:33:09 2020

@<TRIPOS>MOLECULE
6g31_9_ZOL_CAVITY_N1_4
   80     0     7     0     0
SMALL
NO_CHARGES


@<TRIPOS>ATOM
      1 OG         37.9800  -16.9700   -5.0400 O.3       1 SER1        0.0000 
      2 O          34.5900  -21.2300   -9.2500 O.2       2 ALA2        0.0000 
      3 O          33.5700  -20.9200   -8.2000 O.2       2 ALA2        0.0000 
      4 O          32.5600  -19.1700   -7.5500 O.2       2 ALA2        0.0000 
      5 O          35.6900  -20.9600   -8.2600 O.2       2 ALA2        0.0000 
      6 O          35.7100  -19.5200   -8.6600 O.2       2 ALA2        0.0000 
      7 O          34.6800  -19.2100   -7.6100 O.2       2 ALA2        0.0000 
      8 N          36.8600  -14.9200   -8.8900 N.am      2 ALA2        0.0000 
      9 N          38.9600  -16.4100   -8.5400 N.am      2 ALA2        0.0000 
     10 N          37.9300  -16.1000   -7.4900 N.am      2 ALA2        0.0000 
     11 N          35.8800  -15.4800   -5.3900 N.am      2 ALA2        0.0000 
     12 N          35.9000  -14.0400   -5.7900 N.am      2 ALA2        0.0000 
     13 N          34.8900  -12.2900   -5.1500 N.am      2 ALA2        0.0000 
     14 OD1        32.5800  -17.7200   -7.9600 O.co2     3 ASP3        0.0000 
     15 OD1        32.6000  -16.2800   -8.3700 O.co2     3 ASP3        0.0000 
     16 OD1        31.5300  -18.8600   -6.5000 O.co2     3 ASP3        0.0000 
     17 OD1        31.5500  -17.4100   -6.9100 O.co2     3 ASP3        0.0000 
     18 OD1        34.7000  -17.7700   -8.0200 O.co2     3 ASP3        0.0000 
     19 OD1        33.6300  -20.3400   -6.1600 O.co2     3 ASP3        0.0000 
     20 OD1        33.6700  -17.4600   -6.9700 O.co2     3 ASP3        0.0000 
     21 OD1        33.6900  -16.0100   -7.3700 O.co2     3 ASP3        0.0000 
     22 OD1        32.6100  -20.0400   -5.1100 O.co2     3 ASP3        0.0000 
     23 OD1        32.7000  -12.8200   -7.1300 O.co2     3 ASP3        0.0000 
     24 OD1        31.5800  -19.7300   -4.0600 O.co2     3 ASP3        0.0000 
     25 OD1        30.5500  -19.4200   -3.0100 O.co2     3 ASP3        0.0000 
     26 NZ         32.6300  -18.5900   -5.5100 N.4       4 LYS4        0.0000 
     27 NZ         32.6500  -17.1500   -5.9200 N.4       4 LYS4        0.0000 
     28 NZ         31.6000  -18.2800   -4.4600 N.4       4 LYS4        0.0000 
     29 NZ         34.8000  -14.3000   -6.7900 N.4       4 LYS4        0.0000 
     30 NZ         33.7200  -18.3300   -4.5200 N.4       4 LYS4        0.0000 
     31 NZ         33.7400  -16.8800   -4.9300 N.4       4 LYS4        0.0000 
     32 NZ         33.7800  -14.0000   -5.7400 N.4       4 LYS4        0.0000 
     33 NZ         33.8000  -12.5500   -6.1400 N.4       4 LYS4        0.0000 
     34 NZ         32.6700  -19.4600   -3.0700 N.4       4 LYS4        0.0000 
     35 NZ         32.6900  -18.0200   -3.4700 N.4       4 LYS4        0.0000 
     36 NZ         34.8300  -16.6200   -3.9300 N.4       4 LYS4        0.0000 
     37 NZ         33.8100  -16.3100   -2.8800 N.4       4 LYS4        0.0000 
     38 CZ         37.8900  -18.9900   -6.6800 C.ar      5 PHE5        0.0000 
     39 CZ         36.8700  -18.6800   -5.6300 C.ar      5 PHE5        0.0000 
     40 CZ         36.8900  -17.2400   -6.0300 C.ar      5 PHE5        0.0000 
     41 CA         35.7300  -18.0700   -9.0700 C.3       6 GLY6        0.0000 
     42 CA         34.7200  -16.3200   -8.4200 C.3       6 GLY6        0.0000 
     43 CA         33.7100  -14.5700   -7.7800 C.3       6 GLY6        0.0000 
     44 CA         33.7300  -13.1200   -8.1800 C.3       6 GLY6        0.0000 
     45 CA         37.8300  -19.5600   -8.7200 C.3       6 GLY6        0.0000 
     46 CA         37.8500  -18.1200   -9.1200 C.3       6 GLY6        0.0000 
     47 CA         36.8000  -19.2500   -7.6700 C.3       6 GLY6        0.0000 
     48 CA         36.8200  -17.8100   -8.0700 C.3       6 GLY6        0.0000 
     49 CA         36.8400  -16.3700   -8.4800 C.3       6 GLY6        0.0000 
     50 CA         35.8100  -16.0600   -7.4300 C.3       6 GLY6        0.0000 
     51 CA         35.8300  -14.6100   -7.8400 C.3       6 GLY6        0.0000 
     52 CA         35.8500  -13.1700   -8.2400 C.3       6 GLY6        0.0000 
     53 CA         34.8200  -12.8600   -7.1900 C.3       6 GLY6        0.0000 
     54 CA         38.9400  -17.8500   -8.1300 C.3       6 GLY6        0.0000 
     55 CA         37.9500  -14.6600   -7.8900 C.3       6 GLY6        0.0000 
     56 CA         36.9200  -14.3500   -6.8400 C.3       6 GLY6        0.0000 
     57 CA         35.8200  -19.8200   -4.1700 C.3       6 GLY6        0.0000 
     58 CA         35.8400  -18.3700   -4.5800 C.3       6 GLY6        0.0000 
     59 CA         35.9200  -12.6000   -6.2000 C.3       6 GLY6        0.0000 
     60 CA         34.8100  -18.0600   -3.5300 C.3       6 GLY6        0.0000 
     61 CA         34.8500  -15.1800   -4.3400 C.3       6 GLY6        0.0000 
     62 CA         33.7700  -19.2000   -2.0700 C.3       6 GLY6        0.0000 
     63 CA         39.0300  -15.8400   -6.5000 C.3       6 GLY6        0.0000 
     64 CA         38.0000  -15.5300   -5.4500 C.3       6 GLY6        0.0000 
     65 CA         36.9500  -16.6600   -3.9900 C.3       6 GLY6        0.0000 
     66 CA         36.9700  -15.2200   -4.4000 C.3       6 GLY6        0.0000 
     67 DU         34.6600  -20.6500   -7.2100 H         7 CUB7        0.0000 
     68 DU         33.6500  -18.9000   -6.5600 H         7 CUB7        0.0000 
     69 DU         36.7800  -20.7000   -7.2600 H         7 CUB7        0.0000 
     70 DU         35.7500  -20.3900   -6.2100 H         7 CUB7        0.0000 
     71 DU         35.7700  -18.9500   -6.6200 H         7 CUB7        0.0000 
     72 DU         35.7900  -17.5000   -7.0300 H         7 CUB7        0.0000 
     73 DU         34.7300  -20.0800   -5.1600 H         7 CUB7        0.0000 
     74 DU         34.7500  -18.6400   -5.5700 H         7 CUB7        0.0000 
     75 DU         34.7700  -17.1900   -5.9800 H         7 CUB7        0.0000 
     76 DU         34.7800  -15.7500   -6.3800 H         7 CUB7        0.0000 
     77 DU         33.7000  -19.7700   -4.1200 H         7 CUB7        0.0000 
     78 DU         37.9100  -17.5500   -7.0800 H         7 CUB7        0.0000 
     79 DU         36.9000  -15.7900   -6.4400 H         7 CUB7        0.0000 
     80 DU         35.8600  -16.9300   -4.9800 H         7 CUB7        0.0000 
@<TRIPOS>BOND
@<TRIPOS>SUBSTRUCTURE
     1 SER1        1 GROUP   
     2 ALA2        2 GROUP   
     3 ASP3       14 GROUP   
     4 LYS4       26 GROUP   
     5 PHE5       38 GROUP   
     6 GLY6       41 GROUP   
     7 CUB7       67 GROUP   
@<TRIPOS>SET

