#    Name: 6g31_6_ZOL_CAVITY_N1_4
#    Modification time : Fri May 22 19:33:00 2020

@<TRIPOS>MOLECULE
6g31_6_ZOL_CAVITY_N1_4
  141     0     7     0     0
SMALL
NO_CHARGES


@<TRIPOS>ATOM
      1 OG        -20.1900  -17.2200    2.4500 O.3       1 SER1        0.0000 
      2 OG        -21.2400  -18.3500    3.9100 O.3       1 SER1        0.0000 
      3 OG        -21.1800  -14.0200    2.6900 O.3       1 SER1        0.0000 
      4 OG        -22.2500  -16.6000    4.5500 O.3       1 SER1        0.0000 
      5 OG        -18.0700  -17.2600    2.3900 O.3       1 SER1        0.0000 
      6 OG        -19.1000  -16.9500    3.4400 O.3       1 SER1        0.0000 
      7 OG        -19.0800  -15.5100    3.0400 O.3       1 SER1        0.0000 
      8 OG        -19.0600  -14.0700    2.6300 O.3       1 SER1        0.0000 
      9 OG        -20.1600  -19.5300    5.3000 O.3       1 SER1        0.0000 
     10 OG        -20.1400  -18.0900    4.9000 O.3       1 SER1        0.0000 
     11 OG        -20.0900  -13.7600    3.6800 O.3       1 SER1        0.0000 
     12 OG        -20.0700  -12.3100    3.2800 O.3       1 SER1        0.0000 
     13 OG        -21.1700  -17.7800    5.9500 O.3       1 SER1        0.0000 
     14 OG        -21.1500  -16.3400    5.5400 O.3       1 SER1        0.0000 
     15 N         -22.2300  -15.1600    4.1500 N.am      2 ALA2        0.0000 
     16 N         -21.1300  -14.8900    5.1400 N.am      2 ALA2        0.0000 
     17 O         -19.0500  -17.8300    5.8900 O.2       2 ALA2        0.0000 
     18 O         -18.9900  -13.4900    4.6700 O.2       2 ALA2        0.0000 
     19 O         -20.1000  -18.9600    7.3500 O.2       2 ALA2        0.0000 
     20 O         -20.0800  -17.5200    6.9400 O.2       2 ALA2        0.0000 
     21 O         -20.0600  -16.0700    6.5300 O.2       2 ALA2        0.0000 
     22 O         -20.0400  -14.6300    6.1300 O.2       2 ALA2        0.0000 
     23 O         -20.0200  -13.1800    5.7200 O.2       2 ALA2        0.0000 
     24 O         -21.0900  -15.7600    7.5800 O.2       2 ALA2        0.0000 
     25 N         -17.9800  -19.0100    7.2900 N.am      2 ALA2        0.0000 
     26 O         -17.9600  -17.5600    6.8800 O.2       2 ALA2        0.0000 
     27 O         -18.9700  -15.8100    7.5300 O.2       2 ALA2        0.0000 
     28 O         -18.9500  -14.3600    7.1200 O.2       2 ALA2        0.0000 
     29 O         -19.9700  -14.0600    8.1700 O.2       2 ALA2        0.0000 
     30 O         -17.8700  -15.5400    8.5200 O.2       2 ALA2        0.0000 
     31 O         -18.9000  -15.2400    9.5700 O.2       2 ALA2        0.0000 
     32 O         -18.8600  -12.3500    8.7600 O.2       2 ALA2        0.0000 
     33 O         -19.9200  -14.9300   10.6200 O.2       2 ALA2        0.0000 
     34 N         -18.8500  -16.1100   12.0200 N.am      2 ALA2        0.0000 
     35 N         -10.5200  -18.8700    8.1100 N.am      2 ALA2        0.0000 
     36 OD1       -14.9500  -19.0600    1.6900 O.co2     3 ASP3        0.0000 
     37 OD1       -15.9700  -18.7500    2.7400 O.co2     3 ASP3        0.0000 
     38 OD1       -14.8800  -18.4900    3.7300 O.co2     3 ASP3        0.0000 
     39 OD1       -14.8600  -17.0400    3.3300 O.co2     3 ASP3        0.0000 
     40 OD1       -13.7800  -18.2200    4.7300 O.co2     3 ASP3        0.0000 
     41 OD1       -14.8300  -19.3600    6.1800 O.co2     3 ASP3        0.0000 
     42 OD1       -14.8100  -17.9100    5.7800 O.co2     3 ASP3        0.0000 
     43 OD1       -14.7900  -16.4700    5.3700 O.co2     3 ASP3        0.0000 
     44 OD1       -15.8600  -19.0500    7.2300 O.co2     3 ASP3        0.0000 
     45 OD1       -15.8400  -17.6100    6.8300 O.co2     3 ASP3        0.0000 
     46 OD1       -15.8200  -16.1600    6.4200 O.co2     3 ASP3        0.0000 
     47 OD1       -16.8600  -17.3000    7.8800 O.co2     3 ASP3        0.0000 
     48 OD1       -16.8500  -15.8500    7.4700 O.co2     3 ASP3        0.0000 
     49 OD1       -12.6900  -17.9600    5.7200 O.co2     3 ASP3        0.0000 
     50 OD1       -13.7400  -19.0900    7.1700 O.co2     3 ASP3        0.0000 
     51 OD1       -13.7200  -17.6500    6.7700 O.co2     3 ASP3        0.0000 
     52 OD1       -14.7200  -15.9000    7.4100 O.co2     3 ASP3        0.0000 
     53 OD1       -15.7500  -15.5900    8.4600 O.co2     3 ASP3        0.0000 
     54 OD1       -15.7300  -14.1400    8.0600 O.co2     3 ASP3        0.0000 
     55 OD1       -16.8000  -16.7200    9.9200 O.co2     3 ASP3        0.0000 
     56 OD1       -16.7800  -15.2800    9.5100 O.co2     3 ASP3        0.0000 
     57 OD1       -16.7600  -13.8400    9.1100 O.co2     3 ASP3        0.0000 
     58 OD1       -10.5700  -18.0000    5.6600 O.co2     3 ASP3        0.0000 
     59 OD1       -10.5500  -16.5600    5.2600 O.co2     3 ASP3        0.0000 
     60 OD1       -11.6000  -17.6900    6.7100 O.co2     3 ASP3        0.0000 
     61 OD1       -11.5800  -16.2500    6.3100 O.co2     3 ASP3        0.0000 
     62 OD1       -12.6600  -20.2700    8.5700 O.co2     3 ASP3        0.0000 
     63 OD1       -12.6400  -18.8300    8.1700 O.co2     3 ASP3        0.0000 
     64 OD1       -12.6200  -17.3900    7.7600 O.co2     3 ASP3        0.0000 
     65 OD1       -13.6300  -15.6300    8.4000 O.co2     3 ASP3        0.0000 
     66 OD1       -14.6600  -15.3200    9.4500 O.co2     3 ASP3        0.0000 
     67 OD1       -15.7000  -16.4600   10.9100 O.co2     3 ASP3        0.0000 
     68 OD1       -15.6800  -15.0200   10.5000 O.co2     3 ASP3        0.0000 
     69 OD1       -10.4800  -15.9900    7.3000 O.co2     3 ASP3        0.0000 
     70 OD1       -11.5100  -15.6800    8.3500 O.co2     3 ASP3        0.0000 
     71 OD1       -14.6100  -16.2000   11.9000 O.co2     3 ASP3        0.0000 
     72 OD1       -14.5700  -13.3100   11.0900 O.co2     3 ASP3        0.0000 
     73 NZ        -16.8900  -14.9800    5.0200 N.4       4 LYS4        0.0000 
     74 NZ        -16.8700  -13.5400    4.6200 N.4       4 LYS4        0.0000 
     75 NZ        -17.9200  -14.6700    6.0700 N.4       4 LYS4        0.0000 
     76 NZ        -17.9000  -13.2300    5.6700 N.4       4 LYS4        0.0000 
     77 NZ        -14.7700  -15.0300    4.9700 N.4       4 LYS4        0.0000 
     78 NZ        -15.8000  -14.7200    6.0100 N.4       4 LYS4        0.0000 
     79 NZ        -16.8300  -14.4100    7.0600 N.4       4 LYS4        0.0000 
     80 NZ        -17.8500  -14.1000    8.1100 N.4       4 LYS4        0.0000 
     81 NZ        -18.8800  -13.7900    9.1600 N.4       4 LYS4        0.0000 
     82 NZ        -17.8000  -14.9700   10.5600 N.4       4 LYS4        0.0000 
     83 NZ        -17.7900  -13.5300   10.1600 N.4       4 LYS4        0.0000 
     84 NZ        -18.8300  -14.6600   11.6100 N.4       4 LYS4        0.0000 
     85 NZ        -16.7300  -16.1500   11.9600 N.4       4 LYS4        0.0000 
     86 NZ        -16.7100  -14.7100   11.5500 N.4       4 LYS4        0.0000 
     87 NZ        -17.7400  -14.4000   12.6000 N.4       4 LYS4        0.0000 
     88 NZ        -10.5000  -17.4300    7.7000 N.4       4 LYS4        0.0000 
     89 NZ        -11.5500  -18.5700    9.1600 N.4       4 LYS4        0.0000 
     90 NZ        -11.5300  -17.1200    8.7500 N.4       4 LYS4        0.0000 
     91 NZ        -12.5400  -15.3700    9.4000 N.4       4 LYS4        0.0000 
     92 NZ        -13.5600  -15.0600   10.4500 N.4       4 LYS4        0.0000 
     93 NZ        -14.5900  -14.7500   11.5000 N.4       4 LYS4        0.0000 
     94 NZ        -15.6400  -15.8900   12.9500 N.4       4 LYS4        0.0000 
     95 NZ        -15.6200  -14.4400   12.5400 N.4       4 LYS4        0.0000 
     96 NZ        -11.4400  -15.1000   10.3900 N.4       4 LYS4        0.0000 
     97 NZ        -12.4700  -14.8000   11.4400 N.4       4 LYS4        0.0000 
     98 CZ        -20.1700  -15.7700    2.0500 C.ar      5 PHE5        0.0000 
     99 CZ        -21.2200  -16.9100    3.5000 C.ar      5 PHE5        0.0000 
    100 CZ        -21.2000  -15.4700    3.1000 C.ar      5 PHE5        0.0000 
    101 CZ        -18.0400  -19.5800    5.2500 C.ar      5 PHE5        0.0000 
    102 CZ        -19.0700  -19.2700    6.3000 C.ar      5 PHE5        0.0000 
    103 CZ        -15.9400  -21.0700    5.5900 C.ar      5 PHE5        0.0000 
    104 CZ        -16.9500  -19.3100    6.2400 C.ar      5 PHE5        0.0000 
    105 CZ        -14.8500  -20.8000    6.5900 C.ar      5 PHE5        0.0000 
    106 CA        -23.3200  -15.4200    3.1500 C.3       6 GLY6        0.0000 
    107 CA        -22.2100  -13.7100    3.7400 C.3       6 GLY6        0.0000 
    108 CA        -18.0500  -15.8200    1.9900 C.3       6 GLY6        0.0000 
    109 CA        -21.1100  -13.4500    4.7300 C.3       6 GLY6        0.0000 
    110 CA        -21.1000  -12.0000    4.3300 C.3       6 GLY6        0.0000 
    111 CA        -15.9500  -17.3100    2.3400 C.3       6 GLY6        0.0000 
    112 CA        -16.9800  -17.0000    3.3900 C.3       6 GLY6        0.0000 
    113 CA        -16.9600  -15.5500    2.9800 C.3       6 GLY6        0.0000 
    114 CA        -16.9400  -14.1100    2.5800 C.3       6 GLY6        0.0000 
    115 CA        -17.9700  -13.8000    3.6300 C.3       6 GLY6        0.0000 
    116 CA        -17.9500  -12.3600    3.2200 C.3       6 GLY6        0.0000 
    117 CA        -21.0700  -14.3200    7.1800 C.3       6 GLY6        0.0000 
    118 CA        -15.8900  -16.7300    4.3800 C.3       6 GLY6        0.0000 
    119 CA        -15.8700  -15.2900    3.9700 C.3       6 GLY6        0.0000 
    120 CA        -15.8500  -13.8500    3.5700 C.3       6 GLY6        0.0000 
    121 CA        -19.9100  -13.4800   10.2100 C.3       6 GLY6        0.0000 
    122 CA        -13.5000  -14.4900   12.4900 C.3       6 GLY6        0.0000 
    123 DU        -19.1200  -18.4000    3.8500 H         7 CUB7        0.0000 
    124 DU        -20.1300  -16.6500    4.4900 H         7 CUB7        0.0000 
    125 DU        -20.1100  -15.2000    4.0900 H         7 CUB7        0.0000 
    126 DU        -15.9900  -20.1900    3.1500 H         7 CUB7        0.0000 
    127 DU        -17.0200  -19.8900    4.2000 H         7 CUB7        0.0000 
    128 DU        -17.0000  -18.4400    3.7900 H         7 CUB7        0.0000 
    129 DU        -18.0100  -16.6900    4.4400 H         7 CUB7        0.0000 
    130 DU        -17.9900  -15.2500    4.0300 H         7 CUB7        0.0000 
    131 DU        -19.0300  -16.3800    5.4900 H         7 CUB7        0.0000 
    132 DU        -19.0100  -14.9400    5.0800 H         7 CUB7        0.0000 
    133 DU        -14.9000  -19.9300    4.1400 H         7 CUB7        0.0000 
    134 DU        -15.9200  -19.6200    5.1900 H         7 CUB7        0.0000 
    135 DU        -15.9000  -18.1800    4.7800 H         7 CUB7        0.0000 
    136 DU        -16.9300  -17.8700    5.8300 H         7 CUB7        0.0000 
    137 DU        -16.9100  -16.4300    5.4300 H         7 CUB7        0.0000 
    138 DU        -17.9400  -16.1200    6.4800 H         7 CUB7        0.0000 
    139 DU        -12.7100  -19.4000    6.1200 H         7 CUB7        0.0000 
    140 DU        -11.6400  -20.5800    7.5200 H         7 CUB7        0.0000 
    141 DU        -11.6200  -19.1400    7.1200 H         7 CUB7        0.0000 
@<TRIPOS>BOND
@<TRIPOS>SUBSTRUCTURE
     1 SER1        1 GROUP   
     2 ALA2       15 GROUP   
     3 ASP3       36 GROUP   
     4 LYS4       73 GROUP   
     5 PHE5       98 GROUP   
     6 GLY6      106 GROUP   
     7 CUB7      123 GROUP   
@<TRIPOS>SET

