#    Name: 6g31_4_ZOL
#    Modification time : Fri May 22 19:32:52 2020

@<TRIPOS>MOLECULE
6g31_4_ZOL
   16    16     1     0     0
SMALL
NO_CHARGES


@<TRIPOS>ATOM
      1 O17        62.3170  -20.6110   43.5320 O.co2     1 ZOL401      0.0000 
      2 P14        61.4850  -21.5190   42.6320 P.3       1 ZOL401      0.0000 
      3 O16        60.5310  -22.3520   43.4760 O.co2     1 ZOL401      0.0000 
      4 O15        62.3850  -22.4200   41.8010 O.co2     1 ZOL401      0.0000 
      5 C8         60.4920  -20.4770   41.4520 C.3       1 ZOL401      0.0000 
      6 P9         59.3500  -19.5760   42.6010 P.3       1 ZOL401      0.0000 
      7 O10        60.2400  -18.8380   43.5570 O.co2     1 ZOL401      0.0000 
      8 O11        58.5860  -20.6180   43.3980 O.co2     1 ZOL401      0.0000 
      9 O12        58.4510  -18.6280   41.8170 O.co2     1 ZOL401      0.0000 
     10 O13        59.7760  -21.2620   40.5230 O.3       1 ZOL401      0.0000 
     11 C7         61.4760  -19.5150   40.7760 C.3       1 ZOL401      0.0000 
     12 N15        61.1690  -19.1080   39.4010 N.pl3     1 ZOL401      0.0000 
     13 C16        61.1250  -19.8930   38.3050 C.2       1 ZOL401      0.0000 
     14 N17        60.8460  -19.0910   37.2700 N.2       1 ZOL401      0.0000 
     15 C18        60.7280  -17.8470   37.6920 C.2       1 ZOL401      0.0000 
     16 C19        60.9430  -17.8570   39.0290 C.2       1 ZOL401      0.0000 
@<TRIPOS>BOND
     1    1    2 ar   
     2    2    3 ar   
     3    2    4 ar   
     4    2    5 1    
     5    5    6 1    
     6    5   10 1    
     7    5   11 1    
     8    6    7 ar   
     9    6    8 ar   
    10    6    9 ar   
    11   11   12 1    
    12   12   13 1    
    13   12   16 1    
    14   13   14 2    
    15   14   15 1    
    16   15   16 2    
@<TRIPOS>SUBSTRUCTURE
     1 ZOL401      1 GROUP   
@<TRIPOS>SET

