#    Name: 6g31_5_ZOL
#    Modification time : Fri May 22 19:32:56 2020

@<TRIPOS>MOLECULE
6g31_5_ZOL
   16    16     1     0     0
SMALL
NO_CHARGES


@<TRIPOS>ATOM
      1 O17       -11.0440   12.9950   -2.4040 O.co2     1 ZOL401      0.0000 
      2 P14       -11.5850   14.1400   -3.2570 P.3       1 ZOL401      0.0000 
      3 O16       -12.5410   14.9900   -2.4380 O.co2     1 ZOL401      0.0000 
      4 O15       -10.4640   15.0170   -3.8080 O.co2     1 ZOL401      0.0000 
      5 C8        -12.5650   13.5020   -4.6940 C.3       1 ZOL401      0.0000 
      6 P9        -11.4730   12.4170   -5.7150 P.3       1 ZOL401      0.0000 
      7 O10       -11.5140   11.0050   -5.2170 O.co2     1 ZOL401      0.0000 
      8 O11       -10.0540   12.9180   -5.6400 O.co2     1 ZOL401      0.0000 
      9 O12       -11.9860   12.4750   -7.1290 O.co2     1 ZOL401      0.0000 
     10 O13       -12.9810   14.6030   -5.4480 O.3       1 ZOL401      0.0000 
     11 C7        -13.7660   12.7210   -4.1840 C.3       1 ZOL401      0.0000 
     12 N15       -14.5060   12.0870   -5.2690 N.pl3     1 ZOL401      0.0000 
     13 C16       -15.0570   12.6860   -6.3400 C.2       1 ZOL401      0.0000 
     14 N17       -15.6680   11.7430   -7.0760 N.2       1 ZOL401      0.0000 
     15 C18       -15.5100   10.5860   -6.4740 C.2       1 ZOL401      0.0000 
     16 C19       -14.7870   10.8040   -5.3440 C.2       1 ZOL401      0.0000 
@<TRIPOS>BOND
     1    1    2 ar   
     2    2    3 ar   
     3    2    4 ar   
     4    2    5 1    
     5    5    6 1    
     6    5   10 1    
     7    5   11 1    
     8    6    7 ar   
     9    6    8 ar   
    10    6    9 ar   
    11   11   12 1    
    12   12   13 1    
    13   12   16 1    
    14   13   14 2    
    15   14   15 1    
    16   15   16 2    
@<TRIPOS>SUBSTRUCTURE
     1 ZOL401      1 GROUP   
@<TRIPOS>SET

