#    Name: 6g31_4_ZOL_CAVITY_N1_6
#    Modification time : Fri May 22 19:32:53 2020

@<TRIPOS>MOLECULE
6g31_4_ZOL_CAVITY_N1_6
  143     0     7     0     0
SMALL
NO_CHARGES


@<TRIPOS>ATOM
      1 OG         60.1600  -24.4400   36.0000 O.3       1 SER1        0.0000 
      2 OG         60.1800  -23.0000   35.5900 O.3       1 SER1        0.0000 
      3 OG         60.2000  -21.5500   35.1900 O.3       1 SER1        0.0000 
      4 OG         59.1300  -24.1300   37.0500 O.3       1 SER1        0.0000 
      5 OG         62.3400  -20.1500   34.7200 O.3       1 SER1        0.0000 
      6 OG         61.3100  -19.8400   35.7700 O.3       1 SER1        0.0000 
      7 OG         60.2500  -22.4200   37.6300 O.3       1 SER1        0.0000 
      8 OG         60.2700  -20.9800   37.2300 O.3       1 SER1        0.0000 
      9 OG         63.4500  -18.4400   35.3100 O.3       1 SER1        0.0000 
     10 OG         62.4200  -18.1400   36.3600 O.3       1 SER1        0.0000 
     11 OG         63.5200  -17.8700   37.3500 O.3       1 SER1        0.0000 
     12 OG         63.7100  -21.3600   47.1400 O.3       1 SER1        0.0000 
     13 OG         62.6800  -21.0500   48.1900 O.3       1 SER1        0.0000 
     14 OG         61.6600  -20.7400   49.2400 O.3       1 SER1        0.0000 
     15 OG         61.6800  -19.3000   48.8300 O.3       1 SER1        0.0000 
     16 N          60.2200  -20.1100   34.7800 N.am      2 ALA2        0.0000 
     17 N          61.3300  -18.4000   35.3700 N.am      2 ALA2        0.0000 
     18 N          60.2800  -19.5400   36.8200 N.am      2 ALA2        0.0000 
     19 N          60.3000  -18.0900   36.4200 N.am      2 ALA2        0.0000 
     20 N          59.2000  -23.5600   39.0900 N.am      2 ALA2        0.0000 
     21 O          59.2200  -22.1200   38.6800 O.2       2 ALA2        0.0000 
     22 O          59.2400  -20.6700   38.2800 O.2       2 ALA2        0.0000 
     23 O          57.1900  -20.0500   40.3800 O.2       2 ALA2        0.0000 
     24 N          56.1600  -19.7500   41.4300 N.am      2 ALA2        0.0000 
     25 N          60.2900  -23.3000   40.0800 N.am      2 ALA2        0.0000 
     26 N          60.3700  -17.5200   38.4600 N.am      2 ALA2        0.0000 
     27 N          59.2900  -21.5400   40.7300 N.am      2 ALA2        0.0000 
     28 O          59.3100  -20.1000   40.3200 O.2       2 ALA2        0.0000 
     29 N          58.2600  -21.2300   41.7800 N.am      2 ALA2        0.0000 
     30 N          58.2800  -19.7900   41.3700 N.am      2 ALA2        0.0000 
     31 N          61.4800  -24.7700   45.9700 N.am      2 ALA2        0.0000 
     32 N          61.5500  -24.2000   48.0100 N.am      2 ALA2        0.0000 
     33 N          61.5700  -22.7600   47.6000 N.am      2 ALA2        0.0000 
     34 O          65.7200  -24.8600   45.8500 O.2       2 ALA2        0.0000 
     35 N          64.7000  -24.5500   46.9000 N.am      2 ALA2        0.0000 
     36 N          64.7200  -23.1100   46.5000 N.am      2 ALA2        0.0000 
     37 N          63.6900  -22.8000   47.5500 N.am      2 ALA2        0.0000 
     38 OD1        58.3000  -18.3500   40.9600 O.co2     3 ASP3        0.0000 
     39 OD1        57.2300  -20.9300   42.8200 O.co2     3 ASP3        0.0000 
     40 OD1        57.2500  -19.4800   42.4200 O.co2     3 ASP3        0.0000 
     41 OD1        56.2100  -20.6200   43.8700 O.co2     3 ASP3        0.0000 
     42 OD1        60.3600  -22.7200   42.1200 O.co2     3 ASP3        0.0000 
     43 OD1        60.3800  -21.2800   41.7200 O.co2     3 ASP3        0.0000 
     44 OD1        59.3500  -20.9700   42.7700 O.co2     3 ASP3        0.0000 
     45 OD1        59.3700  -19.5300   42.3600 O.co2     3 ASP3        0.0000 
     46 OD1        58.3500  -19.2200   43.4100 O.co2     3 ASP3        0.0000 
     47 OD1        57.3000  -20.3500   44.8700 O.co2     3 ASP3        0.0000 
     48 OD1        57.3200  -18.9100   44.4600 O.co2     3 ASP3        0.0000 
     49 OD1        62.5000  -21.3200   41.6600 O.co2     3 ASP3        0.0000 
     50 OD1        61.4600  -22.4600   43.1200 O.co2     3 ASP3        0.0000 
     51 OD1        61.4700  -21.0100   42.7100 O.co2     3 ASP3        0.0000 
     52 OD1        60.3900  -25.0400   44.9800 O.co2     3 ASP3        0.0000 
     53 OD1        59.4200  -20.4000   44.8100 O.co2     3 ASP3        0.0000 
     54 OD1        63.5600  -23.9500   43.4600 O.co2     3 ASP3        0.0000 
     55 OD1        62.5300  -23.6400   44.5100 O.co2     3 ASP3        0.0000 
     56 OD1        62.5500  -22.1900   44.1100 O.co2     3 ASP3        0.0000 
     57 OD1        61.5000  -23.3300   45.5600 O.co2     3 ASP3        0.0000 
     58 OD1        61.5200  -21.8900   45.1600 O.co2     3 ASP3        0.0000 
     59 OD1        60.4800  -23.0200   46.6100 O.co2     3 ASP3        0.0000 
     60 OD1        60.5000  -21.5800   46.2100 O.co2     3 ASP3        0.0000 
     61 OD1        63.6200  -23.3700   45.5100 O.co2     3 ASP3        0.0000 
     62 OD1        63.6400  -21.9300   45.1000 O.co2     3 ASP3        0.0000 
     63 OD1        62.6200  -21.6200   46.1500 O.co2     3 ASP3        0.0000 
     64 OD1        61.5900  -21.3100   47.2000 O.co2     3 ASP3        0.0000 
     65 OD1        61.6100  -19.8700   46.7900 O.co2     3 ASP3        0.0000 
     66 OD1        60.5800  -19.5600   47.8400 O.co2     3 ASP3        0.0000 
     67 NZ         56.1800  -18.3000   41.0200 N.4       4 LYS4        0.0000 
     68 NZ         55.1100  -20.8800   42.8800 N.4       4 LYS4        0.0000 
     69 NZ         55.1300  -19.4400   42.4800 N.4       4 LYS4        0.0000 
     70 NZ         54.0900  -20.5700   43.9300 N.4       4 LYS4        0.0000 
     71 NZ         54.1100  -19.1300   43.5300 N.4       4 LYS4        0.0000 
     72 NZ         57.2700  -18.0400   42.0100 N.4       4 LYS4        0.0000 
     73 NZ         56.2300  -19.1700   43.4700 N.4       4 LYS4        0.0000 
     74 NZ         55.1800  -20.3100   44.9200 N.4       4 LYS4        0.0000 
     75 NZ         55.2000  -18.8700   44.5200 N.4       4 LYS4        0.0000 
     76 NZ         61.4300  -20.1400   40.2600 N.4       4 LYS4        0.0000 
     77 NZ         61.4500  -18.7000   39.8600 N.4       4 LYS4        0.0000 
     78 NZ         61.4600  -17.2500   39.4500 N.4       4 LYS4        0.0000 
     79 NZ         60.4000  -19.8300   41.3100 N.4       4 LYS4        0.0000 
     80 NZ         60.4200  -18.3900   40.9100 N.4       4 LYS4        0.0000 
     81 NZ         56.2800  -20.0500   45.9200 N.4       4 LYS4        0.0000 
     82 NZ         56.3100  -17.1600   45.1000 N.4       4 LYS4        0.0000 
     83 NZ         58.4000  -20.0900   45.8600 N.4       4 LYS4        0.0000 
     84 NZ         58.4100  -18.6500   45.4500 N.4       4 LYS4        0.0000 
     85 NZ         59.4900  -19.8300   46.8500 N.4       4 LYS4        0.0000 
     86 NZ         58.4600  -19.5200   47.9000 N.4       4 LYS4        0.0000 
     87 NZ         60.5600  -21.0100   48.2500 N.4       4 LYS4        0.0000 
     88 NZ         59.5400  -20.7000   49.3000 N.4       4 LYS4        0.0000 
     89 CZ         61.1900  -24.7500   34.9500 C.ar      5 PHE5        0.0000 
     90 CZ         61.2100  -23.3000   34.5400 C.ar      5 PHE5        0.0000 
     91 CZ         61.2300  -21.8600   34.1400 C.ar      5 PHE5        0.0000 
     92 CZ         59.1100  -25.5800   37.4500 C.ar      5 PHE5        0.0000 
     93 CZ         62.2800  -24.4800   35.9400 C.ar      5 PHE5        0.0000 
     94 CZ         62.3000  -23.0400   35.5400 C.ar      5 PHE5        0.0000 
     95 CZ         62.3200  -21.6000   35.1300 C.ar      5 PHE5        0.0000 
     96 CZ         61.2700  -22.7300   36.5900 C.ar      5 PHE5        0.0000 
     97 CZ         61.2900  -21.2900   36.1800 C.ar      5 PHE5        0.0000 
     98 CZ         63.3700  -24.2200   36.9300 C.ar      5 PHE5        0.0000 
     99 CZ         62.3500  -23.9100   37.9800 C.ar      5 PHE5        0.0000 
    100 CZ         62.3700  -22.4700   37.5800 C.ar      5 PHE5        0.0000 
    101 CZ         62.3900  -21.0200   37.1700 C.ar      5 PHE5        0.0000 
    102 CZ         62.4000  -19.5800   36.7700 C.ar      5 PHE5        0.0000 
    103 CZ         63.4400  -23.6500   38.9700 C.ar      5 PHE5        0.0000 
    104 CA         62.2500  -22.1700   33.0900 C.3       6 GLY6        0.0000 
    105 CA         61.2400  -20.4200   33.7300 C.3       6 GLY6        0.0000 
    106 CA         59.1900  -19.8000   35.8300 C.3       6 GLY6        0.0000 
    107 CA         60.3200  -16.6500   36.0100 C.3       6 GLY6        0.0000 
    108 CA         59.1800  -25.0000   39.5000 C.3       6 GLY6        0.0000 
    109 CA         59.2600  -19.2300   37.8700 C.3       6 GLY6        0.0000 
    110 CA         59.2800  -17.7800   37.4700 C.3       6 GLY6        0.0000 
    111 CA         57.2100  -18.6100   39.9700 C.3       6 GLY6        0.0000 
    112 CA         62.4400  -16.6900   35.9600 C.3       6 GLY6        0.0000 
    113 CA         61.4200  -16.3800   37.0000 C.3       6 GLY6        0.0000 
    114 CA         59.3300  -18.6500   39.9100 C.3       6 GLY6        0.0000 
    115 CA         63.4600  -22.2000   38.5700 C.3       6 GLY6        0.0000 
    116 CA         63.5000  -19.3200   37.7600 C.3       6 GLY6        0.0000 
    117 CA         62.4300  -21.9000   39.6200 C.3       6 GLY6        0.0000 
    118 CA         62.4500  -20.4500   39.2100 C.3       6 GLY6        0.0000 
    119 CA         62.4700  -19.0100   38.8100 C.3       6 GLY6        0.0000 
    120 CA         62.4900  -17.5600   38.4000 C.3       6 GLY6        0.0000 
    121 CA         62.5100  -16.1200   38.0000 C.3       6 GLY6        0.0000 
    122 CA         56.2900  -18.6000   45.5100 C.3       6 GLY6        0.0000 
    123 CA         57.3900  -18.3400   46.5000 C.3       6 GLY6        0.0000 
    124 CA         60.5400  -22.4500   48.6500 C.3       6 GLY6        0.0000 
    125 CA         59.5600  -19.2500   48.8900 C.3       6 GLY6        0.0000 
    126 CA         65.7400  -23.4200   45.4500 C.3       6 GLY6        0.0000 
    127 CA         62.6600  -22.4900   48.6000 C.3       6 GLY6        0.0000 
    128 DU         61.2400  -25.6200   37.4000 H         7 CUB7        0.0000 
    129 DU         61.2500  -24.1800   36.9900 H         7 CUB7        0.0000 
    130 DU         60.2300  -23.8700   38.0400 H         7 CUB7        0.0000 
    131 DU         61.3400  -22.1600   38.6300 H         7 CUB7        0.0000 
    132 DU         61.3600  -20.7200   38.2200 H         7 CUB7        0.0000 
    133 DU         61.3800  -19.2700   37.8200 H         7 CUB7        0.0000 
    134 DU         61.4000  -17.8300   37.4100 H         7 CUB7        0.0000 
    135 DU         60.3100  -21.8500   39.6800 H         7 CUB7        0.0000 
    136 DU         60.3300  -20.4100   39.2700 H         7 CUB7        0.0000 
    137 DU         60.3500  -18.9600   38.8700 H         7 CUB7        0.0000 
    138 DU         61.3900  -23.0300   41.0700 H         7 CUB7        0.0000 
    139 DU         61.4100  -21.5900   40.6700 H         7 CUB7        0.0000 
    140 DU         63.6000  -24.8200   45.9100 H         7 CUB7        0.0000 
    141 DU         62.5800  -24.5100   46.9600 H         7 CUB7        0.0000 
    142 DU         62.6000  -23.0700   46.5500 H         7 CUB7        0.0000 
    143 DU         63.6700  -24.2500   47.9500 H         7 CUB7        0.0000 
@<TRIPOS>BOND
@<TRIPOS>SUBSTRUCTURE
     1 SER1        1 GROUP   
     2 ALA2       16 GROUP   
     3 ASP3       38 GROUP   
     4 LYS4       67 GROUP   
     5 PHE5       89 GROUP   
     6 GLY6      104 GROUP   
     7 CUB7      128 GROUP   
@<TRIPOS>SET

