#    Name: 6gom_5_GNP
#    Modification time : Fri May 22 19:23:20 2020

@<TRIPOS>MOLECULE
6gom_5_GNP
   32    34     1     0     1
SMALL
NO_CHARGES


@<TRIPOS>ATOM
      1 PG         37.1150   99.4030   58.7630 P.3       1 GNP201      0.0000 
      2 O1G        36.6840  100.0890   57.3510 O.co2     1 GNP201      0.0000 
      3 O2G        37.2600   97.8980   58.6150 O.co2     1 GNP201      0.0000 
      4 O3G        35.9140   99.8500   59.7870 O.co2     1 GNP201      0.0000 
      5 N3B        38.5370  100.1300   59.4130 N.3       1 GNP201      0.0000 
      6 PB         39.9380  100.2910   58.4190 P.3       1 GNP201      0.0000 
      7 O1B        39.4390  100.8050   57.1280 O.co2     1 GNP201      0.0000 
      8 O2B        40.8720   99.0060   58.4660 O.co2     1 GNP201      0.0000 
      9 O3A        40.7540  101.4620   59.1520 O.3       1 GNP201      0.0000 
     10 PA         40.8850  103.0520   58.8120 P.3       1 GNP201      0.0000 
     11 O1A        41.6200  103.2360   57.4710 O.co2     1 GNP201      0.0000 
     12 O2A        39.5150  103.6810   58.8910 O.co2     1 GNP201      0.0000 
     13 O5'        41.8760  103.5470   59.9280 O.3       1 GNP201      0.0000 
     14 C5'        41.5160  103.4480   61.3140 C.3       1 GNP201      0.0000 
     15 C4'        42.2140  104.5060   62.1140 C.3       1 GNP201      0.0000 
     16 O4'        43.6320  104.3080   62.2120 O.3       1 GNP201      0.0000 
     17 C3'        42.0110  105.9100   61.5800 C.3       1 GNP201      0.0000 
     18 O3'        41.8800  106.7610   62.7360 O.3       1 GNP201      0.0000 
     19 C2'        43.3060  106.2270   60.8600 C.3       1 GNP201      0.0000 
     20 O2'        43.7240  107.6050   60.8770 O.3       1 GNP201      0.0000 
     21 C1'        44.3010  105.4260   61.6740 C.3       1 GNP201      0.0000 
     22 N9         45.4540  104.9240   60.8650 N.pl3     1 GNP201      0.0000 
     23 C8         45.3530  104.1510   59.7700 C.2       1 GNP201      0.0000 
     24 N7         46.5730  103.8580   59.2780 N.2       1 GNP201      0.0000 
     25 C5         47.4830  104.4210   60.0760 C.2       1 GNP201      0.0000 
     26 C6         48.9340  104.4680   60.1620 C.2       1 GNP201      0.0000 
     27 O6         49.6600  103.8690   59.3170 O.2       1 GNP201      0.0000 
     28 N1         49.5080  105.1550   61.1630 N.am      1 GNP201      0.0000 
     29 C2         48.7460  105.8020   62.0770 C.2       1 GNP201      0.0000 
     30 N2         49.3460  106.4920   63.0630 N.pl3     1 GNP201      0.0000 
     31 N3         47.3830  105.7570   62.1030 N.2       1 GNP201      0.0000 
     32 C4         46.7190  105.1150   61.1410 C.2       1 GNP201      0.0000 
@<TRIPOS>BOND
     1    1    2 ar   
     2    1    3 ar   
     3    1    4 ar   
     4    1    5 1    
     5    5    6 1    
     6    6    7 ar   
     7    6    8 ar   
     8    6    9 1    
     9    9   10 1    
    10   10   11 ar   
    11   10   12 ar   
    12   10   13 1    
    13   13   14 1    
    14   14   15 1    
    15   15   16 1    
    16   15   17 1    
    17   16   21 1    
    18   17   18 1    
    19   17   19 1    
    20   19   20 1    
    21   19   21 1    
    22   21   22 1    
    23   22   23 1    
    24   22   32 1    
    25   23   24 2    
    26   24   25 1    
    27   25   26 1    
    28   25   32 2    
    29   26   27 2    
    30   26   28 am   
    31   28   29 1    
    32   29   30 1    
    33   29   31 2    
    34   31   32 1    
@<TRIPOS>SUBSTRUCTURE
     1 GNP201      1 GROUP   
@<TRIPOS>SET
ATOM$ORANGE STATIC     ATOMS   COLORGROUP SYSTEM 
20 14 14 15 15 17 17 19 19 21 21 23 23 25 25 26 26 29 \
29 32 32 

