#    Name: 6gom_5_GNP_CAVITY_N1_8
#    Modification time : Fri May 22 19:23:21 2020

@<TRIPOS>MOLECULE
6gom_5_GNP_CAVITY_N1_8
   74     0     7     0     0
SMALL
NO_CHARGES


@<TRIPOS>ATOM
      1 OG         35.7200   98.8300   61.1700 O.3       1 SER1        0.0000 
      2 O          34.4000   97.6200   58.7600 O.2       2 ALA2        0.0000 
      3 N          32.6000   98.6400   59.2300 N.am      2 ALA2        0.0000 
      4 N          33.8100   98.9600   58.4100 N.am      2 ALA2        0.0000 
      5 O          35.6400   96.8900   60.3100 O.2       2 ALA2        0.0000 
      6 O          35.0600   98.2300   59.9600 O.2       2 ALA2        0.0000 
      7 O          36.2700   98.5500   59.1400 O.2       2 ALA2        0.0000 
      8 O          35.6800   99.8800   58.7900 O.2       2 ALA2        0.0000 
      9 O          36.9300   99.1500   60.3400 O.2       2 ALA2        0.0000 
     10 O          38.1400   99.4700   59.5200 O.2       2 ALA2        0.0000 
     11 O          40.5700  100.1000   57.8700 O.2       2 ALA2        0.0000 
     12 O          40.0100  100.3900   59.9000 O.2       2 ALA2        0.0000 
     13 O          41.2300  100.7100   59.0800 O.2       2 ALA2        0.0000 
     14 O          41.2700  103.7000   57.5500 O.2       2 ALA2        0.0000 
     15 O          41.3000  102.6500   59.9300 O.2       2 ALA2        0.0000 
     16 N          41.3400  105.6400   58.4100 N.am      2 ALA2        0.0000 
     17 N          41.9600  103.2500   61.1400 N.am      2 ALA2        0.0000 
     18 N          40.7800  105.9200   60.4400 N.am      2 ALA2        0.0000 
     19 N          42.0000  106.2400   59.6100 N.am      2 ALA2        0.0000 
     20 O          46.8400  103.4800   60.2200 O.2       2 ALA2        0.0000 
     21 O          48.0600  103.7900   59.4000 O.2       2 ALA2        0.0000 
     22 N          41.4400  106.5300   61.6400 N.am      2 ALA2        0.0000 
     23 N          42.6600  106.8500   60.8200 N.am      2 ALA2        0.0000 
     24 OD1        37.4800   98.8600   58.3200 O.co2     3 ASP3        0.0000 
     25 OD1        38.7000   99.1800   57.4900 O.co2     3 ASP3        0.0000 
     26 OD1        39.3600   99.7900   58.7000 O.co2     3 ASP3        0.0000 
     27 OD1        37.5600  100.8000   59.1700 O.co2     3 ASP3        0.0000 
     28 OD1        38.7700  101.1200   58.3500 O.co2     3 ASP3        0.0000 
     29 OD1        39.9800  101.4400   57.5200 O.co2     3 ASP3        0.0000 
     30 OD1        42.6200  103.8600   62.3400 O.co2     3 ASP3        0.0000 
     31 OD1        43.8300  104.1800   61.5200 O.co2     3 ASP3        0.0000 
     32 OD1        44.4900  104.7800   62.7200 O.co2     3 ASP3        0.0000 
     33 NZ         49.3700  105.0000   61.8100 N.4       4 LYS4        0.0000 
     34 CZ         36.3400  100.4900   59.9900 C.ar      5 PHE5        0.0000 
     35 CZ         39.4300  101.7300   59.5500 C.ar      5 PHE5        0.0000 
     36 CZ         38.8400  103.0600   59.2000 C.ar      5 PHE5        0.0000 
     37 CZ         39.5000  103.6700   60.4000 C.ar      5 PHE5        0.0000 
     38 CZ         40.7400  102.9400   61.9600 C.ar      5 PHE5        0.0000 
     39 CZ         40.1600  104.2700   61.6100 C.ar      5 PHE5        0.0000 
     40 CZ         41.4000  103.5400   63.1600 C.ar      5 PHE5        0.0000 
     41 CZ         46.2600  104.8100   59.8700 C.ar      5 PHE5        0.0000 
     42 CZ         40.8200  104.8800   62.8100 C.ar      5 PHE5        0.0000 
     43 CZ         44.4600  105.8300   60.3400 C.ar      5 PHE5        0.0000 
     44 CZ         42.0600  104.1500   64.3700 C.ar      5 PHE5        0.0000 
     45 CZ         46.9100  105.4200   61.0800 C.ar      5 PHE5        0.0000 
     46 CZ         48.1300  105.7300   60.2500 C.ar      5 PHE5        0.0000 
     47 CZ         45.1100  106.4300   61.5500 C.ar      5 PHE5        0.0000 
     48 CZ         47.5700  106.0200   62.2800 C.ar      5 PHE5        0.0000 
     49 CZ         46.9900  107.3600   61.9300 C.ar      5 PHE5        0.0000 
     50 CA         32.5300   96.7000   58.3800 C.3       6 GLY6        0.0000 
     51 CA         34.4700   99.5600   59.6100 C.3       6 GLY6        0.0000 
     52 CA         35.1300  100.1700   60.8100 C.3       6 GLY6        0.0000 
     53 CA         40.6400  102.0400   58.7300 C.3       6 GLY6        0.0000 
     54 CA         41.8500  102.3600   57.9000 C.3       6 GLY6        0.0000 
     55 CA         40.0500  103.3800   58.3800 C.3       6 GLY6        0.0000 
     56 CA         40.0900  102.3300   60.7500 C.3       6 GLY6        0.0000 
     57 CA         42.5100  102.9700   59.1100 C.3       6 GLY6        0.0000 
     58 CA         41.9300  104.3000   58.7600 C.3       6 GLY6        0.0000 
     59 CA         43.1700  103.5700   60.3100 C.3       6 GLY6        0.0000 
     60 CA         44.3800  103.8900   59.4900 C.3       6 GLY6        0.0000 
     61 CA         42.5800  104.9100   59.9600 C.3       6 GLY6        0.0000 
     62 CA         43.8000  105.2200   59.1400 C.3       6 GLY6        0.0000 
     63 CA         45.0400  104.4900   60.6900 C.3       6 GLY6        0.0000 
     64 CA         47.4700  105.1300   59.0500 C.3       6 GLY6        0.0000 
     65 CA         47.5000  104.0800   61.4300 C.3       6 GLY6        0.0000 
     66 CA         48.7100  104.4000   60.6000 C.3       6 GLY6        0.0000 
     67 CA         45.7000  105.1000   61.9000 C.3       6 GLY6        0.0000 
     68 CA         48.1600  104.6900   62.6300 C.3       6 GLY6        0.0000 
     69 CA         48.7900  106.3400   61.4600 C.3       6 GLY6        0.0000 
     70 DU         40.7100  103.9800   59.5800 H         7 CUB7        0.0000 
     71 DU         41.3700  104.5900   60.7900 H         7 CUB7        0.0000 
     72 DU         42.0300  105.1900   61.9900 H         7 CUB7        0.0000 
     73 DU         43.2400  105.5100   61.1700 H         7 CUB7        0.0000 
     74 DU         43.9000  106.1200   62.3700 H         7 CUB7        0.0000 
@<TRIPOS>BOND
@<TRIPOS>SUBSTRUCTURE
     1 SER1        1 GROUP   
     2 ALA2        2 GROUP   
     3 ASP3       24 GROUP   
     4 LYS4       33 GROUP   
     5 PHE5       34 GROUP   
     6 GLY6       50 GROUP   
     7 CUB7       70 GROUP   
@<TRIPOS>SET

