#    Name: 6gom_3_GNP
#    Modification time : Fri May 22 19:23:14 2020

@<TRIPOS>MOLECULE
6gom_3_GNP
   32    34     1     0     1
SMALL
NO_CHARGES


@<TRIPOS>ATOM
      1 PG         77.6440   94.9920   49.2350 P.3       1 GNP201      0.0000 
      2 O1G        76.8310   94.8390   47.8450 O.co2     1 GNP201      0.0000 
      3 O2G        78.8240   95.9200   49.0360 O.co2     1 GNP201      0.0000 
      4 O3G        77.9960   93.4540   49.7190 O.co2     1 GNP201      0.0000 
      5 N3B        76.5240   95.4810   50.4330 N.3       1 GNP201      0.0000 
      6 PB         75.4600   96.7900   50.0880 P.3       1 GNP201      0.0000 
      7 O1B        74.9500   96.7520   48.7050 O.co2     1 GNP201      0.0000 
      8 O2B        76.1450   98.1340   50.4300 O.co2     1 GNP201      0.0000 
      9 O3A        74.2310   96.5640   51.1400 O.3       1 GNP201      0.0000 
     10 PA         72.7410   95.9880   50.8660 P.3       1 GNP201      0.0000 
     11 O1A        72.0090   96.9830   49.9200 O.co2     1 GNP201      0.0000 
     12 O2A        72.7820   94.5960   50.3840 O.co2     1 GNP201      0.0000 
     13 O5'        72.1270   96.1670   52.3210 O.3       1 GNP201      0.0000 
     14 C5'        72.6710   95.4570   53.4550 C.3       1 GNP201      0.0000 
     15 C4'        71.5940   95.2060   54.5040 C.3       1 GNP201      0.0000 
     16 O4'        71.1820   96.4490   55.0260 O.3       1 GNP201      0.0000 
     17 C3'        70.3480   94.5530   53.9540 C.3       1 GNP201      0.0000 
     18 O3'        69.7880   93.6210   54.9120 O.3       1 GNP201      0.0000 
     19 C2'        69.3510   95.6970   53.7760 C.3       1 GNP201      0.0000 
     20 O2'        67.9750   95.3280   53.9480 O.3       1 GNP201      0.0000 
     21 C1'        69.7600   96.6030   54.8790 C.3       1 GNP201      0.0000 
     22 N9         69.5320   98.0500   54.6100 N.pl3     1 GNP201      0.0000 
     23 C8         70.0850   98.7420   53.5630 C.2       1 GNP201      0.0000 
     24 N7         69.7050  100.0500   53.6130 N.2       1 GNP201      0.0000 
     25 C5         68.9100  100.1930   54.7160 C.2       1 GNP201      0.0000 
     26 C6         68.2140  101.3040   55.3450 C.2       1 GNP201      0.0000 
     27 O6         68.2830  102.4810   54.8960 O.2       1 GNP201      0.0000 
     28 N1         67.5470  101.0230   56.4990 N.am      1 GNP201      0.0000 
     29 C2         67.4970   99.7570   57.0430 C.2       1 GNP201      0.0000 
     30 N2         66.7850   99.5450   58.1690 N.pl3     1 GNP201      0.0000 
     31 N3         68.1040   98.6920   56.5270 N.2       1 GNP201      0.0000 
     32 C4         68.8190   98.8690   55.3680 C.2       1 GNP201      0.0000 
@<TRIPOS>BOND
     1    1    2 ar   
     2    1    3 ar   
     3    1    4 ar   
     4    1    5 1    
     5    5    6 1    
     6    6    7 ar   
     7    6    8 ar   
     8    6    9 1    
     9    9   10 1    
    10   10   11 ar   
    11   10   12 ar   
    12   10   13 1    
    13   13   14 1    
    14   14   15 1    
    15   15   16 1    
    16   15   17 1    
    17   16   21 1    
    18   17   18 1    
    19   17   19 1    
    20   19   20 1    
    21   19   21 1    
    22   21   22 1    
    23   22   23 1    
    24   22   32 1    
    25   23   24 2    
    26   24   25 1    
    27   25   26 1    
    28   25   32 2    
    29   26   27 2    
    30   26   28 am   
    31   28   29 1    
    32   29   30 1    
    33   29   31 2    
    34   31   32 1    
@<TRIPOS>SUBSTRUCTURE
     1 GNP201      1 GROUP   
@<TRIPOS>SET
ATOM$ORANGE STATIC     ATOMS   COLORGROUP SYSTEM 
20 14 14 15 15 17 17 19 19 21 21 23 23 25 25 26 26 29 \
29 32 32 

