#    Name: 6gom_4_GNP
#    Modification time : Fri May 22 19:23:17 2020

@<TRIPOS>MOLECULE
6gom_4_GNP
   32    34     1     0     1
SMALL
NO_CHARGES


@<TRIPOS>ATOM
      1 PG         40.6520  136.2060   11.8870 P.3       1 GNP201      0.0000 
      2 O1G        39.1410  136.7840   11.5550 O.co2     1 GNP201      0.0000 
      3 O2G        40.6320  135.7880   13.4380 O.co2     1 GNP201      0.0000 
      4 O3G        41.8020  137.1460   11.6560 O.co2     1 GNP201      0.0000 
      5 N3B        40.6980  134.8350   10.8110 N.3       1 GNP201      0.0000 
      6 PB         41.8160  133.5760   11.1300 P.3       1 GNP201      0.0000 
      7 O1B        43.1820  133.8900   10.5200 O.co2     1 GNP201      0.0000 
      8 O2B        41.7730  133.3640   12.5630 O.co2     1 GNP201      0.0000 
      9 O3A        41.1250  132.2710   10.3420 O.3       1 GNP201      0.0000 
     10 PA         40.2810  131.1000   11.0260 P.3       1 GNP201      0.0000 
     11 O1A        39.0190  131.5450   11.6310 O.co2     1 GNP201      0.0000 
     12 O2A        41.0620  130.2760   12.0540 O.co2     1 GNP201      0.0000 
     13 O5'        40.1130  130.2370    9.6890 O.3       1 GNP201      0.0000 
     14 C5'        39.3470  130.8040    8.6120 C.3       1 GNP201      0.0000 
     15 C4'        38.6040  129.6990    7.8590 C.3       1 GNP201      0.0000 
     16 O4'        39.5230  128.9030    7.1730 O.3       1 GNP201      0.0000 
     17 C3'        37.7140  128.7900    8.6600 C.3       1 GNP201      0.0000 
     18 O3'        36.5360  128.4590    7.8090 O.3       1 GNP201      0.0000 
     19 C2'        38.5650  127.5320    8.7760 C.3       1 GNP201      0.0000 
     20 O2'        37.8150  126.3270    8.9220 O.3       1 GNP201      0.0000 
     21 C1'        39.3250  127.5290    7.5310 C.3       1 GNP201      0.0000 
     22 N9         40.6900  126.9150    7.6520 N.pl3     1 GNP201      0.0000 
     23 C8         41.6710  127.3570    8.5100 C.2       1 GNP201      0.0000 
     24 N7         42.8010  126.6310    8.3290 N.2       1 GNP201      0.0000 
     25 C5         42.5540  125.7020    7.3440 C.2       1 GNP201      0.0000 
     26 C6         43.2880  124.6710    6.6910 C.2       1 GNP201      0.0000 
     27 O6         44.4820  124.3930    6.9400 O.2       1 GNP201      0.0000 
     28 N1         42.6740  124.0260    5.6560 N.am      1 GNP201      0.0000 
     29 C2         41.3650  124.2310    5.3160 C.2       1 GNP201      0.0000 
     30 N2         40.8190  123.4620    4.3280 N.pl3     1 GNP201      0.0000 
     31 N3         40.6050  125.1710    5.8920 N.2       1 GNP201      0.0000 
     32 C4         41.1530  125.9470    6.8800 C.2       1 GNP201      0.0000 
@<TRIPOS>BOND
     1    1    2 ar   
     2    1    3 ar   
     3    1    4 ar   
     4    1    5 1    
     5    5    6 1    
     6    6    7 ar   
     7    6    8 ar   
     8    6    9 1    
     9    9   10 1    
    10   10   11 ar   
    11   10   12 ar   
    12   10   13 1    
    13   13   14 1    
    14   14   15 1    
    15   15   16 1    
    16   15   17 1    
    17   16   21 1    
    18   17   18 1    
    19   17   19 1    
    20   19   20 1    
    21   19   21 1    
    22   21   22 1    
    23   22   23 1    
    24   22   32 1    
    25   23   24 2    
    26   24   25 1    
    27   25   26 1    
    28   25   32 2    
    29   26   27 2    
    30   26   28 am   
    31   28   29 1    
    32   29   30 1    
    33   29   31 2    
    34   31   32 1    
@<TRIPOS>SUBSTRUCTURE
     1 GNP201      1 GROUP   
@<TRIPOS>SET
ATOM$ORANGE STATIC     ATOMS   COLORGROUP SYSTEM 
20 14 14 15 15 17 17 19 19 21 21 23 23 25 25 26 26 29 \
29 32 32 

