#    Name: 6gom_4_GNP_CAVITY_N1_4
#    Modification time : Fri May 22 19:23:18 2020

@<TRIPOS>MOLECULE
6gom_4_GNP_CAVITY_N1_4
   87     0     6     0     0
SMALL
NO_CHARGES


@<TRIPOS>ATOM
      1 N          36.3400  127.1200    7.3700 N.am      1 ALA2        0.0000 
      2 N          37.5500  127.4400    6.5500 N.am      1 ALA2        0.0000 
      3 N          37.5900  126.3900    8.9200 N.am      1 ALA2        0.0000 
      4 N          37.0000  127.7300    8.5700 N.am      1 ALA2        0.0000 
      5 O          42.4700  126.6100    8.0100 O.2       1 ALA2        0.0000 
      6 N          39.4600  127.3100    9.3100 N.am      1 ALA2        0.0000 
      7 N          37.6600  128.3300    9.7800 N.am      1 ALA2        0.0000 
      8 N          37.0700  129.6700    9.4300 N.am      1 ALA2        0.0000 
      9 N          39.5000  130.3000    7.7800 N.am      1 ALA2        0.0000 
     10 N          38.9100  131.6400    7.4300 N.am      1 ALA2        0.0000 
     11 N          38.9000  127.6000   11.3300 N.am      1 ALA2        0.0000 
     12 N          38.3200  128.9400   10.9800 N.am      1 ALA2        0.0000 
     13 N          37.7300  130.2700   10.6300 N.am      1 ALA2        0.0000 
     14 N          40.1600  130.9100    8.9900 N.am      1 ALA2        0.0000 
     15 N          37.7600  129.2200   13.0100 N.am      1 ALA2        0.0000 
     16 N          38.9700  129.5400   12.1900 N.am      1 ALA2        0.0000 
     17 O          40.1900  129.8600   11.3600 O.2       1 ALA2        0.0000 
     18 N          37.1700  130.5600   12.6600 N.am      1 ALA2        0.0000 
     19 N          38.3900  130.8800   11.8400 N.am      1 ALA2        0.0000 
     20 O          40.8500  130.4600   12.5700 O.2       1 ALA2        0.0000 
     21 N          36.6200  130.8500   14.6900 N.am      1 ALA2        0.0000 
     22 O          40.3000  134.7900   10.6900 O.2       1 ALA2        0.0000 
     23 O          39.7800  138.0600   11.2000 O.2       1 ALA2        0.0000 
     24 OD1        39.4200  128.3600    6.9300 O.co2     2 ASP3        0.0000 
     25 OD1        38.8400  129.7000    6.5800 O.co2     2 ASP3        0.0000 
     26 OD1        40.0800  128.9700    8.1300 O.co2     2 ASP3        0.0000 
     27 OD1        40.2600  131.8000   12.2200 O.co2     2 ASP3        0.0000 
     28 OD1        41.4700  132.1200   11.3900 O.co2     2 ASP3        0.0000 
     29 OD1        38.4600  132.8200   12.6900 O.co2     2 ASP3        0.0000 
     30 OD1        39.6700  133.1400   11.8700 O.co2     2 ASP3        0.0000 
     31 OD1        40.8900  133.4500   11.0400 O.co2     2 ASP3        0.0000 
     32 OD1        38.5300  134.7600   13.5400 O.co2     2 ASP3        0.0000 
     33 OD1        40.9600  135.3900   11.9000 O.co2     2 ASP3        0.0000 
     34 OD1        39.1600  136.4100   12.3700 O.co2     2 ASP3        0.0000 
     35 OD1        40.3700  136.7300   11.5500 O.co2     2 ASP3        0.0000 
     36 NZ         41.0800  123.4600    4.7500 N.4       3 LYS4        0.0000 
     37 NZ         41.7400  124.0700    5.9500 N.4       3 LYS4        0.0000 
     38 NZ         42.9500  124.3800    5.1300 N.4       3 LYS4        0.0000 
     39 CZ         40.5300  123.7500    6.7800 C.ar      4 PHE5        0.0000 
     40 CZ         39.9400  125.0900    6.4200 C.ar      4 PHE5        0.0000 
     41 CZ         42.4000  124.6700    7.1600 C.ar      4 PHE5        0.0000 
     42 CZ         40.6000  125.6900    7.6300 C.ar      4 PHE5        0.0000 
     43 CZ         38.8000  126.7100    8.1000 C.ar      4 PHE5        0.0000 
     44 CZ         37.0400  130.7100    7.0500 C.ar      4 PHE5        0.0000 
     45 CZ         40.0400  125.9800    9.6600 C.ar      4 PHE5        0.0000 
     46 CZ         41.2600  126.3000    8.8300 C.ar      4 PHE5        0.0000 
     47 CZ         38.2800  129.9800    8.6100 C.ar      4 PHE5        0.0000 
     48 CZ         38.9400  130.5900    9.8100 C.ar      4 PHE5        0.0000 
     49 CZ         38.3500  131.9200    9.4600 C.ar      4 PHE5        0.0000 
     50 CZ         37.8000  132.2100   11.4900 C.ar      4 PHE5        0.0000 
     51 CZ         39.0100  132.5300   10.6600 C.ar      4 PHE5        0.0000 
     52 CZ         37.8700  134.1500   12.3400 C.ar      4 PHE5        0.0000 
     53 CZ         39.0800  134.4700   11.5200 C.ar      4 PHE5        0.0000 
     54 CZ         39.7100  136.1200   10.3400 C.ar      4 PHE5        0.0000 
     55 CA         40.5000  124.8000    4.4000 C.3       5 GLY6        0.0000 
     56 CA         41.1500  125.4000    5.6000 C.3       5 GLY6        0.0000 
     57 CA         42.3700  125.7200    4.7800 C.3       5 GLY6        0.0000 
     58 CA         43.6100  124.9900    6.3300 C.3       5 GLY6        0.0000 
     59 CA         41.8100  126.0100    6.8100 C.3       5 GLY6        0.0000 
     60 CA         40.0100  127.0300    7.2800 C.3       5 GLY6        0.0000 
     61 CA         41.2300  127.3400    6.4600 C.3       5 GLY6        0.0000 
     62 CA         36.4100  129.0600    8.2200 C.3       5 GLY6        0.0000 
     63 CA         37.6200  129.3800    7.4000 C.3       5 GLY6        0.0000 
     64 CA         40.6700  127.6300    8.4800 C.3       5 GLY6        0.0000 
     65 CA         41.8800  127.9500    7.6600 C.3       5 GLY6        0.0000 
     66 CA         41.3000  129.2800    7.3100 C.3       5 GLY6        0.0000 
     67 CA         40.1200  127.9200   10.5100 C.3       5 GLY6        0.0000 
     68 CA         41.3300  128.2400    9.6900 C.3       5 GLY6        0.0000 
     69 CA         39.5300  129.2500   10.1600 C.3       5 GLY6        0.0000 
     70 CA         40.7400  129.5700    9.3400 C.3       5 GLY6        0.0000 
     71 CA         39.5700  132.2400    8.6400 C.3       5 GLY6        0.0000 
     72 CA         39.5600  128.2100   12.5400 C.3       5 GLY6        0.0000 
     73 CA         41.4000  130.1800   10.5400 C.3       5 GLY6        0.0000 
     74 CA         40.8100  131.5100   10.1900 C.3       5 GLY6        0.0000 
     75 CA         40.2300  132.8500    9.8400 C.3       5 GLY6        0.0000 
     76 CA         38.4200  129.8300   14.2100 C.3       5 GLY6        0.0000 
     77 CA         39.6300  130.1500   13.3900 C.3       5 GLY6        0.0000 
     78 CA         37.8300  131.1700   13.8600 C.3       5 GLY6        0.0000 
     79 CA         39.0500  131.4800   13.0400 C.3       5 GLY6        0.0000 
     80 CA         37.2400  132.5000   13.5100 C.3       5 GLY6        0.0000 
     81 CA         36.6600  133.8400   13.1600 C.3       5 GLY6        0.0000 
     82 CA         38.4900  131.7700   15.0700 C.3       5 GLY6        0.0000 
     83 CA         41.5800  137.0500   10.7300 C.3       5 GLY6        0.0000 
     84 DU         39.3500  126.4200    6.0700 H         6 CUB7        0.0000 
     85 DU         38.2100  128.0400    7.7500 H         6 CUB7        0.0000 
     86 DU         38.8700  128.6500    8.9600 H         6 CUB7        0.0000 
     87 DU         39.6000  131.1900   11.0100 H         6 CUB7        0.0000 
@<TRIPOS>BOND
@<TRIPOS>SUBSTRUCTURE
     1 ALA2        1 GROUP   
     2 ASP3       24 GROUP   
     3 LYS4       36 GROUP   
     4 PHE5       39 GROUP   
     5 GLY6       55 GROUP   
     6 CUB7       84 GROUP   
@<TRIPOS>SET

