#    Name: 6opg_1_ANP
#    Modification time : Fri May 22 19:25:38 2020

@<TRIPOS>MOLECULE
6opg_1_ANP
   31    33     1     0     1
SMALL
NO_CHARGES


@<TRIPOS>ATOM
      1 PG         12.6550   13.6620   19.7470 P.3       1 ANP401      0.0000 
      2 O1G        12.0180   15.0150   20.0200 O.co2     1 ANP401      0.0000 
      3 O2G        14.0170   13.4800   20.3800 O.co2     1 ANP401      0.0000 
      4 O3G        11.5830   12.8210   20.3570 O.co2     1 ANP401      0.0000 
      5 PB         11.5290   13.1140   17.0710 P.3       1 ANP401      0.0000 
      6 O1B        11.9420   12.0250   16.1110 O.co2     1 ANP401      0.0000 
      7 O2B        10.1970   12.9970   17.7790 O.co2     1 ANP401      0.0000 
      8 N3B        12.7860   13.3320   18.1440 N.3       1 ANP401      0.0000 
      9 PA         10.8590   15.8980   15.9780 P.3       1 ANP401      0.0000 
     10 O1A         9.4900   15.9830   15.3460 O.co2     1 ANP401      0.0000 
     11 O2A        11.0180   16.4880   17.3430 O.co2     1 ANP401      0.0000 
     12 O3A        11.4750   14.4080   16.0880 O.3       1 ANP401      0.0000 
     13 O5'        11.9250   16.5190   14.9620 O.3       1 ANP401      0.0000 
     14 C5'        13.3190   16.5290   15.3340 C.3       1 ANP401      0.0000 
     15 C4'        13.8560   17.8860   14.9720 C.3       1 ANP401      0.0000 
     16 O4'        13.4750   18.1900   13.6020 O.3       1 ANP401      0.0000 
     17 C3'        13.2700   19.0580   15.7620 C.3       1 ANP401      0.0000 
     18 O3'        13.7900   19.1040   17.0890 O.3       1 ANP401      0.0000 
     19 C2'        13.6030   20.2180   14.8130 C.3       1 ANP401      0.0000 
     20 O2'        14.9490   20.6010   15.0050 O.3       1 ANP401      0.0000 
     21 C1'        13.3330   19.5880   13.4390 C.3       1 ANP401      0.0000 
     22 N9         12.0110   19.7950   12.8330 N.pl3     1 ANP401      0.0000 
     23 C8         10.9070   18.9780   12.9860 C.2       1 ANP401      0.0000 
     24 N7          9.8550   19.4050   12.3180 N.2       1 ANP401      0.0000 
     25 C5         10.2940   20.5640   11.6980 C.ar      1 ANP401      0.0000 
     26 C6          9.6310   21.4810   10.8810 C.ar      1 ANP401      0.0000 
     27 N6          8.3460   21.3480   10.5440 N.pl3     1 ANP401      0.0000 
     28 N1         10.3400   22.5590   10.4590 N.ar      1 ANP401      0.0000 
     29 C2         11.6170   22.6730   10.8320 C.ar      1 ANP401      0.0000 
     30 N3         12.3480   21.8520   11.5720 N.ar      1 ANP401      0.0000 
     31 C4         11.6160   20.8110   11.9950 C.ar      1 ANP401      0.0000 
@<TRIPOS>BOND
     1    1    2 ar   
     2    1    3 ar   
     3    1    4 ar   
     4    1    8 1    
     5    5    6 ar   
     6    5    7 ar   
     7    5    8 1    
     8    5   12 1    
     9    9   10 ar   
    10    9   11 ar   
    11    9   12 1    
    12    9   13 1    
    13   13   14 1    
    14   14   15 1    
    15   15   16 1    
    16   15   17 1    
    17   16   21 1    
    18   17   18 1    
    19   17   19 1    
    20   19   20 1    
    21   19   21 1    
    22   21   22 1    
    23   22   23 1    
    24   22   31 1    
    25   23   24 2    
    26   24   25 1    
    27   25   26 ar   
    28   25   31 ar   
    29   26   27 1    
    30   26   28 ar   
    31   28   29 ar   
    32   29   30 ar   
    33   30   31 ar   
@<TRIPOS>SUBSTRUCTURE
     1 ANP401      1 GROUP   
@<TRIPOS>SET
ATOM$ORANGE STATIC     ATOMS   COLORGROUP SYSTEM 
20 14 14 15 15 17 17 19 19 21 21 23 23 25 25 26 26 29 \
29 31 31 

