#    Name: 6mn4_6_AM2
#    Modification time : Fri May 22 19:29:26 2020

@<TRIPOS>MOLECULE
6mn4_6_AM2
   37    40     1     0     0
SMALL
NO_CHARGES


@<TRIPOS>ATOM
      1 CA1       -14.7640  -15.7930   35.5140 C.3       1 AM2301      0.0000 
      2 CA2       -15.7990  -16.7690   36.0900 C.3       1 AM2301      0.0000 
      3 CA3       -17.0590  -16.9010   35.2190 C.3       1 AM2301      0.0000 
      4 CA4       -17.5910  -15.5950   34.7140 C.3       1 AM2301      0.0000 
      5 CA5       -16.4640  -14.7150   34.1090 C.3       1 AM2301      0.0000 
      6 CA6       -17.0020  -13.4660   33.5290 C.3       1 AM2301      0.0000 
      7 CA7       -17.9690  -13.8350   32.3850 C.3       1 AM2301      0.0000 
      8 CA8       -19.1760  -14.6550   32.9090 C.3       1 AM2301      0.0000 
      9 CA9       -19.4030  -11.8540   32.2560 C.3       1 AM2301      0.0000 
     10 OA4       -15.3960  -14.4610   35.1200 O.3       1 AM2301      0.0000 
     11 OA5       -18.7580  -15.8240   33.7670 O.3       1 AM2301      0.0000 
     12 NA2       -15.1840  -18.0930   36.2140 N.4       1 AM2301      0.0000 
     13 NA7       -18.3660  -12.6560   31.6170 N.4       1 AM2301      0.0000 
     14 OA6       -17.6830  -12.7600   34.5830 O.3       1 AM2301      0.0000 
     15 OA8       -19.8440  -15.1930   31.8600 O.3       1 AM2301      0.0000 
     16 OA1       -14.2200  -16.3300   34.3920 O.3       1 AM2301      0.0000 
     17 CB1       -21.1750  -14.8810   31.8430 C.3       1 AM2301      0.0000 
     18 CB2       -21.8890  -15.1210   33.1900 C.3       1 AM2301      0.0000 
     19 CB3       -23.3500  -14.9030   33.0980 C.3       1 AM2301      0.0000 
     20 CB4       -23.8230  -14.4700   31.7470 C.3       1 AM2301      0.0000 
     21 CB5       -23.2430  -15.3290   30.5930 C.3       1 AM2301      0.0000 
     22 CB6       -23.3430  -14.5650   29.3290 C.3       1 AM2301      0.0000 
     23 OB1       -21.8360  -15.6860   30.7730 O.3       1 AM2301      0.0000 
     24 NB4       -25.3050  -14.5510   31.7030 N.4       1 AM2301      0.0000 
     25 OB2       -21.6690  -16.4790   33.6160 O.3       1 AM2301      0.0000 
     26 OB3       -23.7320  -13.8810   34.0790 O.3       1 AM2301      0.0000 
     27 OB6       -22.0700  -14.4870   28.7660 O.3       1 AM2301      0.0000 
     28 CC1       -12.7690  -16.4260   34.3890 C.3       1 AM2301      0.0000 
     29 CC2       -12.3890  -16.5610   32.9200 C.3       1 AM2301      0.0000 
     30 CC3       -10.8770  -16.7960   32.7800 C.3       1 AM2301      0.0000 
     31 CC4       -10.0970  -15.5810   33.2390 C.3       1 AM2301      0.0000 
     32 CC5       -10.6710  -14.8400   34.4630 C.3       1 AM2301      0.0000 
     33 CC6       -12.0590  -15.2370   35.0460 C.3       1 AM2301      0.0000 
     34 NC4        -8.7290  -16.0260   33.5480 N.4       1 AM2301      0.0000 
     35 NC6       -11.8280  -15.5210   36.4690 N.4       1 AM2301      0.0000 
     36 OC2       -13.0890  -17.6430   32.3620 O.3       1 AM2301      0.0000 
     37 OC3       -10.5760  -17.0330   31.4260 O.3       1 AM2301      0.0000 
@<TRIPOS>BOND
     1    1    2 1    
     2    1   10 1    
     3    1   16 1    
     4    2    3 1    
     5    2   12 1    
     6    3    4 1    
     7    4    5 1    
     8    4   11 1    
     9    5    6 1    
    10    5   10 1    
    11    6    7 1    
    12    6   14 1    
    13    7    8 1    
    14    7   13 1    
    15    8   11 1    
    16    8   15 1    
    17    9   13 1    
    18   15   17 1    
    19   16   28 1    
    20   17   18 1    
    21   17   23 1    
    22   18   19 1    
    23   18   25 1    
    24   19   20 1    
    25   19   26 1    
    26   20   21 1    
    27   20   24 1    
    28   21   22 1    
    29   21   23 1    
    30   22   27 1    
    31   28   29 1    
    32   28   33 1    
    33   29   30 1    
    34   29   36 1    
    35   30   31 1    
    36   30   37 1    
    37   31   32 1    
    38   31   34 1    
    39   32   33 1    
    40   33   35 1    
@<TRIPOS>SUBSTRUCTURE
     1 AM2301      1 GROUP   
@<TRIPOS>SET

