#    Name: 6mn4_3_AM2_CAVITY_N1_4
#    Modification time : Fri May 22 19:29:13 2020

@<TRIPOS>MOLECULE
6mn4_3_AM2_CAVITY_N1_4
   81     0     5     0     0
SMALL
NO_CHARGES


@<TRIPOS>ATOM
      1 N         -21.5400   14.8500   34.0600 N.am      1 ALA2        0.0000 
      2 N         -24.6600   14.1000   35.0400 N.am      1 ALA2        0.0000 
      3 N         -20.8900   16.5700   35.1300 N.am      1 ALA2        0.0000 
      4 N         -21.1600   15.1300   35.4800 N.am      1 ALA2        0.0000 
      5 N         -22.5800   15.4700   35.8000 N.am      1 ALA2        0.0000 
      6 N         -24.2700   14.3800   36.4700 N.am      1 ALA2        0.0000 
      7 N         -21.9300   17.1900   36.8700 N.am      1 ALA2        0.0000 
      8 N         -22.2000   15.7500   37.2200 N.am      1 ALA2        0.0000 
      9 N         -23.6300   16.1000   37.5400 N.am      1 ALA2        0.0000 
     10 O         -19.8800   12.2000   37.3000 O.2       1 ALA2        0.0000 
     11 O         -20.1500   10.7700   37.6500 O.2       1 ALA2        0.0000 
     12 O         -19.5000   12.4800   38.7200 O.2       1 ALA2        0.0000 
     13 O         -19.7600   11.0500   39.0700 O.2       1 ALA2        0.0000 
     14 N         -21.9900    7.0900   40.4500 N.am      1 ALA2        0.0000 
     15 O         -19.3800   11.3300   40.5000 O.2       1 ALA2        0.0000 
     16 NZ        -23.8900   14.6600   37.8900 N.4       2 LYS4        0.0000 
     17 NZ        -23.2400   16.3800   38.9600 N.4       2 LYS4        0.0000 
     18 NZ        -22.0800   14.6000   39.0000 N.4       2 LYS4        0.0000 
     19 NZ        -22.3500   13.1700   39.3500 N.4       2 LYS4        0.0000 
     20 NZ        -22.8600   16.6600   40.3800 N.4       2 LYS4        0.0000 
     21 NZ        -21.9700   13.4500   40.7700 N.4       2 LYS4        0.0000 
     22 NZ        -23.6600   12.3600   41.4400 N.4       2 LYS4        0.0000 
     23 NZ        -23.9300   10.9200   41.8000 N.4       2 LYS4        0.0000 
     24 NZ        -22.7700    9.1500   41.8300 N.4       2 LYS4        0.0000 
     25 NZ        -23.0300    7.7200   42.1900 N.4       2 LYS4        0.0000 
     26 NZ        -24.4600    8.0600   42.5000 N.4       2 LYS4        0.0000 
     27 NZ        -22.4800   16.9400   41.8100 N.4       2 LYS4        0.0000 
     28 NZ        -21.5800   13.7300   42.2000 N.4       2 LYS4        0.0000 
     29 NZ        -21.8500   12.2900   42.5500 N.4       2 LYS4        0.0000 
     30 NZ        -22.1200   10.8600   42.9000 N.4       2 LYS4        0.0000 
     31 NZ        -23.5400   11.2000   43.2200 N.4       2 LYS4        0.0000 
     32 NZ        -23.8100    9.7700   43.5700 N.4       2 LYS4        0.0000 
     33 CZ        -19.3500   15.0700   36.5900 C.ar      3 PHE5        0.0000 
     34 CZ        -19.6100   13.6400   36.9400 C.ar      3 PHE5        0.0000 
     35 CZ        -18.9700   15.3500   38.0100 C.ar      3 PHE5        0.0000 
     36 CZ        -20.3900   15.6900   38.3300 C.ar      3 PHE5        0.0000 
     37 CZ        -19.2300   13.9200   38.3600 C.ar      3 PHE5        0.0000 
     38 CZ        -21.4300   16.3100   40.0700 C.ar      3 PHE5        0.0000 
     39 CZ        -18.8500   14.2000   39.7900 C.ar      3 PHE5        0.0000 
     40 CZ        -20.2800   14.5400   40.1000 C.ar      3 PHE5        0.0000 
     41 CZ        -21.7000   14.8800   40.4200 C.ar      3 PHE5        0.0000 
     42 CZ        -19.1200   12.7600   40.1400 C.ar      3 PHE5        0.0000 
     43 CZ        -21.3200   15.1600   41.8400 C.ar      3 PHE5        0.0000 
     44 CZ        -18.7300   13.0400   41.5600 C.ar      3 PHE5        0.0000 
     45 CZ        -20.1600   13.3900   41.8800 C.ar      3 PHE5        0.0000 
     46 CZ        -19.0000   11.6100   41.9200 C.ar      3 PHE5        0.0000 
     47 CZ        -20.4300   11.9500   42.2300 C.ar      3 PHE5        0.0000 
     48 CZ        -20.0400   12.2300   43.6600 C.ar      3 PHE5        0.0000 
     49 CA        -20.5100   16.8400   36.5500 C.3       4 GLY6        0.0000 
     50 CA        -20.1300   17.1200   37.9700 C.3       4 GLY6        0.0000 
     51 CA        -21.5500   17.4700   38.2900 C.3       4 GLY6        0.0000 
     52 CA        -20.0300    9.6200   39.4300 C.3       4 GLY6        0.0000 
     53 CA        -20.3000    8.1800   39.7800 C.3       4 GLY6        0.0000 
     54 CA        -21.7200    8.5300   40.0900 C.3       4 GLY6        0.0000 
     55 CA        -19.6500    9.9000   40.8500 C.3       4 GLY6        0.0000 
     56 CA        -21.3400    8.8100   41.5200 C.3       4 GLY6        0.0000 
     57 CA        -24.1900    9.4900   42.1500 C.3       4 GLY6        0.0000 
     58 CA        -19.7800   13.6700   43.3000 C.3       4 GLY6        0.0000 
     59 CA        -21.4700   12.5700   43.9700 C.3       4 GLY6        0.0000 
     60 DU        -23.2300   13.7600   34.7300 H         5 CUB7        0.0000 
     61 DU        -22.8500   14.0400   36.1500 H         5 CUB7        0.0000 
     62 DU        -23.1100   12.6100   36.5000 H         5 CUB7        0.0000 
     63 DU        -20.7700   15.4100   36.9000 H         5 CUB7        0.0000 
     64 DU        -21.0400   13.9800   37.2600 H         5 CUB7        0.0000 
     65 DU        -22.4700   14.3200   37.5700 H         5 CUB7        0.0000 
     66 DU        -21.3100   12.5500   37.6100 H         5 CUB7        0.0000 
     67 DU        -22.7300   12.8900   37.9300 H         5 CUB7        0.0000 
     68 DU        -21.5700   11.1100   37.9600 H         5 CUB7        0.0000 
     69 DU        -21.8200   16.0300   38.6400 H         5 CUB7        0.0000 
     70 DU        -20.6600   14.2600   38.6800 H         5 CUB7        0.0000 
     71 DU        -20.9200   12.8300   39.0300 H         5 CUB7        0.0000 
     72 DU        -21.1900   11.3900   39.3900 H         5 CUB7        0.0000 
     73 DU        -22.6200   11.7300   39.7000 H         5 CUB7        0.0000 
     74 DU        -21.4600    9.9600   39.7400 H         5 CUB7        0.0000 
     75 DU        -22.8800   10.3000   40.0600 H         5 CUB7        0.0000 
     76 DU        -23.1500    8.8700   40.4100 H         5 CUB7        0.0000 
     77 DU        -20.5400   13.1100   40.4600 H         5 CUB7        0.0000 
     78 DU        -20.8100   11.6700   40.8100 H         5 CUB7        0.0000 
     79 DU        -22.2300   12.0100   41.1300 H         5 CUB7        0.0000 
     80 DU        -21.0700   10.2400   41.1600 H         5 CUB7        0.0000 
     81 DU        -22.5000   10.5800   41.4800 H         5 CUB7        0.0000 
@<TRIPOS>BOND
@<TRIPOS>SUBSTRUCTURE
     1 ALA2        1 GROUP   
     2 LYS4       16 GROUP   
     3 PHE5       33 GROUP   
     4 GLY6       49 GROUP   
     5 CUB7       60 GROUP   
@<TRIPOS>SET

