#    Name: 6mn4_3_AM2_CAVITY_N1_12
#    Modification time : Fri May 22 19:29:13 2020

@<TRIPOS>MOLECULE
6mn4_3_AM2_CAVITY_N1_12
   98     0     6     0     0
SMALL
NO_CHARGES


@<TRIPOS>ATOM
      1 OG        -21.1700   17.7500   39.7100 O.3       1 SER1        0.0000 
      2 OG        -21.7300   11.1400   44.3300 O.3       1 SER1        0.0000 
      3 OG        -22.0000    9.7100   44.6800 O.3       1 SER1        0.0000 
      4 N         -21.5400   14.8500   34.0600 N.am      2 ALA2        0.0000 
      5 N         -24.6600   14.1000   35.0400 N.am      2 ALA2        0.0000 
      6 N         -20.8900   16.5700   35.1300 N.am      2 ALA2        0.0000 
      7 N         -22.3200   16.9100   35.4400 N.am      2 ALA2        0.0000 
      8 N         -21.1600   15.1300   35.4800 N.am      2 ALA2        0.0000 
      9 N         -22.5800   15.4700   35.8000 N.am      2 ALA2        0.0000 
     10 N         -24.2700   14.3800   36.4700 N.am      2 ALA2        0.0000 
     11 N         -21.9300   17.1900   36.8700 N.am      2 ALA2        0.0000 
     12 N         -22.2000   15.7500   37.2200 N.am      2 ALA2        0.0000 
     13 N         -23.6300   16.1000   37.5400 N.am      2 ALA2        0.0000 
     14 O         -19.8800   12.2000   37.3000 O.2       2 ALA2        0.0000 
     15 O         -20.1500   10.7700   37.6500 O.2       2 ALA2        0.0000 
     16 N         -22.9800   17.8100   38.6100 N.am      2 ALA2        0.0000 
     17 O         -19.5000   12.4800   38.7200 O.2       2 ALA2        0.0000 
     18 O         -19.7600   11.0500   39.0700 O.2       2 ALA2        0.0000 
     19 N         -21.9900    7.0900   40.4500 N.am      2 ALA2        0.0000 
     20 O         -19.3800   11.3300   40.5000 O.2       2 ALA2        0.0000 
     21 NZ        -23.8900   14.6600   37.8900 N.4       3 LYS4        0.0000 
     22 NZ        -23.2400   16.3800   38.9600 N.4       3 LYS4        0.0000 
     23 NZ        -22.0800   14.6000   39.0000 N.4       3 LYS4        0.0000 
     24 NZ        -22.3500   13.1700   39.3500 N.4       3 LYS4        0.0000 
     25 NZ        -22.8600   16.6600   40.3800 N.4       3 LYS4        0.0000 
     26 NZ        -21.9700   13.4500   40.7700 N.4       3 LYS4        0.0000 
     27 NZ        -23.6600   12.3600   41.4400 N.4       3 LYS4        0.0000 
     28 NZ        -23.9300   10.9200   41.8000 N.4       3 LYS4        0.0000 
     29 NZ        -22.7700    9.1500   41.8300 N.4       3 LYS4        0.0000 
     30 NZ        -23.0300    7.7200   42.1900 N.4       3 LYS4        0.0000 
     31 NZ        -24.4600    8.0600   42.5000 N.4       3 LYS4        0.0000 
     32 NZ        -22.4800   16.9400   41.8100 N.4       3 LYS4        0.0000 
     33 NZ        -21.5800   13.7300   42.2000 N.4       3 LYS4        0.0000 
     34 NZ        -21.8500   12.2900   42.5500 N.4       3 LYS4        0.0000 
     35 NZ        -22.1200   10.8600   42.9000 N.4       3 LYS4        0.0000 
     36 NZ        -23.5400   11.2000   43.2200 N.4       3 LYS4        0.0000 
     37 NZ        -20.9600    9.0900   42.9400 N.4       3 LYS4        0.0000 
     38 NZ        -22.3800    9.4300   43.2600 N.4       3 LYS4        0.0000 
     39 NZ        -23.8100    9.7700   43.5700 N.4       3 LYS4        0.0000 
     40 CZ        -21.6700   18.6200   36.5100 C.ar      4 PHE5        0.0000 
     41 CZ        -19.3500   15.0700   36.5900 C.ar      4 PHE5        0.0000 
     42 CZ        -19.6100   13.6400   36.9400 C.ar      4 PHE5        0.0000 
     43 CZ        -18.9700   15.3500   38.0100 C.ar      4 PHE5        0.0000 
     44 CZ        -20.3900   15.6900   38.3300 C.ar      4 PHE5        0.0000 
     45 CZ        -19.2300   13.9200   38.3600 C.ar      4 PHE5        0.0000 
     46 CZ        -21.4300   16.3100   40.0700 C.ar      4 PHE5        0.0000 
     47 CZ        -18.8500   14.2000   39.7900 C.ar      4 PHE5        0.0000 
     48 CZ        -20.2800   14.5400   40.1000 C.ar      4 PHE5        0.0000 
     49 CZ        -21.7000   14.8800   40.4200 C.ar      4 PHE5        0.0000 
     50 CZ        -19.1200   12.7600   40.1400 C.ar      4 PHE5        0.0000 
     51 CZ        -21.3200   15.1600   41.8400 C.ar      4 PHE5        0.0000 
     52 CZ        -18.7300   13.0400   41.5600 C.ar      4 PHE5        0.0000 
     53 CZ        -20.1600   13.3900   41.8800 C.ar      4 PHE5        0.0000 
     54 CZ        -19.0000   11.6100   41.9200 C.ar      4 PHE5        0.0000 
     55 CZ        -20.4300   11.9500   42.2300 C.ar      4 PHE5        0.0000 
     56 CZ        -19.2700   10.1800   42.2700 C.ar      4 PHE5        0.0000 
     57 CZ        -20.6900   10.5200   42.5900 C.ar      4 PHE5        0.0000 
     58 CZ        -20.0400   12.2300   43.6600 C.ar      4 PHE5        0.0000 
     59 CZ        -19.1500    9.0200   44.0500 C.ar      4 PHE5        0.0000 
     60 CZ        -20.5800    9.3700   44.3600 C.ar      4 PHE5        0.0000 
     61 CA        -20.2400   18.2800   36.2000 C.3       5 GLY6        0.0000 
     62 CA        -20.5100   16.8400   36.5500 C.3       5 GLY6        0.0000 
     63 CA        -21.2800   18.9000   37.9400 C.3       5 GLY6        0.0000 
     64 CA        -22.7100   19.2400   38.2500 C.3       5 GLY6        0.0000 
     65 CA        -20.1300   17.1200   37.9700 C.3       5 GLY6        0.0000 
     66 CA        -21.5500   17.4700   38.2900 C.3       5 GLY6        0.0000 
     67 CA        -20.0300    9.6200   39.4300 C.3       5 GLY6        0.0000 
     68 CA        -20.3000    8.1800   39.7800 C.3       5 GLY6        0.0000 
     69 CA        -21.7200    8.5300   40.0900 C.3       5 GLY6        0.0000 
     70 CA        -22.5900   18.0900   40.0300 C.3       5 GLY6        0.0000 
     71 CA        -19.6500    9.9000   40.8500 C.3       5 GLY6        0.0000 
     72 CA        -21.3400    8.8100   41.5200 C.3       5 GLY6        0.0000 
     73 CA        -24.1900    9.4900   42.1500 C.3       5 GLY6        0.0000 
     74 CA        -19.5300    8.7400   42.6300 C.3       5 GLY6        0.0000 
     75 CA        -19.7800   13.6700   43.3000 C.3       5 GLY6        0.0000 
     76 CA        -21.4700   12.5700   43.9700 C.3       5 GLY6        0.0000 
     77 DU        -23.2300   13.7600   34.7300 H         6 CUB7        0.0000 
     78 DU        -22.8500   14.0400   36.1500 H         6 CUB7        0.0000 
     79 DU        -23.1100   12.6100   36.5000 H         6 CUB7        0.0000 
     80 DU        -20.7700   15.4100   36.9000 H         6 CUB7        0.0000 
     81 DU        -21.0400   13.9800   37.2600 H         6 CUB7        0.0000 
     82 DU        -22.4700   14.3200   37.5700 H         6 CUB7        0.0000 
     83 DU        -21.3100   12.5500   37.6100 H         6 CUB7        0.0000 
     84 DU        -22.7300   12.8900   37.9300 H         6 CUB7        0.0000 
     85 DU        -21.5700   11.1100   37.9600 H         6 CUB7        0.0000 
     86 DU        -21.8200   16.0300   38.6400 H         6 CUB7        0.0000 
     87 DU        -20.6600   14.2600   38.6800 H         6 CUB7        0.0000 
     88 DU        -20.9200   12.8300   39.0300 H         6 CUB7        0.0000 
     89 DU        -21.1900   11.3900   39.3900 H         6 CUB7        0.0000 
     90 DU        -22.6200   11.7300   39.7000 H         6 CUB7        0.0000 
     91 DU        -21.4600    9.9600   39.7400 H         6 CUB7        0.0000 
     92 DU        -22.8800   10.3000   40.0600 H         6 CUB7        0.0000 
     93 DU        -23.1500    8.8700   40.4100 H         6 CUB7        0.0000 
     94 DU        -20.5400   13.1100   40.4600 H         6 CUB7        0.0000 
     95 DU        -20.8100   11.6700   40.8100 H         6 CUB7        0.0000 
     96 DU        -22.2300   12.0100   41.1300 H         6 CUB7        0.0000 
     97 DU        -21.0700   10.2400   41.1600 H         6 CUB7        0.0000 
     98 DU        -22.5000   10.5800   41.4800 H         6 CUB7        0.0000 
@<TRIPOS>BOND
@<TRIPOS>SUBSTRUCTURE
     1 SER1        1 GROUP   
     2 ALA2        4 GROUP   
     3 LYS4       21 GROUP   
     4 PHE5       40 GROUP   
     5 GLY6       61 GROUP   
     6 CUB7       77 GROUP   
@<TRIPOS>SET

