#    Name: 6mn4_5_AM2
#    Modification time : Fri May 22 19:29:21 2020

@<TRIPOS>MOLECULE
6mn4_5_AM2
   37    40     1     0     0
SMALL
NO_CHARGES


@<TRIPOS>ATOM
      1 CA1       -35.1030   -8.3860  -53.5500 C.3       1 AM2301      0.0000 
      2 CA2       -34.6010   -9.7700  -53.9780 C.3       1 AM2301      0.0000 
      3 CA3       -33.8140  -10.4810  -52.8650 C.3       1 AM2301      0.0000 
      4 CA4       -32.7810   -9.6060  -52.2240 C.3       1 AM2301      0.0000 
      5 CA5       -33.3820   -8.2400  -51.7950 C.3       1 AM2301      0.0000 
      6 CA6       -32.3820   -7.4070  -51.0970 C.3       1 AM2301      0.0000 
      7 CA7       -31.9340   -8.1390  -49.8170 C.3       1 AM2301      0.0000 
      8 CA8       -31.2800   -9.5120  -50.1270 C.3       1 AM2301      0.0000 
      9 CA9       -29.7020   -7.2030  -49.4220 C.3       1 AM2301      0.0000 
     10 OA4       -33.9830   -7.5310  -52.9640 O.3       1 AM2301      0.0000 
     11 OA5       -32.0780  -10.3460  -51.0980 O.3       1 AM2301      0.0000 
     12 NA2       -35.7540  -10.5960  -54.3430 N.4       1 AM2301      0.0000 
     13 NA7       -31.0930   -7.2800  -48.9860 N.4       1 AM2301      0.0000 
     14 OA6       -31.2810   -7.2050  -52.0030 O.3       1 AM2301      0.0000 
     15 OA8       -31.2210  -10.2450  -48.9880 O.3       1 AM2301      0.0000 
     16 OA1       -36.0320   -8.5460  -52.5780 O.3       1 AM2301      0.0000 
     17 CB1       -29.9530  -10.6200  -48.6530 C.3       1 AM2301      0.0000 
     18 CB2       -29.2070  -11.3130  -49.8110 C.3       1 AM2301      0.0000 
     19 CB3       -27.8820  -11.8190  -49.3980 C.3       1 AM2301      0.0000 
     20 CB4       -27.5420  -11.5480  -47.9680 C.3       1 AM2301      0.0000 
     21 CB5       -28.6870  -11.9090  -46.9880 C.3       1 AM2301      0.0000 
     22 CB6       -28.4520  -11.2030  -45.7070 C.3       1 AM2301      0.0000 
     23 OB1       -30.0150  -11.5290  -47.4700 O.3       1 AM2301      0.0000 
     24 NB4       -26.3400  -12.3370  -47.5990 N.4       1 AM2301      0.0000 
     25 OB2       -29.9870  -12.4270  -50.2820 O.3       1 AM2301      0.0000 
     26 OB3       -26.8650  -11.1880  -50.2450 O.3       1 AM2301      0.0000 
     27 OB6       -29.6380  -10.5910  -45.3060 O.3       1 AM2301      0.0000 
     28 CC1       -37.3040   -7.9000  -52.8470 C.3       1 AM2301      0.0000 
     29 CC2       -37.9450   -7.6740  -51.4840 C.3       1 AM2301      0.0000 
     30 CC3       -39.3610   -7.1240  -51.6910 C.3       1 AM2301      0.0000 
     31 CC4       -39.2820   -5.7040  -52.2120 C.3       1 AM2301      0.0000 
     32 CC5       -38.1570   -5.4400  -53.2330 C.3       1 AM2301      0.0000 
     33 CC6       -37.1880   -6.5900  -53.6360 C.3       1 AM2301      0.0000 
     34 NC4       -40.5770   -5.3900  -52.8310 N.4       1 AM2301      0.0000 
     35 NC6       -37.4220   -6.8600  -55.0610 N.4       1 AM2301      0.0000 
     36 OC2       -38.0040   -8.8880  -50.7810 O.3       1 AM2301      0.0000 
     37 OC3       -40.0490   -7.1360  -50.4650 O.3       1 AM2301      0.0000 
@<TRIPOS>BOND
     1    1    2 1    
     2    1   10 1    
     3    1   16 1    
     4    2    3 1    
     5    2   12 1    
     6    3    4 1    
     7    4    5 1    
     8    4   11 1    
     9    5    6 1    
    10    5   10 1    
    11    6    7 1    
    12    6   14 1    
    13    7    8 1    
    14    7   13 1    
    15    8   11 1    
    16    8   15 1    
    17    9   13 1    
    18   15   17 1    
    19   16   28 1    
    20   17   18 1    
    21   17   23 1    
    22   18   19 1    
    23   18   25 1    
    24   19   20 1    
    25   19   26 1    
    26   20   21 1    
    27   20   24 1    
    28   21   22 1    
    29   21   23 1    
    30   22   27 1    
    31   28   29 1    
    32   28   33 1    
    33   29   30 1    
    34   29   36 1    
    35   30   31 1    
    36   30   37 1    
    37   31   32 1    
    38   31   34 1    
    39   32   33 1    
    40   33   35 1    
@<TRIPOS>SUBSTRUCTURE
     1 AM2301      1 GROUP   
@<TRIPOS>SET

