#    Name: 6mn4_4_AM2_CAVITY_N1_8
#    Modification time : Fri May 22 19:29:18 2020

@<TRIPOS>MOLECULE
6mn4_4_AM2_CAVITY_N1_8
  150     0     7     0     0
SMALL
NO_CHARGES


@<TRIPOS>ATOM
      1 OG        -14.1800   15.1000  -61.2500 O.3       1 SER1        0.0000 
      2 OG        -15.3600   19.4900  -57.0500 O.3       1 SER1        0.0000 
      3 OG        -13.2800   20.8600  -56.3000 O.3       1 SER1        0.0000 
      4 OG        -14.9700   19.7700  -55.6300 O.3       1 SER1        0.0000 
      5 OG        -12.9000   21.1400  -54.8800 O.3       1 SER1        0.0000 
      6 OG        -14.3200   21.4800  -54.5600 O.3       1 SER1        0.0000 
      7 OG        -15.7500   21.8200  -54.2400 O.3       1 SER1        0.0000 
      8 OG        -14.5900   20.0500  -54.2100 O.3       1 SER1        0.0000 
      9 OG        -15.3700   22.1000  -52.8200 O.3       1 SER1        0.0000 
     10 OG        -15.6300   20.6700  -52.4700 O.3       1 SER1        0.0000 
     11 OG        -17.0600   21.0100  -52.1500 O.3       1 SER1        0.0000 
     12 N         -14.5700   14.8200  -62.6700 N.am      2 ALA2        0.0000 
     13 N         -14.8300   13.3800  -62.3200 N.am      2 ALA2        0.0000 
     14 N         -16.2600   13.7300  -62.0000 N.am      2 ALA2        0.0000 
     15 N         -17.6800   14.0700  -61.6900 N.am      2 ALA2        0.0000 
     16 N         -12.7600   14.7500  -61.5600 N.am      2 ALA2        0.0000 
     17 N         -18.4600   16.1200  -60.3000 N.am      2 ALA2        0.0000 
     18 N         -13.0200   13.3200  -61.2100 N.am      2 ALA2        0.0000 
     19 N         -16.1400   12.5700  -60.2200 N.am      2 ALA2        0.0000 
     20 N         -14.3300   12.5100  -59.1200 N.am      2 ALA2        0.0000 
     21 N         -15.7600   12.8500  -58.8000 N.am      2 ALA2        0.0000 
     22 O         -15.8900   16.6200  -56.3500 O.2       2 ALA2        0.0000 
     23 O         -17.5800   15.5300  -55.6800 O.2       2 ALA2        0.0000 
     24 O         -16.9300   17.2400  -54.6100 O.2       2 ALA2        0.0000 
     25 O         -17.2000   15.8100  -54.2500 O.2       2 ALA2        0.0000 
     26 N          -9.7800   21.8900  -55.8600 N.am      2 ALA2        0.0000 
     27 O         -18.2400   16.4300  -52.5200 O.2       2 ALA2        0.0000 
     28 N         -11.0900   21.0800  -53.7700 N.am      2 ALA2        0.0000 
     29 N         -12.5200   21.4200  -53.4500 N.am      2 ALA2        0.0000 
     30 N         -12.7800   19.9900  -53.1000 N.am      2 ALA2        0.0000 
     31 N         -13.5600   22.0400  -51.7100 N.am      2 ALA2        0.0000 
     32 N         -13.8300   20.6100  -51.3600 N.am      2 ALA2        0.0000 
     33 N         -15.2500   20.9500  -51.0500 N.am      2 ALA2        0.0000 
     34 N         -15.5200   19.5200  -50.6900 N.am      2 ALA2        0.0000 
     35 N         -18.9000   17.3400  -49.3500 N.am      2 ALA2        0.0000 
     36 N         -15.4000   18.3600  -48.9100 N.am      2 ALA2        0.0000 
     37 N         -18.5200   17.6200  -47.9300 N.am      2 ALA2        0.0000 
     38 N         -19.9400   17.9600  -47.6100 N.am      2 ALA2        0.0000 
     39 OD1       -12.3800   15.0300  -60.1400 O.co2     3 ASP3        0.0000 
     40 OD1       -12.6400   13.6000  -59.7900 O.co2     3 ASP3        0.0000 
     41 OD1       -14.0700   13.9400  -59.4700 O.co2     3 ASP3        0.0000 
     42 OD1       -11.4800   11.8200  -59.7500 O.co2     3 ASP3        0.0000 
     43 OD1       -12.9100   12.1700  -59.4300 O.co2     3 ASP3        0.0000 
     44 OD1       -13.4200   15.6600  -58.4000 O.co2     3 ASP3        0.0000 
     45 OD1       -13.6900   14.2200  -58.0500 O.co2     3 ASP3        0.0000 
     46 OD1       -12.7700   17.3700  -57.3300 O.co2     3 ASP3        0.0000 
     47 OD1       -13.0400   15.9400  -56.9800 O.co2     3 ASP3        0.0000 
     48 OD1       -13.3000   14.5000  -56.6200 O.co2     3 ASP3        0.0000 
     49 OD1       -12.6500   16.2200  -55.5500 O.co2     3 ASP3        0.0000 
     50 NZ        -11.8700   11.5400  -61.1700 N.4       4 LYS4        0.0000 
     51 NZ        -13.2900   11.8900  -60.8600 N.4       4 LYS4        0.0000 
     52 NZ        -13.8000   15.3800  -59.8200 N.4       4 LYS4        0.0000 
     53 NZ        -14.3100   18.8700  -58.7900 N.4       4 LYS4        0.0000 
     54 NZ        -14.5800   17.4300  -58.4400 N.4       4 LYS4        0.0000 
     55 NZ        -13.9300   19.1500  -57.3700 N.4       4 LYS4        0.0000 
     56 NZ        -14.2000   17.7100  -57.0200 N.4       4 LYS4        0.0000 
     57 NZ        -11.5900   21.9500  -56.9700 N.4       4 LYS4        0.0000 
     58 NZ        -11.8600   20.5200  -56.6200 N.4       4 LYS4        0.0000 
     59 NZ        -12.1200   19.0800  -56.2600 N.4       4 LYS4        0.0000 
     60 NZ        -13.5500   19.4300  -55.9500 N.4       4 LYS4        0.0000 
     61 NZ        -12.3900   17.6500  -55.9100 N.4       4 LYS4        0.0000 
     62 NZ        -10.0500   20.4500  -55.5100 N.4       4 LYS4        0.0000 
     63 NZ        -11.4700   20.8000  -55.1900 N.4       4 LYS4        0.0000 
     64 NZ        -13.1600   19.7100  -54.5200 N.4       4 LYS4        0.0000 
     65 NZ        -13.4300   18.2700  -54.1700 N.4       4 LYS4        0.0000 
     66 NZ        -11.3600   19.6400  -53.4200 N.4       4 LYS4        0.0000 
     67 CZ        -15.9900   15.1600  -62.3500 C.ar      5 PHE5        0.0000 
     68 CZ        -17.4200   15.5000  -62.0400 C.ar      5 PHE5        0.0000 
     69 CZ        -15.6100   15.4400  -60.9300 C.ar      5 PHE5        0.0000 
     70 CZ        -17.0400   15.7800  -60.6200 C.ar      5 PHE5        0.0000 
     71 CZ        -16.1200   18.9300  -59.9000 C.ar      5 PHE5        0.0000 
     72 CZ        -14.9600   17.1500  -59.8600 C.ar      5 PHE5        0.0000 
     73 CZ        -16.3900   17.5000  -59.5500 C.ar      5 PHE5        0.0000 
     74 CZ        -17.8100   17.8400  -59.2300 C.ar      5 PHE5        0.0000 
     75 CZ        -18.0800   16.4000  -58.8800 C.ar      5 PHE5        0.0000 
     76 CZ        -15.7400   19.2100  -58.4800 C.ar      5 PHE5        0.0000 
     77 CZ        -17.1600   19.5500  -58.1600 C.ar      5 PHE5        0.0000 
     78 CZ        -17.4300   18.1200  -57.8100 C.ar      5 PHE5        0.0000 
     79 CZ        -17.7000   16.6800  -57.4500 C.ar      5 PHE5        0.0000 
     80 CZ        -17.9600   15.2500  -57.1000 C.ar      5 PHE5        0.0000 
     81 CZ        -17.0500   18.4000  -56.3800 C.ar      5 PHE5        0.0000 
     82 CZ        -16.4000   20.1100  -55.3100 C.ar      5 PHE5        0.0000 
     83 CZ        -16.6700   18.6800  -54.9600 C.ar      5 PHE5        0.0000 
     84 CZ        -14.0600   22.9100  -54.9100 C.ar      5 PHE5        0.0000 
     85 CZ        -16.0200   20.3900  -53.8900 C.ar      5 PHE5        0.0000 
     86 CZ        -16.2800   18.9600  -53.5400 C.ar      5 PHE5        0.0000 
     87 CZ        -16.5500   17.5200  -53.1800 C.ar      5 PHE5        0.0000 
     88 CZ        -17.9700   17.8700  -52.8700 C.ar      5 PHE5        0.0000 
     89 CZ        -17.3300   19.5800  -51.8000 C.ar      5 PHE5        0.0000 
     90 CZ        -17.5900   18.1500  -51.4500 C.ar      5 PHE5        0.0000 
     91 CA        -11.6000   12.9800  -61.5300 C.3       6 GLY6        0.0000 
     92 CA        -14.4500   13.6600  -60.8900 C.3       6 GLY6        0.0000 
     93 CA        -17.3000   14.3500  -60.2600 C.3       6 GLY6        0.0000 
     94 CA        -14.7200   12.2300  -60.5400 C.3       6 GLY6        0.0000 
     95 CA        -16.9200   14.6300  -58.8400 C.3       6 GLY6        0.0000 
     96 CA        -16.5400   14.9100  -57.4200 C.3       6 GLY6        0.0000 
     97 CA        -16.8000   13.4800  -57.0600 C.3       6 GLY6        0.0000 
     98 CA        -11.2100   22.2300  -55.5500 C.3       6 GLY6        0.0000 
     99 CA        -12.6300   22.5700  -55.2300 C.3       6 GLY6        0.0000 
    100 CA        -18.5100   15.0000  -52.1600 C.3       6 GLY6        0.0000 
    101 CA        -10.8200   22.5100  -54.1200 C.3       6 GLY6        0.0000 
    102 CA        -12.2500   22.8500  -53.8100 C.3       6 GLY6        0.0000 
    103 CA        -13.6800   23.1900  -53.4900 C.3       6 GLY6        0.0000 
    104 CA        -18.7500   19.9200  -51.4800 C.3       6 GLY6        0.0000 
    105 CA        -19.0200   18.4900  -51.1300 C.3       6 GLY6        0.0000 
    106 CA        -17.8600   16.7100  -51.0900 C.3       6 GLY6        0.0000 
    107 CA        -19.2800   17.0600  -50.7800 C.3       6 GLY6        0.0000 
    108 CA        -16.6800   21.2900  -50.7300 C.3       6 GLY6        0.0000 
    109 CA        -16.9400   19.8600  -50.3800 C.3       6 GLY6        0.0000 
    110 CA        -18.3700   20.2000  -50.0600 C.3       6 GLY6        0.0000 
    111 CA        -18.6400   18.7700  -49.7100 C.3       6 GLY6        0.0000 
    112 CA        -20.0600   19.1100  -49.3900 C.3       6 GLY6        0.0000 
    113 CA        -17.4800   16.9900  -49.6700 C.3       6 GLY6        0.0000 
    114 CA        -16.8300   18.7100  -48.6000 C.3       6 GLY6        0.0000 
    115 CA        -18.2500   19.0500  -48.2800 C.3       6 GLY6        0.0000 
    116 CA        -19.6800   19.3900  -47.9700 C.3       6 GLY6        0.0000 
    117 CA        -16.4400   18.9900  -47.1800 C.3       6 GLY6        0.0000 
    118 CA        -17.8700   19.3300  -46.8600 C.3       6 GLY6        0.0000 
    119 DU        -15.8800   14.0100  -60.5800 H         7 CUB7        0.0000 
    120 DU        -15.2300   15.7200  -59.5100 H         7 CUB7        0.0000 
    121 DU        -16.6500   16.0600  -59.1900 H         7 CUB7        0.0000 
    122 DU        -15.4900   14.2900  -59.1500 H         7 CUB7        0.0000 
    123 DU        -16.0000   17.7800  -58.1200 H         7 CUB7        0.0000 
    124 DU        -14.8500   16.0000  -58.0900 H         7 CUB7        0.0000 
    125 DU        -16.2700   16.3400  -57.7700 H         7 CUB7        0.0000 
    126 DU        -15.1100   14.5700  -57.7300 H         7 CUB7        0.0000 
    127 DU        -15.6200   18.0600  -56.7000 H         7 CUB7        0.0000 
    128 DU        -14.4600   16.2800  -56.6600 H         7 CUB7        0.0000 
    129 DU        -14.7300   14.8500  -56.3100 H         7 CUB7        0.0000 
    130 DU        -16.1500   15.1900  -55.9900 H         7 CUB7        0.0000 
    131 DU        -13.8100   17.9900  -55.5900 H         7 CUB7        0.0000 
    132 DU        -15.2400   18.3400  -55.2800 H         7 CUB7        0.0000 
    133 DU        -14.0800   16.5600  -55.2400 H         7 CUB7        0.0000 
    134 DU        -15.5100   16.9000  -54.9200 H         7 CUB7        0.0000 
    135 DU        -14.3500   15.1300  -54.8900 H         7 CUB7        0.0000 
    136 DU        -15.7700   15.4700  -54.5700 H         7 CUB7        0.0000 
    137 DU        -14.8600   18.6200  -53.8500 H         7 CUB7        0.0000 
    138 DU        -13.7000   16.8400  -53.8200 H         7 CUB7        0.0000 
    139 DU        -15.1200   17.1800  -53.5000 H         7 CUB7        0.0000 
    140 DU        -16.8200   16.0900  -52.8300 H         7 CUB7        0.0000 
    141 DU        -13.9400   21.7600  -53.1400 H         7 CUB7        0.0000 
    142 DU        -14.2100   20.3300  -52.7800 H         7 CUB7        0.0000 
    143 DU        -14.4700   18.8900  -52.4300 H         7 CUB7        0.0000 
    144 DU        -15.9000   19.2400  -52.1100 H         7 CUB7        0.0000 
    145 DU        -16.1700   17.8000  -51.7600 H         7 CUB7        0.0000 
    146 DU        -16.4300   16.3700  -51.4100 H         7 CUB7        0.0000 
    147 DU        -15.7800   18.0800  -50.3400 H         7 CUB7        0.0000 
    148 DU        -17.2100   18.4300  -50.0200 H         7 CUB7        0.0000 
    149 DU        -17.0900   17.2700  -48.2500 H         7 CUB7        0.0000 
    150 DU        -18.1400   17.9000  -46.5100 H         7 CUB7        0.0000 
@<TRIPOS>BOND
@<TRIPOS>SUBSTRUCTURE
     1 SER1        1 GROUP   
     2 ALA2       12 GROUP   
     3 ASP3       39 GROUP   
     4 LYS4       50 GROUP   
     5 PHE5       67 GROUP   
     6 GLY6       91 GROUP   
     7 CUB7      119 GROUP   
@<TRIPOS>SET

