#    Name: 6mn4_4_AM2_CAVITY_N1_4
#    Modification time : Fri May 22 19:29:18 2020

@<TRIPOS>MOLECULE
6mn4_4_AM2_CAVITY_N1_4
   98     0     7     0     0
SMALL
NO_CHARGES


@<TRIPOS>ATOM
      1 OG        -15.3600   19.4900  -57.0500 O.3       1 SER1        0.0000 
      2 OG        -13.2800   20.8600  -56.3000 O.3       1 SER1        0.0000 
      3 OG        -14.9700   19.7700  -55.6300 O.3       1 SER1        0.0000 
      4 OG        -12.9000   21.1400  -54.8800 O.3       1 SER1        0.0000 
      5 OG        -14.3200   21.4800  -54.5600 O.3       1 SER1        0.0000 
      6 OG        -15.7500   21.8200  -54.2400 O.3       1 SER1        0.0000 
      7 OG        -14.5900   20.0500  -54.2100 O.3       1 SER1        0.0000 
      8 OG        -15.3700   22.1000  -52.8200 O.3       1 SER1        0.0000 
      9 OG        -15.6300   20.6700  -52.4700 O.3       1 SER1        0.0000 
     10 OG        -17.0600   21.0100  -52.1500 O.3       1 SER1        0.0000 
     11 N         -13.0200   13.3200  -61.2100 N.am      2 ALA2        0.0000 
     12 N         -16.1400   12.5700  -60.2200 N.am      2 ALA2        0.0000 
     13 N         -14.3300   12.5100  -59.1200 N.am      2 ALA2        0.0000 
     14 N         -15.7600   12.8500  -58.8000 N.am      2 ALA2        0.0000 
     15 O         -15.8900   16.6200  -56.3500 O.2       2 ALA2        0.0000 
     16 O         -17.5800   15.5300  -55.6800 O.2       2 ALA2        0.0000 
     17 O         -16.9300   17.2400  -54.6100 O.2       2 ALA2        0.0000 
     18 O         -17.2000   15.8100  -54.2500 O.2       2 ALA2        0.0000 
     19 O         -18.2400   16.4300  -52.5200 O.2       2 ALA2        0.0000 
     20 N         -12.7800   19.9900  -53.1000 N.am      2 ALA2        0.0000 
     21 N         -13.8300   20.6100  -51.3600 N.am      2 ALA2        0.0000 
     22 N         -15.5200   19.5200  -50.6900 N.am      2 ALA2        0.0000 
     23 OD1       -12.3800   15.0300  -60.1400 O.co2     3 ASP3        0.0000 
     24 OD1       -12.6400   13.6000  -59.7900 O.co2     3 ASP3        0.0000 
     25 OD1       -14.0700   13.9400  -59.4700 O.co2     3 ASP3        0.0000 
     26 OD1       -11.4800   11.8200  -59.7500 O.co2     3 ASP3        0.0000 
     27 OD1       -12.9100   12.1700  -59.4300 O.co2     3 ASP3        0.0000 
     28 OD1       -13.4200   15.6600  -58.4000 O.co2     3 ASP3        0.0000 
     29 OD1       -13.6900   14.2200  -58.0500 O.co2     3 ASP3        0.0000 
     30 OD1       -12.7700   17.3700  -57.3300 O.co2     3 ASP3        0.0000 
     31 OD1       -13.0400   15.9400  -56.9800 O.co2     3 ASP3        0.0000 
     32 OD1       -13.3000   14.5000  -56.6200 O.co2     3 ASP3        0.0000 
     33 OD1       -12.6500   16.2200  -55.5500 O.co2     3 ASP3        0.0000 
     34 NZ        -11.8700   11.5400  -61.1700 N.4       4 LYS4        0.0000 
     35 NZ        -13.2900   11.8900  -60.8600 N.4       4 LYS4        0.0000 
     36 NZ        -13.8000   15.3800  -59.8200 N.4       4 LYS4        0.0000 
     37 NZ        -14.3100   18.8700  -58.7900 N.4       4 LYS4        0.0000 
     38 NZ        -14.5800   17.4300  -58.4400 N.4       4 LYS4        0.0000 
     39 NZ        -13.9300   19.1500  -57.3700 N.4       4 LYS4        0.0000 
     40 NZ        -14.2000   17.7100  -57.0200 N.4       4 LYS4        0.0000 
     41 NZ        -11.8600   20.5200  -56.6200 N.4       4 LYS4        0.0000 
     42 NZ        -12.1200   19.0800  -56.2600 N.4       4 LYS4        0.0000 
     43 NZ        -13.5500   19.4300  -55.9500 N.4       4 LYS4        0.0000 
     44 NZ        -12.3900   17.6500  -55.9100 N.4       4 LYS4        0.0000 
     45 NZ        -11.4700   20.8000  -55.1900 N.4       4 LYS4        0.0000 
     46 NZ        -13.1600   19.7100  -54.5200 N.4       4 LYS4        0.0000 
     47 NZ        -13.4300   18.2700  -54.1700 N.4       4 LYS4        0.0000 
     48 NZ        -11.3600   19.6400  -53.4200 N.4       4 LYS4        0.0000 
     49 CZ        -16.1200   18.9300  -59.9000 C.ar      5 PHE5        0.0000 
     50 CZ        -14.9600   17.1500  -59.8600 C.ar      5 PHE5        0.0000 
     51 CZ        -16.3900   17.5000  -59.5500 C.ar      5 PHE5        0.0000 
     52 CZ        -17.8100   17.8400  -59.2300 C.ar      5 PHE5        0.0000 
     53 CZ        -15.7400   19.2100  -58.4800 C.ar      5 PHE5        0.0000 
     54 CZ        -17.1600   19.5500  -58.1600 C.ar      5 PHE5        0.0000 
     55 CZ        -17.4300   18.1200  -57.8100 C.ar      5 PHE5        0.0000 
     56 CZ        -17.7000   16.6800  -57.4500 C.ar      5 PHE5        0.0000 
     57 CZ        -17.0500   18.4000  -56.3800 C.ar      5 PHE5        0.0000 
     58 CZ        -16.4000   20.1100  -55.3100 C.ar      5 PHE5        0.0000 
     59 CZ        -16.6700   18.6800  -54.9600 C.ar      5 PHE5        0.0000 
     60 CZ        -14.0600   22.9100  -54.9100 C.ar      5 PHE5        0.0000 
     61 CZ        -16.0200   20.3900  -53.8900 C.ar      5 PHE5        0.0000 
     62 CZ        -16.2800   18.9600  -53.5400 C.ar      5 PHE5        0.0000 
     63 CZ        -16.5500   17.5200  -53.1800 C.ar      5 PHE5        0.0000 
     64 CZ        -17.9700   17.8700  -52.8700 C.ar      5 PHE5        0.0000 
     65 CZ        -17.3300   19.5800  -51.8000 C.ar      5 PHE5        0.0000 
     66 CZ        -17.5900   18.1500  -51.4500 C.ar      5 PHE5        0.0000 
     67 CA        -11.6000   12.9800  -61.5300 C.3       6 GLY6        0.0000 
     68 CA        -14.4500   13.6600  -60.8900 C.3       6 GLY6        0.0000 
     69 CA        -14.7200   12.2300  -60.5400 C.3       6 GLY6        0.0000 
     70 CA        -16.8000   13.4800  -57.0600 C.3       6 GLY6        0.0000 
     71 DU        -15.2300   15.7200  -59.5100 H         7 CUB7        0.0000 
     72 DU        -16.6500   16.0600  -59.1900 H         7 CUB7        0.0000 
     73 DU        -15.4900   14.2900  -59.1500 H         7 CUB7        0.0000 
     74 DU        -16.0000   17.7800  -58.1200 H         7 CUB7        0.0000 
     75 DU        -14.8500   16.0000  -58.0900 H         7 CUB7        0.0000 
     76 DU        -16.2700   16.3400  -57.7700 H         7 CUB7        0.0000 
     77 DU        -15.1100   14.5700  -57.7300 H         7 CUB7        0.0000 
     78 DU        -15.6200   18.0600  -56.7000 H         7 CUB7        0.0000 
     79 DU        -14.4600   16.2800  -56.6600 H         7 CUB7        0.0000 
     80 DU        -14.7300   14.8500  -56.3100 H         7 CUB7        0.0000 
     81 DU        -16.1500   15.1900  -55.9900 H         7 CUB7        0.0000 
     82 DU        -13.8100   17.9900  -55.5900 H         7 CUB7        0.0000 
     83 DU        -15.2400   18.3400  -55.2800 H         7 CUB7        0.0000 
     84 DU        -14.0800   16.5600  -55.2400 H         7 CUB7        0.0000 
     85 DU        -15.5100   16.9000  -54.9200 H         7 CUB7        0.0000 
     86 DU        -14.3500   15.1300  -54.8900 H         7 CUB7        0.0000 
     87 DU        -15.7700   15.4700  -54.5700 H         7 CUB7        0.0000 
     88 DU        -14.8600   18.6200  -53.8500 H         7 CUB7        0.0000 
     89 DU        -13.7000   16.8400  -53.8200 H         7 CUB7        0.0000 
     90 DU        -15.1200   17.1800  -53.5000 H         7 CUB7        0.0000 
     91 DU        -16.8200   16.0900  -52.8300 H         7 CUB7        0.0000 
     92 DU        -13.9400   21.7600  -53.1400 H         7 CUB7        0.0000 
     93 DU        -14.2100   20.3300  -52.7800 H         7 CUB7        0.0000 
     94 DU        -14.4700   18.8900  -52.4300 H         7 CUB7        0.0000 
     95 DU        -15.9000   19.2400  -52.1100 H         7 CUB7        0.0000 
     96 DU        -16.1700   17.8000  -51.7600 H         7 CUB7        0.0000 
     97 DU        -16.4300   16.3700  -51.4100 H         7 CUB7        0.0000 
     98 DU        -15.7800   18.0800  -50.3400 H         7 CUB7        0.0000 
@<TRIPOS>BOND
@<TRIPOS>SUBSTRUCTURE
     1 SER1        1 GROUP   
     2 ALA2       11 GROUP   
     3 ASP3       23 GROUP   
     4 LYS4       34 GROUP   
     5 PHE5       49 GROUP   
     6 GLY6       67 GROUP   
     7 CUB7       71 GROUP   
@<TRIPOS>SET

