#    Name: 6mn4_5_AM2_CAVITY_N1_4
#    Modification time : Fri May 22 19:29:22 2020

@<TRIPOS>MOLECULE
6mn4_5_AM2_CAVITY_N1_4
  100     0     6     0     0
SMALL
NO_CHARGES


@<TRIPOS>ATOM
      1 OG        -41.3900   -7.5500  -52.6400 O.3       1 SER1        0.0000 
      2 OG        -39.3200   -6.1800  -51.8900 O.3       1 SER1        0.0000 
      3 OG        -40.1000   -4.1300  -50.5000 O.3       1 SER1        0.0000 
      4 OG        -38.9400   -5.9000  -50.4600 O.3       1 SER1        0.0000 
      5 OG        -39.9800   -5.2800  -48.7200 O.3       1 SER1        0.0000 
      6 OG        -37.0100   -7.1200  -47.5800 O.3       1 SER1        0.0000 
      7 N         -39.1600   -6.2100  -58.2500 N.am      2 ALA2        0.0000 
      8 N         -39.4200   -7.6500  -57.8900 N.am      2 ALA2        0.0000 
      9 N         -39.0400   -7.3700  -56.4700 N.am      2 ALA2        0.0000 
     10 N         -40.4700   -7.0200  -56.1600 N.am      2 ALA2        0.0000 
     11 N         -39.3100   -8.8000  -56.1200 N.am      2 ALA2        0.0000 
     12 N         -40.7300   -8.4600  -55.8000 N.am      2 ALA2        0.0000 
     13 N         -40.3500   -8.1800  -54.3800 N.am      2 ALA2        0.0000 
     14 N         -37.7700  -10.2900  -54.6600 N.am      2 ALA2        0.0000 
     15 N         -39.1900   -9.9500  -54.3400 N.am      2 ALA2        0.0000 
     16 N         -40.6200   -9.6100  -54.0300 N.am      2 ALA2        0.0000 
     17 N         -42.0400   -9.2700  -53.7100 N.am      2 ALA2        0.0000 
     18 O         -39.4600  -11.3900  -53.9900 O.2       2 ALA2        0.0000 
     19 O         -36.3200   -4.2800  -54.6500 O.2       2 ALA2        0.0000 
     20 O         -37.6300   -5.0900  -52.5600 O.2       2 ALA2        0.0000 
     21 O         -35.5500   -3.7200  -51.8000 O.2       2 ALA2        0.0000 
     22 O         -37.2500   -4.8100  -51.1300 O.2       2 ALA2        0.0000 
     23 N         -32.2000   -5.2800  -49.2300 N.am      2 ALA2        0.0000 
     24 N         -30.3900   -5.3400  -48.1300 N.am      2 ALA2        0.0000 
     25 N         -33.5100   -6.0900  -47.1400 N.am      2 ALA2        0.0000 
     26 N         -32.3500   -7.8700  -47.1000 N.am      2 ALA2        0.0000 
     27 N         -33.7800   -7.5200  -46.7900 N.am      2 ALA2        0.0000 
     28 N         -31.7000   -6.1500  -46.0300 N.am      2 ALA2        0.0000 
     29 N         -30.5400   -7.9300  -46.0000 N.am      2 ALA2        0.0000 
     30 N         -30.8100   -9.3600  -45.6400 N.am      2 ALA2        0.0000 
     31 N         -30.1600   -7.6500  -44.5700 N.am      2 ALA2        0.0000 
     32 NZ        -39.5900   -7.6200  -51.5300 N.4       3 LYS4        0.0000 
     33 NZ        -39.8500   -9.0500  -51.1800 N.4       3 LYS4        0.0000 
     34 NZ        -41.5400  -10.1400  -50.5100 N.4       3 LYS4        0.0000 
     35 NZ        -37.7800   -7.6800  -50.4300 N.4       3 LYS4        0.0000 
     36 NZ        -39.2000   -7.3400  -50.1100 N.4       3 LYS4        0.0000 
     37 NZ        -38.5600   -5.6200  -49.0400 N.4       3 LYS4        0.0000 
     38 NZ        -35.9700   -7.7400  -49.3200 N.4       3 LYS4        0.0000 
     39 NZ        -37.4000   -7.4000  -49.0000 N.4       3 LYS4        0.0000 
     40 CZ        -39.8200   -5.3100  -55.0900 C.ar      4 PHE5        0.0000 
     41 CZ        -38.0100   -5.3700  -53.9800 C.ar      4 PHE5        0.0000 
     42 CZ        -39.4400   -5.0300  -53.6600 C.ar      4 PHE5        0.0000 
     43 CZ        -39.0500   -4.7500  -52.2400 C.ar      4 PHE5        0.0000 
     44 CZ        -41.2800   -8.7100  -50.8600 C.ar      4 PHE5        0.0000 
     45 CZ        -42.9700   -9.8000  -50.1900 C.ar      4 PHE5        0.0000 
     46 CZ        -38.6700   -4.4700  -50.8200 C.ar      4 PHE5        0.0000 
     47 CZ        -36.8600   -4.5300  -49.7100 C.ar      4 PHE5        0.0000 
     48 CZ        -38.2900   -4.1900  -49.3900 C.ar      4 PHE5        0.0000 
     49 CZ        -39.7100   -3.8500  -49.0800 C.ar      4 PHE5        0.0000 
     50 CZ        -38.1700   -5.3400  -47.6200 C.ar      4 PHE5        0.0000 
     51 CA        -40.2000   -5.5900  -56.5100 C.3       5 GLY6        0.0000 
     52 CA        -41.8900   -6.6800  -55.8400 C.3       5 GLY6        0.0000 
     53 CA        -40.0900   -6.7400  -54.7300 C.3       5 GLY6        0.0000 
     54 CA        -41.7800   -7.8300  -54.0600 C.3       5 GLY6        0.0000 
     55 CA        -41.1300   -6.1200  -52.9900 C.3       5 GLY6        0.0000 
     56 CA        -37.3800  -10.0100  -53.2300 C.3       5 GLY6        0.0000 
     57 CA        -38.8100   -9.6700  -52.9200 C.3       5 GLY6        0.0000 
     58 CA        -40.2400   -9.3300  -52.6000 C.3       5 GLY6        0.0000 
     59 CA        -41.6600   -8.9900  -52.2900 C.3       5 GLY6        0.0000 
     60 CA        -40.5000  -10.7600  -52.2500 C.3       5 GLY6        0.0000 
     61 CA        -37.0000   -9.7300  -51.8100 C.3       5 GLY6        0.0000 
     62 CA        -38.4300   -9.3900  -51.4900 C.3       5 GLY6        0.0000 
     63 CA        -40.1200  -10.4800  -50.8300 C.3       5 GLY6        0.0000 
     64 CA        -34.1300   -4.0600  -52.1200 C.3       5 GLY6        0.0000 
     65 CA        -34.0100   -5.2200  -50.3400 C.3       5 GLY6        0.0000 
     66 CA        -33.3800   -9.8600  -49.6000 C.3       5 GLY6        0.0000 
     67 CA        -33.6300   -4.9400  -48.9200 C.3       5 GLY6        0.0000 
     68 CA        -33.0000   -9.5800  -48.1700 C.3       5 GLY6        0.0000 
     69 CA        -34.4300   -9.2400  -47.8600 C.3       5 GLY6        0.0000 
     70 CA        -31.8200   -5.0000  -47.8100 C.3       5 GLY6        0.0000 
     71 CA        -33.2500   -4.6600  -47.4900 C.3       5 GLY6        0.0000 
     72 CA        -32.6200   -9.3000  -46.7500 C.3       5 GLY6        0.0000 
     73 CA        -28.8500   -6.8400  -46.6700 C.3       5 GLY6        0.0000 
     74 CA        -30.2800   -6.5000  -46.3500 C.3       5 GLY6        0.0000 
     75 DU        -38.7800   -5.9300  -56.8200 H         6 CUB7        0.0000 
     76 DU        -38.3900   -5.6500  -55.4000 H         6 CUB7        0.0000 
     77 DU        -37.5000   -8.8600  -55.0100 H         6 CUB7        0.0000 
     78 DU        -38.9300   -8.5200  -54.6900 H         6 CUB7        0.0000 
     79 DU        -38.2800   -6.8100  -53.6300 H         6 CUB7        0.0000 
     80 DU        -39.7000   -6.4600  -53.3100 H         6 CUB7        0.0000 
     81 DU        -37.1200   -8.5800  -53.5900 H         6 CUB7        0.0000 
     82 DU        -38.5400   -8.2400  -53.2700 H         6 CUB7        0.0000 
     83 DU        -39.9700   -7.9000  -52.9600 H         6 CUB7        0.0000 
     84 DU        -36.2000   -5.4400  -52.8700 H         6 CUB7        0.0000 
     85 DU        -37.8900   -6.5300  -52.2000 H         6 CUB7        0.0000 
     86 DU        -36.7300   -8.3000  -52.1600 H         6 CUB7        0.0000 
     87 DU        -38.1600   -7.9600  -51.8500 H         6 CUB7        0.0000 
     88 DU        -35.8200   -5.1600  -51.4500 H         6 CUB7        0.0000 
     89 DU        -37.5100   -6.2500  -50.7800 H         6 CUB7        0.0000 
     90 DU        -34.9300   -8.3600  -51.0600 H         6 CUB7        0.0000 
     91 DU        -36.3500   -8.0200  -50.7400 H         6 CUB7        0.0000 
     92 DU        -34.2800   -6.6500  -49.9900 H         6 CUB7        0.0000 
     93 DU        -35.7000   -6.3100  -49.6700 H         6 CUB7        0.0000 
     94 DU        -37.1300   -5.9700  -49.3600 H         6 CUB7        0.0000 
     95 DU        -34.5400   -8.0800  -49.6300 H         6 CUB7        0.0000 
     96 DU        -32.4700   -6.7100  -48.8800 H         6 CUB7        0.0000 
     97 DU        -33.9000   -6.3700  -48.5600 H         6 CUB7        0.0000 
     98 DU        -32.7400   -8.1500  -48.5300 H         6 CUB7        0.0000 
     99 DU        -34.1600   -7.8000  -48.2100 H         6 CUB7        0.0000 
    100 DU        -32.0900   -6.4300  -47.4600 H         6 CUB7        0.0000 
@<TRIPOS>BOND
@<TRIPOS>SUBSTRUCTURE
     1 SER1        1 GROUP   
     2 ALA2        7 GROUP   
     3 LYS4       32 GROUP   
     4 PHE5       40 GROUP   
     5 GLY6       51 GROUP   
     6 CUB7       75 GROUP   
@<TRIPOS>SET

