#    Name: 6mn4_4_AM2
#    Modification time : Fri May 22 19:29:16 2020

@<TRIPOS>MOLECULE
6mn4_4_AM2
   37    40     1     0     0
SMALL
NO_CHARGES


@<TRIPOS>ATOM
      1 CA1       -12.6220   14.8820  -54.0460 C.3       1 AM2301      0.0000 
      2 CA2       -11.3730   14.2050  -53.4700 C.3       1 AM2301      0.0000 
      3 CA3       -10.6240   13.3300  -54.4880 C.3       1 AM2301      0.0000 
      4 CA4       -11.4930   12.4220  -55.2970 C.3       1 AM2301      0.0000 
      5 CA5       -12.7590   13.1380  -55.8330 C.3       1 AM2301      0.0000 
      6 CA6       -13.5950   12.1750  -56.5880 C.3       1 AM2301      0.0000 
      7 CA7       -12.8210   11.6950  -57.8400 C.3       1 AM2301      0.0000 
      8 CA8       -11.4340   11.0740  -57.5060 C.3       1 AM2301      0.0000 
      9 CA9       -13.6110    9.4070  -58.1910 C.3       1 AM2301      0.0000 
     10 OA4       -13.5150   13.8730  -54.7720 O.3       1 AM2301      0.0000 
     11 OA5       -10.6820   11.8060  -56.4210 O.3       1 AM2301      0.0000 
     12 NA2       -10.4650   15.2430  -52.9720 N.4       1 AM2301      0.0000 
     13 NA7       -13.6350   10.7920  -58.6540 N.4       1 AM2301      0.0000 
     14 OA6       -13.9350   11.0720  -55.7200 O.3       1 AM2301      0.0000 
     15 OA8       -10.6300   11.1090  -58.6060 O.3       1 AM2301      0.0000 
     16 OA1       -12.2470   15.8920  -54.8790 O.3       1 AM2301      0.0000 
     17 CB1       -10.2120    9.8780  -59.0390 C.3       1 AM2301      0.0000 
     18 CB2        -9.5350    9.0490  -57.9270 C.3       1 AM2301      0.0000 
     19 CB3        -8.9640    7.7740  -58.4210 C.3       1 AM2301      0.0000 
     20 CB4        -9.1470    7.5660  -59.8870 C.3       1 AM2301      0.0000 
     21 CB5        -8.7140    8.8110  -60.6980 C.3       1 AM2301      0.0000 
     22 CB6        -9.1840    8.6720  -62.0930 C.3       1 AM2301      0.0000 
     23 OB1        -9.2630   10.0660  -60.1800 O.3       1 AM2301      0.0000 
     24 NB4        -8.3350    6.4000  -60.3190 N.4       1 AM2301      0.0000 
     25 OB2        -8.4670    9.8310  -57.3610 O.3       1 AM2301      0.0000 
     26 OB3        -9.5790    6.6500  -57.7050 O.3       1 AM2301      0.0000 
     27 OB6        -9.7670    9.8810  -62.4660 O.3       1 AM2301      0.0000 
     28 CC1       -13.1230   17.0590  -54.9200 C.3       1 AM2301      0.0000 
     29 CC2       -13.4490   17.2960  -56.3940 C.3       1 AM2301      0.0000 
     30 CC3       -14.2420   18.6030  -56.5670 C.3       1 AM2301      0.0000 
     31 CC4       -15.5810   18.5190  -55.8630 C.3       1 AM2301      0.0000 
     32 CC5       -15.5150   17.9720  -54.4290 C.3       1 AM2301      0.0000 
     33 CC6       -14.3970   16.9560  -54.0740 C.3       1 AM2301      0.0000 
     34 NC4       -16.1310   19.8800  -55.8100 N.4       1 AM2301      0.0000 
     35 NC6       -14.0780   17.2070  -52.6620 N.4       1 AM2301      0.0000 
     36 OC2       -12.2510   17.3800  -57.1250 O.3       1 AM2301      0.0000 
     37 OC3       -14.4610   18.8280  -57.9390 O.3       1 AM2301      0.0000 
@<TRIPOS>BOND
     1    1    2 1    
     2    1   10 1    
     3    1   16 1    
     4    2    3 1    
     5    2   12 1    
     6    3    4 1    
     7    4    5 1    
     8    4   11 1    
     9    5    6 1    
    10    5   10 1    
    11    6    7 1    
    12    6   14 1    
    13    7    8 1    
    14    7   13 1    
    15    8   11 1    
    16    8   15 1    
    17    9   13 1    
    18   15   17 1    
    19   16   28 1    
    20   17   18 1    
    21   17   23 1    
    22   18   19 1    
    23   18   25 1    
    24   19   20 1    
    25   19   26 1    
    26   20   21 1    
    27   20   24 1    
    28   21   22 1    
    29   21   23 1    
    30   22   27 1    
    31   28   29 1    
    32   28   33 1    
    33   29   30 1    
    34   29   36 1    
    35   30   31 1    
    36   30   37 1    
    37   31   32 1    
    38   31   34 1    
    39   32   33 1    
    40   33   35 1    
@<TRIPOS>SUBSTRUCTURE
     1 AM2301      1 GROUP   
@<TRIPOS>SET

