#    Name: 6mn4_3_AM2
#    Modification time : Fri May 22 19:29:12 2020

@<TRIPOS>MOLECULE
6mn4_3_AM2
   37    40     1     0     0
SMALL
NO_CHARGES


@<TRIPOS>ATOM
      1 CA1       -24.7810   11.3390   37.8060 C.3       1 AM2301      0.0000 
      2 CA2       -26.2970   11.5910   37.9240 C.3       1 AM2301      0.0000 
      3 CA3       -27.0710   10.6560   38.8800 C.3       1 AM2301      0.0000 
      4 CA4       -26.4690    9.3170   39.1900 C.3       1 AM2301      0.0000 
      5 CA5       -24.9250    9.3690   39.2620 C.3       1 AM2301      0.0000 
      6 CA6       -24.2880    8.0780   39.6280 C.3       1 AM2301      0.0000 
      7 CA7       -24.9320    7.3930   40.8610 C.3       1 AM2301      0.0000 
      8 CA8       -26.4840    7.4590   40.9340 C.3       1 AM2301      0.0000 
      9 CA9       -25.3150    5.0280   40.3340 C.3       1 AM2301      0.0000 
     10 OA4       -24.4140    9.8650   37.9570 O.3       1 AM2301      0.0000 
     11 OA5       -27.0730    8.7600   40.4580 O.3       1 AM2301      0.0000 
     12 NA2       -26.5180   12.9770   38.3670 N.4       1 AM2301      0.0000 
     13 NA7       -24.4430    6.0180   40.9620 N.4       1 AM2301      0.0000 
     14 OA6       -24.3120    7.2160   38.4730 O.3       1 AM2301      0.0000 
     15 OA8       -26.8460    7.3610   42.2370 O.3       1 AM2301      0.0000 
     16 OA1       -24.1090   12.0290   38.7640 O.3       1 AM2301      0.0000 
     17 CB1       -27.7510    6.3720   42.4990 C.3       1 AM2301      0.0000 
     18 CB2       -28.9720    6.4120   41.5500 C.3       1 AM2301      0.0000 
     19 CB3       -29.9580    5.3500   41.8420 C.3       1 AM2301      0.0000 
     20 CB4       -29.8150    4.7560   43.2070 C.3       1 AM2301      0.0000 
     21 CB5       -29.3940    5.8030   44.2680 C.3       1 AM2301      0.0000 
     22 CB6       -29.2020    5.1320   45.5750 C.3       1 AM2301      0.0000 
     23 OB1       -28.1510    6.5000   43.9330 O.3       1 AM2301      0.0000 
     24 NB4       -31.1120    4.1570   43.6110 N.4       1 AM2301      0.0000 
     25 OB2       -29.6320    7.6890   41.6530 O.3       1 AM2301      0.0000 
     26 OB3       -29.8130    4.2880   40.8400 O.3       1 AM2301      0.0000 
     27 OB6       -28.3210    5.8930   46.3440 O.3       1 AM2301      0.0000 
     28 CC1       -22.8880   12.6530   38.2800 C.3       1 AM2301      0.0000 
     29 CC2       -22.0130   12.9450   39.5020 C.3       1 AM2301      0.0000 
     30 CC3       -20.7100   13.6780   39.1040 C.3       1 AM2301      0.0000 
     31 CC4       -19.9880   12.9960   37.9510 C.3       1 AM2301      0.0000 
     32 CC5       -20.6310   11.6660   37.5330 C.3       1 AM2301      0.0000 
     33 CC6       -22.1470   11.7980   37.2500 C.3       1 AM2301      0.0000 
     34 NC4       -19.9720   13.9140   36.8010 N.4       1 AM2301      0.0000 
     35 NC6       -22.3300   12.3790   35.9140 N.4       1 AM2301      0.0000 
     36 OC2       -22.7420   13.7390   40.4030 O.3       1 AM2301      0.0000 
     37 OC3       -19.8480   13.7270   40.2170 O.3       1 AM2301      0.0000 
@<TRIPOS>BOND
     1    1    2 1    
     2    1   10 1    
     3    1   16 1    
     4    2    3 1    
     5    2   12 1    
     6    3    4 1    
     7    4    5 1    
     8    4   11 1    
     9    5    6 1    
    10    5   10 1    
    11    6    7 1    
    12    6   14 1    
    13    7    8 1    
    14    7   13 1    
    15    8   11 1    
    16    8   15 1    
    17    9   13 1    
    18   15   17 1    
    19   16   28 1    
    20   17   18 1    
    21   17   23 1    
    22   18   19 1    
    23   18   25 1    
    24   19   20 1    
    25   19   26 1    
    26   20   21 1    
    27   20   24 1    
    28   21   22 1    
    29   21   23 1    
    30   22   27 1    
    31   28   29 1    
    32   28   33 1    
    33   29   30 1    
    34   29   36 1    
    35   30   31 1    
    36   30   37 1    
    37   31   32 1    
    38   31   34 1    
    39   32   33 1    
    40   33   35 1    
@<TRIPOS>SUBSTRUCTURE
     1 AM2301      1 GROUP   
@<TRIPOS>SET

