#    Name: 6mn4_6_AM2_CAVITY_N1_6
#    Modification time : Fri May 22 19:29:27 2020

@<TRIPOS>MOLECULE
6mn4_6_AM2_CAVITY_N1_6
  140     0     7     0     0
SMALL
NO_CHARGES


@<TRIPOS>ATOM
      1 OG        -15.5300  -14.2800   28.6900 O.3       1 SER1        0.0000 
      2 OG        -10.4900  -14.7500   30.5900 O.3       1 SER1        0.0000 
      3 OG        -10.7500  -16.1800   30.9400 O.3       1 SER1        0.0000 
      4 OG        -10.3700  -15.9000   32.3600 O.3       1 SER1        0.0000 
      5 OG        -10.6400  -17.3300   32.7200 O.3       1 SER1        0.0000 
      6 OG         -9.4800  -19.1100   32.7500 O.3       1 SER1        0.0000 
      7 OG         -7.4000  -17.7400   33.5100 O.3       1 SER1        0.0000 
      8 OG         -8.8300  -17.4000   33.8200 O.3       1 SER1        0.0000 
      9 OG        -10.2500  -17.0500   34.1400 O.3       1 SER1        0.0000 
     10 OG         -9.0900  -18.8300   34.1800 O.3       1 SER1        0.0000 
     11 OG         -7.0200  -17.4600   34.9300 O.3       1 SER1        0.0000 
     12 OG         -6.3700  -15.7400   36.0000 O.3       1 SER1        0.0000 
     13 N         -16.6900  -12.5000   28.6500 N.am      2 ALA2        0.0000 
     14 N         -18.1100  -12.1600   28.9600 N.am      2 ALA2        0.0000 
     15 N         -16.9500  -13.9300   29.0000 N.am      2 ALA2        0.0000 
     16 N         -18.3800  -13.5900   29.3200 N.am      2 ALA2        0.0000 
     17 O         -14.6100  -11.1300   29.4000 O.2       2 ALA2        0.0000 
     18 N         -16.0400  -10.7900   29.7200 N.am      2 ALA2        0.0000 
     19 N         -17.4700  -10.4500   30.0300 N.am      2 ALA2        0.0000 
     20 N         -17.7300  -11.8800   30.3900 N.am      2 ALA2        0.0000 
     21 O         -13.0700  -12.6300   30.8600 O.2       2 ALA2        0.0000 
     22 N         -17.3500  -11.6000   31.8100 N.am      2 ALA2        0.0000 
     23 O         -12.6900  -12.3500   32.2900 O.2       2 ALA2        0.0000 
     24 O         -11.5300  -14.1200   32.3200 O.2       2 ALA2        0.0000 
     25 O         -12.3100  -12.0700   33.7100 O.2       2 ALA2        0.0000 
     26 O         -11.1500  -13.8400   33.7500 O.2       2 ALA2        0.0000 
     27 N         -10.7900  -19.9200   34.8500 N.am      2 ALA2        0.0000 
     28 O         -11.9200  -11.7900   35.1300 O.2       2 ALA2        0.0000 
     29 O         -10.7600  -13.5600   35.1700 O.2       2 ALA2        0.0000 
     30 N         -10.1400  -18.2100   35.9200 N.am      2 ALA2        0.0000 
     31 N         -11.5600  -17.8600   36.2300 N.am      2 ALA2        0.0000 
     32 N         -12.9900  -17.5200   36.5500 N.am      2 ALA2        0.0000 
     33 N          -7.5500  -20.3200   35.6400 N.am      2 ALA2        0.0000 
     34 N          -8.9800  -19.9800   35.9500 N.am      2 ALA2        0.0000 
     35 N         -10.4000  -19.6400   36.2700 N.am      2 ALA2        0.0000 
     36 O         -10.3800  -13.2800   36.5900 O.2       2 ALA2        0.0000 
     37 N          -6.6400  -17.1800   36.3500 N.am      2 ALA2        0.0000 
     38 N          -8.3300  -18.2700   37.0200 N.am      2 ALA2        0.0000 
     39 N          -9.7600  -17.9300   37.3400 N.am      2 ALA2        0.0000 
     40 N         -11.1800  -17.5800   37.6500 N.am      2 ALA2        0.0000 
     41 N         -12.6100  -17.2400   37.9700 N.am      2 ALA2        0.0000 
     42 N          -8.6000  -19.7000   37.3800 N.am      2 ALA2        0.0000 
     43 N          -9.1100  -16.2100   38.4100 N.am      2 ALA2        0.0000 
     44 N         -10.8000  -17.3000   39.0800 N.am      2 ALA2        0.0000 
     45 N          -8.1900  -13.0700   39.1200 N.am      2 ALA2        0.0000 
     46 N          -9.6200  -12.7200   39.4400 N.am      2 ALA2        0.0000 
     47 OD1       -16.8400  -15.0900   30.7800 O.co2     3 ASP3        0.0000 
     48 OD1       -18.2600  -14.7500   31.0900 O.co2     3 ASP3        0.0000 
     49 OD1       -16.4600  -14.8100   32.2000 O.co2     3 ASP3        0.0000 
     50 NZ        -12.5600  -16.1200   29.8300 N.4       4 LYS4        0.0000 
     51 NZ        -13.9900  -15.7700   30.1500 N.4       4 LYS4        0.0000 
     52 NZ        -15.4100  -15.4300   30.4600 N.4       4 LYS4        0.0000 
     53 NZ        -12.1800  -15.8400   31.2500 N.4       4 LYS4        0.0000 
     54 NZ        -13.6000  -15.4900   31.5700 N.4       4 LYS4        0.0000 
     55 NZ        -13.8700  -16.9300   31.9200 N.4       4 LYS4        0.0000 
     56 NZ        -15.3000  -16.5800   32.2400 N.4       4 LYS4        0.0000 
     57 NZ        -12.0600  -16.9900   33.0300 N.4       4 LYS4        0.0000 
     58 NZ        -13.4900  -16.6500   33.3500 N.4       4 LYS4        0.0000 
     59 NZ        -10.9000  -18.7700   33.0700 N.4       4 LYS4        0.0000 
     60 NZ        -11.8100  -12.9400   36.9100 N.4       4 LYS4        0.0000 
     61 CZ        -15.2600  -12.8400   28.3300 C.ar      5 PHE5        0.0000 
     62 CZ        -13.4500  -12.9100   29.4400 C.ar      5 PHE5        0.0000 
     63 CZ        -14.8800  -12.5600   29.7600 C.ar      5 PHE5        0.0000 
     64 CZ        -10.8700  -15.0300   29.1600 C.ar      5 PHE5        0.0000 
     65 CZ        -12.2900  -14.6800   29.4800 C.ar      5 PHE5        0.0000 
     66 CZ        -13.7200  -14.3400   29.7900 C.ar      5 PHE5        0.0000 
     67 CZ        -10.2200  -13.3100   30.2300 C.ar      5 PHE5        0.0000 
     68 CZ        -11.6500  -12.9700   30.5500 C.ar      5 PHE5        0.0000 
     69 CZ        -11.2600  -12.6900   31.9700 C.ar      5 PHE5        0.0000 
     70 CZ        -10.1000  -14.4700   32.0100 C.ar      5 PHE5        0.0000 
     71 CZ         -9.7200  -14.1900   33.4300 C.ar      5 PHE5        0.0000 
     72 CZ         -8.5600  -15.9600   33.4700 C.ar      5 PHE5        0.0000 
     73 CZ         -9.9900  -15.6200   33.7900 C.ar      5 PHE5        0.0000 
     74 CZ         -8.1800  -15.6800   34.8900 C.ar      5 PHE5        0.0000 
     75 CZ         -9.6100  -15.3400   35.2100 C.ar      5 PHE5        0.0000 
     76 CZ         -8.9600  -13.6300   36.2800 C.ar      5 PHE5        0.0000 
     77 CZ         -7.8000  -15.4000   36.3200 C.ar      5 PHE5        0.0000 
     78 CZ         -9.2200  -15.0600   36.6300 C.ar      5 PHE5        0.0000 
     79 CA        -19.5400  -11.8200   29.2800 C.3       6 GLY6        0.0000 
     80 CA        -20.9700  -11.4700   29.6000 C.3       6 GLY6        0.0000 
     81 CA        -17.2200  -15.3700   29.3600 C.3       6 GLY6        0.0000 
     82 CA        -20.0700  -14.6800   29.9900 C.3       6 GLY6        0.0000 
     83 CA        -18.8900  -10.1000   30.3500 C.3       6 GLY6        0.0000 
     84 CA        -19.1600  -11.5400   30.7000 C.3       6 GLY6        0.0000 
     85 CA        -14.5000  -12.2800   31.1800 C.3       6 GLY6        0.0000 
     86 CA        -15.9200  -11.9400   31.5000 C.3       6 GLY6        0.0000 
     87 CA        -14.1200  -12.0000   32.6000 C.3       6 GLY6        0.0000 
     88 CA        -12.3300  -18.4200   33.3800 C.3       6 GLY6        0.0000 
     89 CA        -11.1700  -20.2000   33.4200 C.3       6 GLY6        0.0000 
     90 CA         -7.6700  -19.1700   33.8600 C.3       6 GLY6        0.0000 
     91 CA        -11.9500  -18.1400   34.8100 C.3       6 GLY6        0.0000 
     92 CA        -13.3700  -17.8000   35.1200 C.3       6 GLY6        0.0000 
     93 CA         -9.3600  -20.2600   34.5300 C.3       6 GLY6        0.0000 
     94 CA        -12.2100  -19.5800   35.1600 C.3       6 GLY6        0.0000 
     95 CA         -7.2900  -18.8900   35.2800 C.3       6 GLY6        0.0000 
     96 CA         -8.0600  -16.8400   36.6700 C.3       6 GLY6        0.0000 
     97 CA         -6.9000  -18.6100   36.7100 C.3       6 GLY6        0.0000 
     98 CA         -8.3100  -11.9100   37.3500 C.3       6 GLY6        0.0000 
     99 CA         -9.7300  -11.5700   37.6600 C.3       6 GLY6        0.0000 
    100 CA         -7.1500  -13.6900   37.3900 C.3       6 GLY6        0.0000 
    101 CA         -8.5700  -13.3500   37.7000 C.3       6 GLY6        0.0000 
    102 CA        -10.0000  -13.0000   38.0200 C.3       6 GLY6        0.0000 
    103 CA         -7.4100  -15.1200   37.7400 C.3       6 GLY6        0.0000 
    104 CA         -8.8400  -14.7800   38.0500 C.3       6 GLY6        0.0000 
    105 CA         -8.4600  -14.5000   39.4800 C.3       6 GLY6        0.0000 
    106 DU        -19.8100  -13.2500   29.6300 H         7 CUB7        0.0000 
    107 DU        -16.3100  -12.2200   30.0700 H         7 CUB7        0.0000 
    108 DU        -15.1500  -14.0000   30.1100 H         7 CUB7        0.0000 
    109 DU        -16.5700  -13.6500   30.4300 H         7 CUB7        0.0000 
    110 DU        -18.0000  -13.3100   30.7400 H         7 CUB7        0.0000 
    111 DU        -11.9100  -14.4000   30.9000 H         7 CUB7        0.0000 
    112 DU        -13.3400  -14.0600   31.2200 H         7 CUB7        0.0000 
    113 DU        -14.7600  -13.7200   31.5300 H         7 CUB7        0.0000 
    114 DU        -16.1900  -13.3700   31.8500 H         7 CUB7        0.0000 
    115 DU        -17.6200  -13.0300   32.1600 H         7 CUB7        0.0000 
    116 DU        -15.0300  -15.1500   31.8900 H         7 CUB7        0.0000 
    117 DU        -12.9600  -13.7800   32.6400 H         7 CUB7        0.0000 
    118 DU        -14.3800  -13.4400   32.9600 H         7 CUB7        0.0000 
    119 DU        -15.8100  -13.1000   33.2700 H         7 CUB7        0.0000 
    120 DU        -11.8000  -15.5600   32.6800 H         7 CUB7        0.0000 
    121 DU        -13.2200  -15.2100   32.9900 H         7 CUB7        0.0000 
    122 DU        -14.6500  -14.8700   33.3100 H         7 CUB7        0.0000 
    123 DU        -12.5700  -13.5000   34.0600 H         7 CUB7        0.0000 
    124 DU        -11.4100  -15.2800   34.1000 H         7 CUB7        0.0000 
    125 DU        -11.6800  -16.7100   34.4500 H         7 CUB7        0.0000 
    126 DU        -13.1100  -16.3700   34.7700 H         7 CUB7        0.0000 
    127 DU        -10.5200  -18.4900   34.4900 H         7 CUB7        0.0000 
    128 DU        -12.1900  -13.2200   35.4900 H         7 CUB7        0.0000 
    129 DU        -11.0300  -15.0000   35.5200 H         7 CUB7        0.0000 
    130 DU         -8.4500  -17.1200   35.2500 H         7 CUB7        0.0000 
    131 DU         -9.8700  -16.7700   35.5600 H         7 CUB7        0.0000 
    132 DU        -11.3000  -16.4300   35.8800 H         7 CUB7        0.0000 
    133 DU         -8.7100  -18.5500   35.6000 H         7 CUB7        0.0000 
    134 DU        -10.6500  -14.7200   36.9500 H         7 CUB7        0.0000 
    135 DU        -12.0700  -14.3700   37.2600 H         7 CUB7        0.0000 
    136 DU         -9.4900  -16.4900   36.9800 H         7 CUB7        0.0000 
    137 DU        -10.9100  -16.1500   37.3000 H         7 CUB7        0.0000 
    138 DU        -12.3400  -15.8100   37.6200 H         7 CUB7        0.0000 
    139 DU        -10.2700  -14.4400   38.3700 H         7 CUB7        0.0000 
    140 DU        -10.5300  -15.8700   38.7200 H         7 CUB7        0.0000 
@<TRIPOS>BOND
@<TRIPOS>SUBSTRUCTURE
     1 SER1        1 GROUP   
     2 ALA2       13 GROUP   
     3 ASP3       47 GROUP   
     4 LYS4       50 GROUP   
     5 PHE5       61 GROUP   
     6 GLY6       79 GROUP   
     7 CUB7      106 GROUP   
@<TRIPOS>SET

