#    Name: 5ogo_2_WWO
#    Modification time : Fri May 22 19:26:39 2020

@<TRIPOS>MOLECULE
5ogo_2_WWO
   27    28     1     0     0
SMALL
NO_CHARGES


@<TRIPOS>ATOM
      1 F27        14.4400   11.9230    9.5090           1 WWO303      0.0000 
      2 C5         15.5620   11.1470    9.4880           1 WWO303      0.0000 
      3 C4         15.4370    9.7410    9.3350           1 WWO303      0.0000 
      4 S7         13.8300    8.8940    9.2090           1 WWO303      0.0000 
      5 O9         12.7690    9.8360    8.9250           1 WWO303      0.0000 
      6 N10        13.8200    7.9280    7.9130           1 WWO303      0.0000 
      7 O8         13.9210    8.1670   10.4100           1 WWO303      0.0000 
      8 C3         16.5960    8.9500    9.3090           1 WWO303      0.0000 
      9 F12        16.5570    7.5970    9.1600           1 WWO303      0.0000 
     10 C2         17.8440    9.5420    9.4100           1 WWO303      0.0000 
     11 F13        18.9430    8.7330    9.3660           1 WWO303      0.0000 
     12 C6         16.8390   11.7730    9.5920           1 WWO303      0.0000 
     13 C1         17.9820   10.9350    9.5550           1 WWO303      0.0000 
     14 S11        19.6530   11.6120    9.6770           1 WWO303      0.0000 
     15 O22        19.9300   11.8900   11.1780           1 WWO303      0.0000 
     16 O23        19.5670   13.0780    9.1530           1 WWO303      0.0000 
     17 C21        21.1590   10.8160    9.0150           1 WWO303      0.0000 
     18 C24        20.8740   10.3910    7.5840           1 WWO303      0.0000 
     19 O25        21.0890    9.0030    7.4520           1 WWO303      0.0000 
     20 N26        16.9970   13.2050    9.7520           1 WWO303      0.0000 
     21 C14        15.8810   14.1230    9.9740           1 WWO303      0.0000 
     22 C15        16.0330   15.4490   10.7000           1 WWO303      0.0000 
     23 C20        14.8370   16.1680   10.9930           1 WWO303      0.0000 
     24 C19        14.8140   17.4390   11.6430           1 WWO303      0.0000 
     25 C18        16.0490   18.0360   12.0220           1 WWO303      0.0000 
     26 C17        17.2660   17.3340   11.7120           1 WWO303      0.0000 
     27 C16        17.2580   16.0560   11.0680           1 WWO303      0.0000 
@<TRIPOS>BOND
     1    1    2 du   
     2    2    3 du   
     3    2   12 du   
     4    3    4 du   
     5    3    8 du   
     6    4    5 du   
     7    4    6 du   
     8    4    7 du   
     9    8    9 du   
    10    8   10 du   
    11   10   11 du   
    12   10   13 du   
    13   12   13 du   
    14   12   20 du   
    15   13   14 du   
    16   14   15 du   
    17   14   16 du   
    18   14   17 du   
    19   17   18 du   
    20   18   19 du   
    21   20   21 du   
    22   21   22 du   
    23   22   23 du   
    24   22   27 du   
    25   23   24 du   
    26   24   25 du   
    27   25   26 du   
    28   26   27 du   
@<TRIPOS>SUBSTRUCTURE
     1 WWO303      1 GROUP   
@<TRIPOS>SET

