#    Name: 5ogo_2_WWO_CAVITY_N1_8
#    Modification time : Fri May 22 19:26:40 2020

@<TRIPOS>MOLECULE
5ogo_2_WWO_CAVITY_N1_8
   68     0     6     0     0
SMALL
NO_CHARGES


@<TRIPOS>ATOM
      1 OG         19.1700    5.3800   10.8000 O.3       1 SER1        0.0000 
      2 OG         18.0000    5.3700   11.7400 O.3       1 SER1        0.0000 
      3 OG         16.8300    5.3500   12.6800 O.3       1 SER1        0.0000 
      4 OG         16.1100    4.0200   14.1600 O.3       1 SER1        0.0000 
      5 OG         19.2800    4.7400   13.3100 O.3       1 SER1        0.0000 
      6 OG         18.8300    6.0600   12.7700 O.3       1 SER1        0.0000 
      7 OG         18.1100    4.7300   14.2500 O.3       1 SER1        0.0000 
      8 OG         17.6600    6.0500   13.7100 O.3       1 SER1        0.0000 
      9 OG         16.9400    4.7200   15.1900 O.3       1 SER1        0.0000 
     10 O          14.8400    4.6400   12.5800 O.2       2 ALA2        0.0000 
     11 O          15.9400    8.0100   11.6000 O.2       2 ALA2        0.0000 
     12 O          15.6600    5.3400   13.6200 O.2       2 ALA2        0.0000 
     13 O          15.2200    6.6700   13.0800 O.2       2 ALA2        0.0000 
     14 O          14.7700    8.0000   12.5400 O.2       2 ALA2        0.0000 
     15 O          14.0500    6.6600   14.0200 O.2       2 ALA2        0.0000 
     16 N          20.0000    6.0800   11.8300 N.am      2 ALA2        0.0000 
     17 OD1        15.3900    2.6800   15.6400 O.co2     3 ASP3        0.0000 
     18 CZ         13.6700    4.6300   13.5200 C.ar      4 PHE5        0.0000 
     19 CZ         12.5000    4.6200   14.4600 C.ar      4 PHE5        0.0000 
     20 CZ         18.7200    6.7000   10.2600 C.ar      4 PHE5        0.0000 
     21 CZ         17.5600    6.6900   11.2000 C.ar      4 PHE5        0.0000 
     22 CZ         17.1100    8.0200   10.6600 C.ar      4 PHE5        0.0000 
     23 CZ         16.3900    6.6800   12.1400 C.ar      4 PHE5        0.0000 
     24 CZ         14.3300    9.3200   12.0000 C.ar      4 PHE5        0.0000 
     25 CZ         14.9400    4.0000   15.1000 C.ar      4 PHE5        0.0000 
     26 CZ         14.5000    5.3300   14.5600 C.ar      4 PHE5        0.0000 
     27 CZ         13.6000    7.9800   13.4800 C.ar      4 PHE5        0.0000 
     28 CZ         13.7700    3.9900   16.0400 C.ar      4 PHE5        0.0000 
     29 CZ         17.3800    3.3900   15.7300 C.ar      4 PHE5        0.0000 
     30 CZ         14.4300    8.6800   14.5200 C.ar      4 PHE5        0.0000 
     31 CZ         20.4200   10.8200   14.8100 C.ar      4 PHE5        0.0000 
     32 CA         13.3300    5.3200   15.5000 C.3       5 GLY6        0.0000 
     33 CA         12.8800    6.6500   14.9600 C.3       5 GLY6        0.0000 
     34 CA         12.6000    3.9800   16.9800 C.3       5 GLY6        0.0000 
     35 CA         12.1600    5.3100   16.4400 C.3       5 GLY6        0.0000 
     36 CA         16.3200   10.0300   12.1000 C.3       5 GLY6        0.0000 
     37 CA         16.4900    6.0400   14.6500 C.3       5 GLY6        0.0000 
     38 CA         15.1500   10.0200   13.0400 C.3       5 GLY6        0.0000 
     39 CA         15.7700    4.7000   16.1300 C.3       5 GLY6        0.0000 
     40 CA         15.3200    6.0300   15.5900 C.3       5 GLY6        0.0000 
     41 CA         14.8800    7.3600   15.0600 C.3       5 GLY6        0.0000 
     42 CA         14.6000    4.6900   17.0700 C.3       5 GLY6        0.0000 
     43 CA         14.1500    6.0200   16.5300 C.3       5 GLY6        0.0000 
     44 CA         13.7100    7.3500   16.0000 C.3       5 GLY6        0.0000 
     45 CA         19.6600    6.7600   13.8100 C.3       5 GLY6        0.0000 
     46 CA         19.2100    8.0900   13.2700 C.3       5 GLY6        0.0000 
     47 CA         18.9300    5.4300   15.2900 C.3       5 GLY6        0.0000 
     48 CA         18.4900    6.7500   14.7500 C.3       5 GLY6        0.0000 
     49 CA         18.0400    8.0800   14.2100 C.3       5 GLY6        0.0000 
     50 CA         17.7700    5.4200   16.2300 C.3       5 GLY6        0.0000 
     51 CA         17.3200    6.7400   15.6900 C.3       5 GLY6        0.0000 
     52 CA         16.8700    8.0700   15.1500 C.3       5 GLY6        0.0000 
     53 CA         15.9800   10.7200   14.0800 C.3       5 GLY6        0.0000 
     54 CA         15.7000    8.0600   16.0900 C.3       5 GLY6        0.0000 
     55 CA         15.2600    9.3800   15.5500 C.3       5 GLY6        0.0000 
     56 CA         14.5300    8.0500   17.0300 C.3       5 GLY6        0.0000 
     57 CA         20.0400    8.7900   14.3100 C.3       5 GLY6        0.0000 
     58 CA         18.8700    8.7800   15.2500 C.3       5 GLY6        0.0000 
     59 CA         17.2500   10.1000   15.6500 C.3       5 GLY6        0.0000 
     60 CA         16.0800   10.0800   16.5900 C.3       5 GLY6        0.0000 
     61 DU         19.5500    7.4000   11.3000 H         6 CUB7        0.0000 
     62 DU         18.3800    7.3900   12.2400 H         6 CUB7        0.0000 
     63 DU         17.2100    7.3800   13.1800 H         6 CUB7        0.0000 
     64 DU         16.0500    7.3700   14.1200 H         6 CUB7        0.0000 
     65 DU         15.6000    8.7000   13.5800 H         6 CUB7        0.0000 
     66 DU         17.5900    9.4100   13.6700 H         6 CUB7        0.0000 
     67 DU         16.4300    9.4000   14.6100 H         6 CUB7        0.0000 
     68 DU         18.4200   10.1100   14.7100 H         6 CUB7        0.0000 
@<TRIPOS>BOND
@<TRIPOS>SUBSTRUCTURE
     1 SER1        1 GROUP   
     2 ALA2       10 GROUP   
     3 ASP3       17 GROUP   
     4 PHE5       18 GROUP   
     5 GLY6       32 GROUP   
     6 CUB7       61 GROUP   
@<TRIPOS>SET

