#    Name: 5ogo_1_WWO
#    Modification time : Fri May 22 19:26:37 2020

@<TRIPOS>MOLECULE
5ogo_1_WWO
   27    28     1     0     0
SMALL
NO_CHARGES


@<TRIPOS>ATOM
      1 F27        13.8830    4.8060   14.7960           1 WWO302      0.0000 
      2 C5         15.2100    4.7750   14.8560           1 WWO302      0.0000 
      3 C4         15.8710    3.8780   15.6910           1 WWO302      0.0000 
      4 S7         15.0430    2.6700   16.7690           1 WWO302      0.0000 
      5 O9         13.6470    2.8750   16.5860           1 WWO302      0.0000 
      6 N10        15.4710    1.2730   16.2170           1 WWO302      0.0000 
      7 O8         15.6160    2.9520   18.0630           1 WWO302      0.0000 
      8 C3         17.2550    3.9250   15.7000           1 WWO302      0.0000 
      9 F12        17.9470    3.0710   16.4380           1 WWO302      0.0000 
     10 C2         17.9440    4.8340   14.9300           1 WWO302      0.0000 
     11 F13        19.2700    4.8470   15.0660           1 WWO302      0.0000 
     12 C6         15.8990    5.6800   13.9990           1 WWO302      0.0000 
     13 C1         17.2800    5.6890   14.0480           1 WWO302      0.0000 
     14 S11        18.3090    6.7970   13.1020           1 WWO302      0.0000 
     15 O22        19.0300    7.6420   14.0710           1 WWO302      0.0000 
     16 O23        17.5090    7.4040   12.0780           1 WWO302      0.0000 
     17 C21        19.5050    5.8430   12.3590           1 WWO302      0.0000 
     18 C24        18.8770    5.0940   11.1740           1 WWO302      0.0000 
     19 O25        17.7430    4.2680   11.4500           1 WWO302      0.0000 
     20 N26        15.1080    6.4530   13.1240           1 WWO302      0.0000 
     21 C14        14.2630    7.4710   13.7400           1 WWO302      0.0000 
     22 C15        15.0550    8.6520   14.2400           1 WWO302      0.0000 
     23 C20        15.3670    8.7820   15.6140           1 WWO302      0.0000 
     24 C19        16.1410    9.8050   16.0780           1 WWO302      0.0000 
     25 C18        16.6360   10.7500   15.1520           1 WWO302      0.0000 
     26 C17        16.3550   10.6310   13.8270           1 WWO302      0.0000 
     27 C16        15.5620    9.5960   13.3530           1 WWO302      0.0000 
@<TRIPOS>BOND
     1    1    2 du   
     2    2    3 du   
     3    2   12 du   
     4    3    4 du   
     5    3    8 du   
     6    4    5 du   
     7    4    6 du   
     8    4    7 du   
     9    8    9 du   
    10    8   10 du   
    11   10   11 du   
    12   10   13 du   
    13   12   13 du   
    14   12   20 du   
    15   13   14 du   
    16   14   15 du   
    17   14   16 du   
    18   14   17 du   
    19   17   18 du   
    20   18   19 du   
    21   20   21 du   
    22   21   22 du   
    23   22   23 du   
    24   22   27 du   
    25   23   24 du   
    26   24   25 du   
    27   25   26 du   
    28   26   27 du   
@<TRIPOS>SUBSTRUCTURE
     1 WWO302      1 GROUP   
@<TRIPOS>SET

