#    Name: 5ogo_2_WWO_CAVITY_N1_4
#    Modification time : Fri May 22 19:26:40 2020

@<TRIPOS>MOLECULE
5ogo_2_WWO_CAVITY_N1_4
   20     0     5     0     0
SMALL
NO_CHARGES


@<TRIPOS>ATOM
      1 OG         19.1700    5.3800   10.8000 O.3       1 SER1        0.0000 
      2 OG         18.0000    5.3700   11.7400 O.3       1 SER1        0.0000 
      3 O          15.9400    8.0100   11.6000 O.2       2 ALA2        0.0000 
      4 O          15.2200    6.6700   13.0800 O.2       2 ALA2        0.0000 
      5 O          14.7700    8.0000   12.5400 O.2       2 ALA2        0.0000 
      6 O          14.0500    6.6600   14.0200 O.2       2 ALA2        0.0000 
      7 N          20.0000    6.0800   11.8300 N.am      2 ALA2        0.0000 
      8 CZ         18.7200    6.7000   10.2600 C.ar      3 PHE5        0.0000 
      9 CZ         17.5600    6.6900   11.2000 C.ar      3 PHE5        0.0000 
     10 CZ         17.1100    8.0200   10.6600 C.ar      3 PHE5        0.0000 
     11 CZ         16.3900    6.6800   12.1400 C.ar      3 PHE5        0.0000 
     12 CZ         14.3300    9.3200   12.0000 C.ar      3 PHE5        0.0000 
     13 CZ         13.6000    7.9800   13.4800 C.ar      3 PHE5        0.0000 
     14 CZ         20.4200   10.8200   14.8100 C.ar      3 PHE5        0.0000 
     15 CA         16.3200   10.0300   12.1000 C.3       4 GLY6        0.0000 
     16 CA         15.1500   10.0200   13.0400 C.3       4 GLY6        0.0000 
     17 CA         19.2100    8.0900   13.2700 C.3       4 GLY6        0.0000 
     18 DU         19.5500    7.4000   11.3000 H         5 CUB7        0.0000 
     19 DU         18.3800    7.3900   12.2400 H         5 CUB7        0.0000 
     20 DU         15.6000    8.7000   13.5800 H         5 CUB7        0.0000 
@<TRIPOS>BOND
@<TRIPOS>SUBSTRUCTURE
     1 SER1        1 GROUP   
     2 ALA2        3 GROUP   
     3 PHE5        8 GROUP   
     4 GLY6       15 GROUP   
     5 CUB7       18 GROUP   
@<TRIPOS>SET

