#    Name: 6fwz_1_UD1
#    Modification time : Fri May 22 19:29:39 2020

@<TRIPOS>MOLECULE
6fwz_1_UD1
   39    41     1     0     0
SMALL
NO_CHARGES


@<TRIPOS>ATOM
      1 C1'        38.8150   57.1420  131.5250 C.3       1 UD1502      0.0000 
      2 C2'        39.1990   58.6120  131.4220 C.3       1 UD1502      0.0000 
      3 C3'        37.9780   59.4600  131.0970 C.3       1 UD1502      0.0000 
      4 C4'        37.3510   58.9470  129.8120 C.3       1 UD1502      0.0000 
      5 C5'        37.0490   57.4540  129.9190 C.3       1 UD1502      0.0000 
      6 C6'        36.5580   56.8610  128.6140 C.3       1 UD1502      0.0000 
      7 C7'        41.0210   59.7810  132.5590 C.2       1 UD1502      0.0000 
      8 C8'        41.5630   60.2630  133.8700 C.3       1 UD1502      0.0000 
      9 N2'        39.8730   59.1020  132.6130 N.am      1 UD1502      0.0000 
     10 O1'        37.9600   56.9170  132.6330 O.3       1 UD1502      0.0000 
     11 O3'        38.3400   60.8350  131.0030 O.3       1 UD1502      0.0000 
     12 O4'        36.1140   59.6130  129.6260 O.3       1 UD1502      0.0000 
     13 O5'        38.2210   56.7060  130.3130 O.3       1 UD1502      0.0000 
     14 O6'        36.6590   55.4360  128.5660 O.3       1 UD1502      0.0000 
     15 O7'        41.5960   60.0030  131.4950 O.2       1 UD1502      0.0000 
     16 N1         32.6890   55.0340  126.0240 N.am      1 UD1502      0.0000 
     17 C2         32.1410   55.3910  124.8090 C.2       1 UD1502      0.0000 
     18 N3         32.7480   54.8320  123.7090 N.am      1 UD1502      0.0000 
     19 C4         33.8250   53.9690  123.7020 C.2       1 UD1502      0.0000 
     20 C5         34.3260   53.6280  124.9960 C.2       1 UD1502      0.0000 
     21 C6         33.7500   54.1480  126.0940 C.2       1 UD1502      0.0000 
     22 O2         31.1930   56.1510  124.7080 O.2       1 UD1502      0.0000 
     23 O4         34.2690   53.5510  122.6240 O.2       1 UD1502      0.0000 
     24 C1B        31.9910   55.5440  127.2390 C.3       1 UD1502      0.0000 
     25 C2B        30.7800   54.6590  127.5630 C.3       1 UD1502      0.0000 
     26 O2'        29.7880   55.3530  128.3110 O.3       1 UD1502      0.0000 
     27 C3B        31.4340   53.5770  128.4160 C.3       1 UD1502      0.0000 
     28 C4B        32.4060   54.4020  129.2480 C.3       1 UD1502      0.0000 
     29 O4B        32.8440   55.4690  128.3710 O.3       1 UD1502      0.0000 
     30 O3B        30.4850   52.8830  129.2190 O.3       1 UD1502      0.0000 
     31 C5B        33.6020   53.6470  129.7620 C.3       1 UD1502      0.0000 
     32 O5B        34.4110   54.5840  130.4940 O.3       1 UD1502      0.0000 
     33 PA         35.1160   54.0640  131.8180 P.3       1 UD1502      0.0000 
     34 O1A        35.9860   52.8660  131.6770 O.co2     1 UD1502      0.0000 
     35 O2A        34.0260   53.8190  132.8420 O.co2     1 UD1502      0.0000 
     36 O3A        35.9030   55.3560  132.2970 O.3       1 UD1502      0.0000 
     37 PB         37.3020   55.4810  133.0290 P.3       1 UD1502      0.0000 
     38 O1B        38.1160   54.2880  132.6980 O.co2     1 UD1502      0.0000 
     39 O2B        36.9800   55.5630  134.5040 O.co2     1 UD1502      0.0000 
@<TRIPOS>BOND
     1    1    2 1    
     2    1   10 1    
     3    1   13 1    
     4    2    3 1    
     5    2    9 1    
     6    3    4 1    
     7    3   11 1    
     8    4    5 1    
     9    4   12 1    
    10    5    6 1    
    11    5   13 1    
    12    6   14 1    
    13    7    8 1    
    14    7    9 am   
    15    7   15 2    
    16   10   37 1    
    17   16   17 1    
    18   16   21 1    
    19   16   24 1    
    20   17   18 1    
    21   17   22 2    
    22   18   19 1    
    23   19   20 1    
    24   19   23 2    
    25   20   21 2    
    26   24   25 1    
    27   24   29 1    
    28   25   26 1    
    29   25   27 1    
    30   27   28 1    
    31   27   30 1    
    32   28   29 1    
    33   28   31 1    
    34   31   32 1    
    35   32   33 1    
    36   33   34 ar   
    37   33   35 ar   
    38   33   36 1    
    39   36   37 1    
    40   37   38 ar   
    41   37   39 ar   
@<TRIPOS>SUBSTRUCTURE
     1 UD1502      1 GROUP   
@<TRIPOS>SET

