#    Name: 6u0h_2_GDP
#    Modification time : Fri May 22 19:27:46 2020

@<TRIPOS>MOLECULE
6u0h_2_GDP
   28    30     1     0     1
SMALL
NO_CHARGES


@<TRIPOS>ATOM
      1 PB        363.8210  305.3060  392.2010 P.3       1 GDP501      0.0000 
      2 O1B       363.7290  305.1090  390.7220 O.co2     1 GDP501      0.0000 
      3 O2B       362.6250  304.7110  392.8830 O.co2     1 GDP501      0.0000 
      4 O3B       365.0620  304.6470  392.6800 O.co2     1 GDP501      0.0000 
      5 O3A       363.8900  306.9250  392.5280 O.3       1 GDP501      0.0000 
      6 PA        363.0590  308.0590  391.6380 P.3       1 GDP501      0.0000 
      7 O1A       362.2900  307.3900  390.4980 O.co2     1 GDP501      0.0000 
      8 O2A       362.0930  308.7910  392.5910 O.co2     1 GDP501      0.0000 
      9 O5'       364.1180  309.1830  391.0340 O.3       1 GDP501      0.0000 
     10 C5'       364.0980  310.4210  391.6500 C.3       1 GDP501      0.0000 
     11 C4'       364.0080  311.5040  390.5960 C.3       1 GDP501      0.0000 
     12 O4'       362.6100  311.4160  389.7790 O.3       1 GDP501      0.0000 
     13 C3'       364.0240  312.6610  391.1740 C.3       1 GDP501      0.0000 
     14 O3'       364.9650  313.5310  390.4560 O.3       1 GDP501      0.0000 
     15 C2'       362.5810  313.2340  390.9690 C.3       1 GDP501      0.0000 
     16 O2'       362.6150  314.5760  390.9320 O.3       1 GDP501      0.0000 
     17 C1'       362.3070  312.6920  389.5970 C.3       1 GDP501      0.0000 
     18 N9        360.8870  312.9250  389.2250 N.pl3     1 GDP501      0.0000 
     19 C8        360.0930  312.2950  390.0820 C.2       1 GDP501      0.0000 
     20 N7        358.8340  312.5620  389.6790 N.2       1 GDP501      0.0000 
     21 C5        358.8810  313.3430  388.6060 C.2       1 GDP501      0.0000 
     22 C6        357.8070  313.9540  387.7320 C.2       1 GDP501      0.0000 
     23 O6        356.6800  313.7650  387.9720 O.2       1 GDP501      0.0000 
     24 N1        358.1700  314.7850  386.6140 N.am      1 GDP501      0.0000 
     25 C2        359.5470  315.0210  386.3240 C.2       1 GDP501      0.0000 
     26 N2        359.9530  315.8820  385.1660 N.pl3     1 GDP501      0.0000 
     27 N3        360.5630  314.4280  387.1620 N.2       1 GDP501      0.0000 
     28 C4        360.1710  313.5780  388.3270 C.2       1 GDP501      0.0000 
@<TRIPOS>BOND
     1    1    2 ar   
     2    1    3 ar   
     3    1    4 ar   
     4    1    5 1    
     5    5    6 1    
     6    6    7 ar   
     7    6    8 ar   
     8    6    9 1    
     9    9   10 1    
    10   10   11 1    
    11   11   12 1    
    12   11   13 1    
    13   12   17 1    
    14   13   14 1    
    15   13   15 1    
    16   15   16 1    
    17   15   17 1    
    18   17   18 1    
    19   18   19 1    
    20   18   28 1    
    21   19   20 2    
    22   20   21 1    
    23   21   22 1    
    24   21   28 2    
    25   22   23 2    
    26   22   24 am   
    27   24   25 1    
    28   25   26 1    
    29   25   27 2    
    30   27   28 1    
@<TRIPOS>SUBSTRUCTURE
     1 GDP501      1 GROUP   
@<TRIPOS>SET
ATOM$ORANGE STATIC     ATOMS   COLORGROUP SYSTEM 
20 10 10 11 11 13 13 15 15 17 17 19 19 21 21 22 22 25 \
25 28 28 

