#    Name: 6u0h_1_GTP
#    Modification time : Fri May 22 19:27:42 2020

@<TRIPOS>MOLECULE
6u0h_1_GTP
   32    34     1     0     1
SMALL
NO_CHARGES


@<TRIPOS>ATOM
      1 PG        364.7820  304.6590  353.0280 P.3       1 GTP501      0.0000 
      2 O1G       366.0600  304.3940  353.7910 O.co2     1 GTP501      0.0000 
      3 O2G       364.0310  303.3800  352.7500 O.co2     1 GTP501      0.0000 
      4 O3G       363.8990  305.6080  353.8070 O.co2     1 GTP501      0.0000 
      5 O3B       365.0860  305.4010  351.5950 O.3       1 GTP501      0.0000 
      6 PB        363.9270  306.4910  351.1840 P.3       1 GTP501      0.0000 
      7 O1B       362.8880  306.4880  352.2910 O.co2     1 GTP501      0.0000 
      8 O2B       363.2990  306.0980  349.8800 O.co2     1 GTP501      0.0000 
      9 O3A       364.5830  307.9950  351.0710 O.3       1 GTP501      0.0000 
     10 PA        364.3430  308.9420  349.7390 P.3       1 GTP501      0.0000 
     11 O1A       362.9910  309.6280  349.8580 O.co2     1 GTP501      0.0000 
     12 O2A       364.4010  308.1130  348.4830 O.co2     1 GTP501      0.0000 
     13 O5'       365.5150  310.0800  349.7040 O.3       1 GTP501      0.0000 
     14 C5'       365.1500  311.3480  350.0750 C.3       1 GTP501      0.0000 
     15 C4'       364.8800  312.1490  348.7650 C.3       1 GTP501      0.0000 
     16 O4'       363.7590  311.7510  348.2210 O.3       1 GTP501      0.0000 
     17 C3'       364.6880  313.6130  349.1220 C.3       1 GTP501      0.0000 
     18 O3'       365.5680  314.3770  348.4240 O.3       1 GTP501      0.0000 
     19 C2'       363.2390  313.9010  348.6690 C.3       1 GTP501      0.0000 
     20 O2'       363.0680  315.3090  348.2260 O.3       1 GTP501      0.0000 
     21 C1'       363.1090  313.1100  347.6750 C.3       1 GTP501      0.0000 
     22 N9        361.6960  312.9890  347.3640 N.pl3     1 GTP501      0.0000 
     23 C8        360.8070  312.3650  348.1760 C.2       1 GTP501      0.0000 
     24 N7        359.5850  312.4530  347.5870 N.2       1 GTP501      0.0000 
     25 C5        359.7210  313.1100  346.4400 C.2       1 GTP501      0.0000 
     26 C6        358.7140  313.5280  345.3500 C.2       1 GTP501      0.0000 
     27 O6        357.5670  313.2410  345.4630 O.2       1 GTP501      0.0000 
     28 N1        359.1610  314.2660  344.1950 N.am      1 GTP501      0.0000 
     29 C2        360.5580  314.6080  344.0800 C.2       1 GTP501      0.0000 
     30 N2        361.0520  315.3380  342.9350 N.pl3     1 GTP501      0.0000 
     31 N3        361.5110  314.2070  345.1380 N.2       1 GTP501      0.0000 
     32 C4        361.0430  313.4530  346.3180 C.2       1 GTP501      0.0000 
@<TRIPOS>BOND
     1    1    2 ar   
     2    1    3 ar   
     3    1    4 ar   
     4    1    5 1    
     5    5    6 1    
     6    6    7 ar   
     7    6    8 ar   
     8    6    9 1    
     9    9   10 1    
    10   10   11 ar   
    11   10   12 ar   
    12   10   13 1    
    13   13   14 1    
    14   14   15 1    
    15   15   16 1    
    16   15   17 1    
    17   16   21 1    
    18   17   18 1    
    19   17   19 1    
    20   19   20 1    
    21   19   21 1    
    22   21   22 1    
    23   22   23 1    
    24   22   32 1    
    25   23   24 2    
    26   24   25 1    
    27   25   26 1    
    28   25   32 2    
    29   26   27 2    
    30   26   28 am   
    31   28   29 1    
    32   29   30 1    
    33   29   31 2    
    34   31   32 1    
@<TRIPOS>SUBSTRUCTURE
     1 GTP501      1 GROUP   
@<TRIPOS>SET
ATOM$ORANGE STATIC     ATOMS   COLORGROUP SYSTEM 
20 14 14 15 15 17 17 19 19 21 21 23 23 25 25 26 26 29 \
29 32 32 

