#    Name: 5kdz_1_ANN
#    Modification time : Fri May 22 19:12:45 2020

@<TRIPOS>MOLECULE
5kdz_1_ANN
   11    11     1     0     0
SMALL
NO_CHARGES


@<TRIPOS>ATOM
      1 C8          3.4350   -0.9830   18.8940 C.3       1 ANN501      0.0000 
      2 O3          4.3380   -0.0370   19.4300 O.3       1 ANN501      0.0000 
      3 C5          4.2870    1.2540   18.8750 C.ar      1 ANN501      0.0000 
      4 C6          3.3870    1.6050   17.8610 C.ar      1 ANN501      0.0000 
      5 C7          3.4010    2.9040   17.3630 C.ar      1 ANN501      0.0000 
      6 C2          4.3000    3.8320   17.8750 C.ar      1 ANN501      0.0000 
      7 C3          5.1920    3.4770   18.8800 C.ar      1 ANN501      0.0000 
      8 C4          5.1820    2.1860   19.3820 C.ar      1 ANN501      0.0000 
      9 C1          4.3110    5.2340   17.3310 C.2       1 ANN501      0.0000 
     10 O1          5.2560    6.0090   17.6330 O.co2     1 ANN501      0.0000 
     11 O2          3.3730    5.6080   16.5780 O.co2     1 ANN501      0.0000 
@<TRIPOS>BOND
     1    1    2 1    
     2    2    3 1    
     3    3    4 ar   
     4    3    8 ar   
     5    4    5 ar   
     6    5    6 ar   
     7    6    7 ar   
     8    6    9 1    
     9    7    8 ar   
    10    9   10 ar   
    11    9   11 ar   
@<TRIPOS>SUBSTRUCTURE
     1 ANN501      1 GROUP   
@<TRIPOS>SET

