#    Name: 6mdz_3_IPH_CAVITY_N1_4
#    Modification time : Fri May 22 19:37:26 2020

@<TRIPOS>MOLECULE
6mdz_3_IPH_CAVITY_N1_4
   52     0     6     0     0
SMALL
NO_CHARGES


@<TRIPOS>ATOM
      1 OG        133.4500   14.9400   24.9600 O.3       1 SER1        0.0000 
      2 OG        132.5800   16.3800   26.2600 O.3       1 SER1        0.0000 
      3 OG        133.6700   16.4000   25.2300 O.3       1 SER1        0.0000 
      4 OG        134.7200   23.3200   28.6700 O.3       1 SER1        0.0000 
      5 N         131.5800   16.7300   25.2000 N.am      2 ALA2        0.0000 
      6 N         136.3100   19.3600   23.7100 N.am      2 ALA2        0.0000 
      7 N         135.4500   20.8000   25.0100 N.am      2 ALA2        0.0000 
      8 N         134.5800   22.2300   26.3100 N.am      2 ALA2        0.0000 
      9 NZ        131.7200   17.8200   27.5600 N.4       3 LYS4        0.0000 
     10 NZ        131.9500   19.2800   27.8300 N.4       3 LYS4        0.0000 
     11 NZ        133.1800   20.3800   29.1600 N.4       3 LYS4        0.0000 
     12 CZ        134.7600   16.4200   24.2000 C.ar      4 PHE5        0.0000 
     13 CZ        135.7700   16.0700   25.2600 C.ar      4 PHE5        0.0000 
     14 CZ        135.8600   16.4400   23.1700 C.ar      4 PHE5        0.0000 
     15 CZ        136.8600   16.0900   24.2300 C.ar      4 PHE5        0.0000 
     16 CZ        134.9000   17.5100   26.5600 C.ar      4 PHE5        0.0000 
     17 CZ        134.9900   17.8800   24.4700 C.ar      4 PHE5        0.0000 
     18 CZ        136.0800   17.9000   23.4400 C.ar      4 PHE5        0.0000 
     19 CZ        135.1300   18.9600   26.8300 C.ar      4 PHE5        0.0000 
     20 CZ        132.4000   22.1900   28.3700 C.ar      4 PHE5        0.0000 
     21 CZ        133.4100   21.8400   29.4300 C.ar      4 PHE5        0.0000 
     22 CZ        133.7200   23.6700   27.6100 C.ar      4 PHE5        0.0000 
     23 CA        130.7200   18.1700   26.5000 C.3       5 GLY6        0.0000 
     24 CA        130.8000   18.5400   24.4100 C.3       5 GLY6        0.0000 
     25 CA        131.8100   18.1900   25.4700 C.3       5 GLY6        0.0000 
     26 CA        132.8100   17.8400   26.5300 C.3       5 GLY6        0.0000 
     27 CA        133.8100   17.4900   27.5800 C.3       5 GLY6        0.0000 
     28 CA        131.8900   18.5700   23.3800 C.3       5 GLY6        0.0000 
     29 CA        132.9000   18.2100   24.4400 C.3       5 GLY6        0.0000 
     30 CA        132.9800   18.5900   22.3600 C.3       5 GLY6        0.0000 
     31 CA        133.9900   18.2300   23.4100 C.3       5 GLY6        0.0000 
     32 CA        135.0800   18.2500   22.3800 C.3       5 GLY6        0.0000 
     33 CA        133.0400   19.3000   26.8000 C.3       5 GLY6        0.0000 
     34 CA        134.0400   18.9400   27.8600 C.3       5 GLY6        0.0000 
     35 CA        133.1200   19.6700   24.7100 C.3       5 GLY6        0.0000 
     36 CA        134.1300   19.3200   25.7700 C.3       5 GLY6        0.0000 
     37 CA        134.2200   19.6900   23.6800 C.3       5 GLY6        0.0000 
     38 CA        135.2200   19.3400   24.7400 C.3       5 GLY6        0.0000 
     39 CA        132.1700   20.7300   28.1000 C.3       5 GLY6        0.0000 
     40 CA        133.2600   20.7500   27.0700 C.3       5 GLY6        0.0000 
     41 CA        134.2700   20.4000   28.1300 C.3       5 GLY6        0.0000 
     42 CA        134.3600   20.7800   26.0400 C.3       5 GLY6        0.0000 
     43 CA        135.3600   20.4200   27.1000 C.3       5 GLY6        0.0000 
     44 CA        134.4400   21.1500   23.9500 C.3       5 GLY6        0.0000 
     45 CA        133.4900   22.2100   27.3400 C.3       5 GLY6        0.0000 
     46 CA        134.5000   21.8600   28.4000 C.3       5 GLY6        0.0000 
     47 CA        133.5800   22.5900   25.2500 C.3       5 GLY6        0.0000 
     48 CA        135.5900   21.8800   27.3700 C.3       5 GLY6        0.0000 
     49 CA        134.8100   23.6900   26.5800 C.3       5 GLY6        0.0000 
     50 DU        132.6700   16.7600   24.1700 H         6 CUB7        0.0000 
     51 DU        133.7600   16.7800   23.1400 H         6 CUB7        0.0000 
     52 DU        133.9000   17.8600   25.5000 H         6 CUB7        0.0000 
@<TRIPOS>BOND
@<TRIPOS>SUBSTRUCTURE
     1 SER1        1 GROUP   
     2 ALA2        5 GROUP   
     3 LYS4        9 GROUP   
     4 PHE5       12 GROUP   
     5 GLY6       23 GROUP   
     6 CUB7       50 GROUP   
@<TRIPOS>SET

