#    Name: 6mdz_3_IPH
#    Modification time : Fri May 22 19:37:25 2020

@<TRIPOS>MOLECULE
6mdz_3_IPH
    7     7     1     0     0
SMALL
NO_CHARGES


@<TRIPOS>ATOM
      1 C1        134.3230   19.8300   26.4080 C.ar      1 IPH901      0.0000 
      2 C2        134.7080   20.9110   25.6230 C.ar      1 IPH901      0.0000 
      3 C3        134.6230   22.2020   26.1310 C.ar      1 IPH901      0.0000 
      4 C4        134.1520   22.4130   27.4220 C.ar      1 IPH901      0.0000 
      5 C5        133.7670   21.3320   28.2060 C.ar      1 IPH901      0.0000 
      6 C6        133.8530   20.0400   27.7000 C.ar      1 IPH901      0.0000 
      7 O1        134.4070   18.5570   25.9090 O.3       1 IPH901      0.0000 
@<TRIPOS>BOND
     1    1    2 ar   
     2    1    6 ar   
     3    1    7 1    
     4    2    3 ar   
     5    3    4 ar   
     6    4    5 ar   
     7    5    6 ar   
@<TRIPOS>SUBSTRUCTURE
     1 IPH901      1 GROUP   
@<TRIPOS>SET

