#    Name: 6f5d_2_ADP_CAVITY_N1_4
#    Modification time : Fri May 22 19:27:51 2020

@<TRIPOS>MOLECULE
6f5d_2_ADP_CAVITY_N1_4
   74     0     6     0     0
SMALL
NO_CHARGES


@<TRIPOS>ATOM
      1 OG         61.4600   41.5400  130.4600 O.3       1 SER1        0.0000 
      2 OG         62.3400   42.3900  131.3300 O.3       1 SER1        0.0000 
      3 OG         63.6900   42.6500  129.7200 O.3       1 SER1        0.0000 
      4 OG         63.5500   41.6600  130.8300 O.3       1 SER1        0.0000 
      5 OG         63.2600   39.6600  133.0500 O.3       1 SER1        0.0000 
      6 OG         64.4200   42.5000  131.7100 O.3       1 SER1        0.0000 
      7 OG         64.2800   41.5000  132.8200 O.3       1 SER1        0.0000 
      8 OG         65.4900   40.7700  132.3100 O.3       1 SER1        0.0000 
      9 OG         65.3500   39.7700  133.4200 O.3       1 SER1        0.0000 
     10 OG         66.8400   41.0400  130.7000 O.3       1 SER1        0.0000 
     11 OG         66.7000   40.0400  131.8100 O.3       1 SER1        0.0000 
     12 OG         66.5600   39.0400  132.9200 O.3       1 SER1        0.0000 
     13 O          67.7700   38.3100  132.4200 O.2       2 ALA2        0.0000 
     14 N          65.7200   46.3500  129.2500 N.am      2 ALA2        0.0000 
     15 N          65.5800   45.3500  130.3600 N.am      2 ALA2        0.0000 
     16 N          65.0100   41.3500  134.8000 N.am      2 ALA2        0.0000 
     17 N          66.7900   44.6200  129.8600 N.am      2 ALA2        0.0000 
     18 N          68.0000   43.8900  129.3600 N.am      2 ALA2        0.0000 
     19 N          66.4600   46.2000  131.2400 N.am      2 ALA2        0.0000 
     20 N          66.0300   43.2000  134.5700 N.am      2 ALA2        0.0000 
     21 N          67.9700   42.3200  136.0500 N.am      2 ALA2        0.0000 
     22 O          70.2500   39.8600  136.1600 O.2       2 ALA2        0.0000 
     23 N          70.0500   42.4400  136.4200 N.am      2 ALA2        0.0000 
     24 N          69.9100   41.4400  137.5300 N.am      2 ALA2        0.0000 
     25 N          69.7700   40.4400  138.6400 N.am      2 ALA2        0.0000 
     26 N          71.1200   40.7100  137.0300 N.am      2 ALA2        0.0000 
     27 OD1        61.6100   42.5400  129.3500 O.co2     3 ASP3        0.0000 
     28 NZ         62.6200   44.3800  129.1100 N.4       4 LYS4        0.0000 
     29 NZ         63.6400   46.2300  128.8800 N.4       4 LYS4        0.0000 
     30 NZ         63.5000   45.2300  129.9900 N.4       4 LYS4        0.0000 
     31 NZ         64.7100   44.5000  129.4900 N.4       4 LYS4        0.0000 
     32 NZ         65.9200   43.7700  128.9800 N.4       4 LYS4        0.0000 
     33 NZ         67.1300   43.0400  128.4800 N.4       4 LYS4        0.0000 
     34 CA         64.1400   40.5000  133.9200 C.3       5 GLY6        0.0000 
     35 CA         68.9300   41.1600  131.0800 C.3       5 GLY6        0.0000 
     36 CA         68.7800   40.1600  132.1900 C.3       5 GLY6        0.0000 
     37 CA         68.6400   39.1600  133.3000 C.3       5 GLY6        0.0000 
     38 CA         66.3100   45.2000  132.3500 C.3       5 GLY6        0.0000 
     39 CA         67.5200   44.4700  131.8500 C.3       5 GLY6        0.0000 
     40 CA         68.7300   43.7400  131.3400 C.3       5 GLY6        0.0000 
     41 CA         69.9400   43.0100  130.8400 C.3       5 GLY6        0.0000 
     42 CA         69.6600   41.0100  133.0600 C.3       5 GLY6        0.0000 
     43 CA         69.5200   40.0100  134.1700 C.3       5 GLY6        0.0000 
     44 CA         69.6100   44.5900  132.2200 C.3       5 GLY6        0.0000 
     45 CA         69.4700   43.5900  133.3300 C.3       5 GLY6        0.0000 
     46 CA         69.3200   42.5900  134.4400 C.3       5 GLY6        0.0000 
     47 CA         70.3900   40.8600  135.0500 C.3       5 GLY6        0.0000 
     48 CA         71.2600   41.7100  135.9200 C.3       5 GLY6        0.0000 
     49 CA         70.9800   39.7100  138.1400 C.3       5 GLY6        0.0000 
     50 CA         72.3300   39.9800  136.5300 C.3       5 GLY6        0.0000 
     51 DU         62.4800   43.3800  130.2200 H         6 CUB7        0.0000 
     52 DU         63.3500   44.2300  131.1000 H         6 CUB7        0.0000 
     53 DU         63.2100   43.2300  132.2100 H         6 CUB7        0.0000 
     54 DU         64.5600   43.5000  130.6000 H         6 CUB7        0.0000 
     55 DU         65.7700   42.7700  130.0900 H         6 CUB7        0.0000 
     56 DU         66.9900   42.0400  129.5900 H         6 CUB7        0.0000 
     57 DU         64.3700   46.0800  130.8600 H         6 CUB7        0.0000 
     58 DU         64.2300   45.0800  131.9700 H         6 CUB7        0.0000 
     59 DU         65.4400   44.3500  131.4700 H         6 CUB7        0.0000 
     60 DU         65.1500   42.3500  133.6900 H         6 CUB7        0.0000 
     61 DU         66.6500   43.6200  130.9700 H         6 CUB7        0.0000 
     62 DU         66.5100   42.6200  132.0800 H         6 CUB7        0.0000 
     63 DU         66.3600   41.6200  133.1900 H         6 CUB7        0.0000 
     64 DU         66.2200   40.6200  134.3000 H         6 CUB7        0.0000 
     65 DU         67.8600   42.8900  130.4700 H         6 CUB7        0.0000 
     66 DU         67.5700   40.8900  132.6900 H         6 CUB7        0.0000 
     67 DU         67.4300   39.8900  133.8000 H         6 CUB7        0.0000 
     68 DU         69.0700   42.1600  129.9700 H         6 CUB7        0.0000 
     69 DU         67.3800   43.4700  132.9600 H         6 CUB7        0.0000 
     70 DU         67.2400   42.4700  134.0600 H         6 CUB7        0.0000 
     71 DU         68.5900   42.7400  132.4500 H         6 CUB7        0.0000 
     72 DU         68.4500   41.7400  133.5600 H         6 CUB7        0.0000 
     73 DU         68.1100   43.3200  134.9400 H         6 CUB7        0.0000 
     74 DU         69.1800   41.5900  135.5500 H         6 CUB7        0.0000 
@<TRIPOS>BOND
@<TRIPOS>SUBSTRUCTURE
     1 SER1        1 GROUP   
     2 ALA2       13 GROUP   
     3 ASP3       27 GROUP   
     4 LYS4       28 GROUP   
     5 GLY6       34 GROUP   
     6 CUB7       51 GROUP   
@<TRIPOS>SET

