#    Name: 6f5d_4_ADP
#    Modification time : Fri May 22 19:28:27 2020

@<TRIPOS>MOLECULE
6f5d_4_ADP
   27    29     1     0     1
SMALL
NO_CHARGES


@<TRIPOS>ATOM
      1 PB        118.8040   17.0550  151.1300 P.3       1 ADP600      0.0000 
      2 O1B       118.9990   18.0150  149.9790 O.co2     1 ADP600      0.0000 
      3 O2B       119.6760   17.3440  152.3230 O.co2     1 ADP600      0.0000 
      4 O3B       117.3560   16.8210  151.4900 O.co2     1 ADP600      0.0000 
      5 PA        120.8500   15.2150  150.2890 P.3       1 ADP600      0.0000 
      6 O1A       121.7190   16.4470  150.3780 O.co2     1 ADP600      0.0000 
      7 O2A       121.1590   14.0380  151.1820 O.co2     1 ADP600      0.0000 
      8 O3A       119.3050   15.6250  150.5530 O.3       1 ADP600      0.0000 
      9 O5'       120.8690   14.6870  148.7580 O.3       1 ADP600      0.0000 
     10 C5'       120.2900   13.4270  148.3940 C.3       1 ADP600      0.0000 
     11 C4'       120.6150   12.9840  146.9580 C.3       1 ADP600      0.0000 
     12 O4'       121.0160   14.0710  146.1170 O.3       1 ADP600      0.0000 
     13 C3'       121.7310   11.9450  146.8810 C.3       1 ADP600      0.0000 
     14 O3'       121.1980   10.6290  146.7070 O.3       1 ADP600      0.0000 
     15 C2'       122.5960   12.3430  145.7010 C.3       1 ADP600      0.0000 
     16 O2'       122.5230   11.3800  144.6430 O.3       1 ADP600      0.0000 
     17 C1'       122.0720   13.6920  145.2190 C.3       1 ADP600      0.0000 
     18 N9        123.1470   14.7260  145.1980 N.pl3     1 ADP600      0.0000 
     19 C8        123.0470   15.9450  145.7540 C.2       1 ADP600      0.0000 
     20 N7        124.1780   16.6720  145.5780 N.2       1 ADP600      0.0000 
     21 C5        125.0390   15.9090  144.8860 C.ar      1 ADP600      0.0000 
     22 C6        126.4220   16.0590  144.3620 C.ar      1 ADP600      0.0000 
     23 N6        127.1210   17.2050  144.5460 N.pl3     1 ADP600      0.0000 
     24 N1        126.9570   15.0100  143.6870 N.ar      1 ADP600      0.0000 
     25 C2        126.2750   13.8580  143.4910 C.ar      1 ADP600      0.0000 
     26 N3        125.0150   13.6620  143.9430 N.ar      1 ADP600      0.0000 
     27 C4        124.3530   14.6290  144.6300 C.ar      1 ADP600      0.0000 
@<TRIPOS>BOND
     1    1    2 ar   
     2    1    3 ar   
     3    1    4 ar   
     4    1    8 1    
     5    5    6 ar   
     6    5    7 ar   
     7    5    8 1    
     8    5    9 1    
     9    9   10 1    
    10   10   11 1    
    11   11   12 1    
    12   11   13 1    
    13   12   17 1    
    14   13   14 1    
    15   13   15 1    
    16   15   16 1    
    17   15   17 1    
    18   17   18 1    
    19   18   19 1    
    20   18   27 1    
    21   19   20 2    
    22   20   21 1    
    23   21   22 ar   
    24   21   27 ar   
    25   22   23 1    
    26   22   24 ar   
    27   24   25 ar   
    28   25   26 ar   
    29   26   27 ar   
@<TRIPOS>SUBSTRUCTURE
     1 ADP600      1 GROUP   
@<TRIPOS>SET
ATOM$ORANGE STATIC     ATOMS   COLORGROUP SYSTEM 
20 10 10 11 11 13 13 15 15 17 17 19 19 21 21 22 22 25 \
25 27 27 

