#    Name: 6f5d_6_ADP
#    Modification time : Fri May 22 19:28:47 2020

@<TRIPOS>MOLECULE
6f5d_6_ADP
   27    29     1     0     1
SMALL
NO_CHARGES


@<TRIPOS>ATOM
      1 PB         73.6820   11.3840  137.4960 P.3       1 ADP600      0.0000 
      2 O1B        74.8120   10.9270  136.6060 O.co2     1 ADP600      0.0000 
      3 O2B        73.1760   10.3170  138.4300 O.co2     1 ADP600      0.0000 
      4 O3B        73.9490   12.6920  138.1990 O.co2     1 ADP600      0.0000 
      5 PA         71.8060   10.6720  135.4310 P.3       1 ADP600      0.0000 
      6 O1A        72.5590    9.3650  135.4670 O.co2     1 ADP600      0.0000 
      7 O2A        70.3170   10.6690  135.6860 O.co2     1 ADP600      0.0000 
      8 O3A        72.4690   11.7200  136.4740 O.3       1 ADP600      0.0000 
      9 O5'        72.0670   11.3430  133.9860 O.3       1 ADP600      0.0000 
     10 C5'        71.6140   12.6670  133.7070 C.3       1 ADP600      0.0000 
     11 C4'        71.6810   12.9970  132.2170 C.3       1 ADP600      0.0000 
     12 O4'        72.8170   12.4230  131.5580 O.3       1 ADP600      0.0000 
     13 C3'        70.4580   12.4900  131.4690 C.3       1 ADP600      0.0000 
     14 O3'        69.4290   13.4820  131.4380 O.3       1 ADP600      0.0000 
     15 C2'        70.9640   12.1410  130.0810 C.3       1 ADP600      0.0000 
     16 O2'        70.6110   13.1360  129.1090 O.3       1 ADP600      0.0000 
     17 C1'        72.4850   12.0430  130.2100 C.3       1 ADP600      0.0000 
     18 N9         72.9340   10.6570  129.8820 N.pl3     1 ADP600      0.0000 
     19 C8         73.5280    9.7900  130.7230 C.2       1 ADP600      0.0000 
     20 N7         73.8060    8.6090  130.1120 N.2       1 ADP600      0.0000 
     21 C5         73.3820    8.7100  128.8430 C.ar      1 ADP600      0.0000 
     22 C6         73.3610    7.8330  127.6470 C.ar      1 ADP600      0.0000 
     23 N6         73.8680    6.5800  127.6970 N.pl3     1 ADP600      0.0000 
     24 N1         72.8270    8.3310  126.5030 N.ar      1 ADP600      0.0000 
     25 C2         72.3170    9.5820  126.4340 C.ar      1 ADP600      0.0000 
     26 N3         72.3030   10.4290  127.4870 N.ar      1 ADP600      0.0000 
     27 C4         72.8110   10.0610  128.6930 C.ar      1 ADP600      0.0000 
@<TRIPOS>BOND
     1    1    2 ar   
     2    1    3 ar   
     3    1    4 ar   
     4    1    8 1    
     5    5    6 ar   
     6    5    7 ar   
     7    5    8 1    
     8    5    9 1    
     9    9   10 1    
    10   10   11 1    
    11   11   12 1    
    12   11   13 1    
    13   12   17 1    
    14   13   14 1    
    15   13   15 1    
    16   15   16 1    
    17   15   17 1    
    18   17   18 1    
    19   18   19 1    
    20   18   27 1    
    21   19   20 2    
    22   20   21 1    
    23   21   22 ar   
    24   21   27 ar   
    25   22   23 1    
    26   22   24 ar   
    27   24   25 ar   
    28   25   26 ar   
    29   26   27 ar   
@<TRIPOS>SUBSTRUCTURE
     1 ADP600      1 GROUP   
@<TRIPOS>SET
ATOM$ORANGE STATIC     ATOMS   COLORGROUP SYSTEM 
20 10 10 11 11 13 13 15 15 17 17 19 19 21 21 22 22 25 \
25 27 27 

