#    Name: 6f5d_1_ADP
#    Modification time : Fri May 22 19:27:31 2020

@<TRIPOS>MOLECULE
6f5d_1_ADP
   27    29     1     0     1
SMALL
NO_CHARGES


@<TRIPOS>ATOM
      1 PB        116.8550   44.1650  148.8820 P.3       1 ADP600      0.0000 
      2 O1B       115.7450   43.9300  147.8890 O.co2     1 ADP600      0.0000 
      3 O2B       116.5920   45.3240  149.8050 O.co2     1 ADP600      0.0000 
      4 O3B       117.3500   42.9150  149.5710 O.co2     1 ADP600      0.0000 
      5 PA        119.4010   45.3890  148.5230 P.3       1 ADP600      0.0000 
      6 O1A       119.1630   46.8800  148.4660 O.co2     1 ADP600      0.0000 
      7 O2A       119.8100   44.7300  149.8200 O.co2     1 ADP600      0.0000 
      8 O3A       118.0890   44.6380  147.9510 O.3       1 ADP600      0.0000 
      9 O5'       120.5130   45.0530  147.4130 O.3       1 ADP600      0.0000 
     10 C5'       120.9320   43.7110  147.1770 C.3       1 ADP600      0.0000 
     11 C4'       122.2390   43.7160  146.3960 C.3       1 ADP600      0.0000 
     12 O4'       122.0350   44.3550  145.1300 O.3       1 ADP600      0.0000 
     13 C3'       123.3510   44.4670  147.1230 C.3       1 ADP600      0.0000 
     14 O3'       124.4810   43.6090  147.3120 O.3       1 ADP600      0.0000 
     15 C2'       123.6710   45.6620  146.2410 C.3       1 ADP600      0.0000 
     16 O2'       125.0790   45.8860  146.1150 O.3       1 ADP600      0.0000 
     17 C1'       123.0490   45.3310  144.8880 C.3       1 ADP600      0.0000 
     18 N9        122.4770   46.5420  144.2430 N.pl3     1 ADP600      0.0000 
     19 C8        121.3760   47.2100  144.6400 C.2       1 ADP600      0.0000 
     20 N7        121.1350   48.2710  143.8270 N.2       1 ADP600      0.0000 
     21 C5        122.0940   48.2890  142.8890 C.ar      1 ADP600      0.0000 
     22 C6        122.4340   49.1410  141.7250 C.ar      1 ADP600      0.0000 
     23 N6        121.6690   50.2100  141.4050 N.pl3     1 ADP600      0.0000 
     24 N1        123.5300   48.8070  140.9960 N.ar      1 ADP600      0.0000 
     25 C2        124.3030   47.7390  141.3010 C.ar      1 ADP600      0.0000 
     26 N3        124.0460   46.9260  142.3500 N.ar      1 ADP600      0.0000 
     27 C4        122.9790   47.1440  143.1650 C.ar      1 ADP600      0.0000 
@<TRIPOS>BOND
     1    1    2 ar   
     2    1    3 ar   
     3    1    4 ar   
     4    1    8 1    
     5    5    6 ar   
     6    5    7 ar   
     7    5    8 1    
     8    5    9 1    
     9    9   10 1    
    10   10   11 1    
    11   11   12 1    
    12   11   13 1    
    13   12   17 1    
    14   13   14 1    
    15   13   15 1    
    16   15   16 1    
    17   15   17 1    
    18   17   18 1    
    19   18   19 1    
    20   18   27 1    
    21   19   20 2    
    22   20   21 1    
    23   21   22 ar   
    24   21   27 ar   
    25   22   23 1    
    26   22   24 ar   
    27   24   25 ar   
    28   25   26 ar   
    29   26   27 ar   
@<TRIPOS>SUBSTRUCTURE
     1 ADP600      1 GROUP   
@<TRIPOS>SET
ATOM$ORANGE STATIC     ATOMS   COLORGROUP SYSTEM 
20 10 10 11 11 13 13 15 15 17 17 19 19 21 21 22 22 25 \
25 27 27 

