#    Name: 6f5d_3_ADP
#    Modification time : Fri May 22 19:28:08 2020

@<TRIPOS>MOLECULE
6f5d_3_ADP
   27    29     1     0     1
SMALL
NO_CHARGES


@<TRIPOS>ATOM
      1 PB         98.2290    0.0180  144.6530 P.3       1 ADP600      0.0000 
      2 O1B        98.7260    1.3470  144.1420 O.co2     1 ADP600      0.0000 
      3 O2B        98.9400   -0.4690  145.8880 O.co2     1 ADP600      0.0000 
      4 O3B        96.7270   -0.1070  144.7080 O.co2     1 ADP600      0.0000 
      5 PA         98.6210   -2.6240  143.6910 P.3       1 ADP600      0.0000 
      6 O1A       100.0000   -3.1340  144.0220 O.co2     1 ADP600      0.0000 
      7 O2A        97.4610   -2.9940  144.5830 O.co2     1 ADP600      0.0000 
      8 O3A        98.6870   -1.0200  143.5060 O.3       1 ADP600      0.0000 
      9 O5'        98.2940   -3.1010  142.1900 O.3       1 ADP600      0.0000 
     10 C5'        97.0850   -2.7410  141.5280 C.3       1 ADP600      0.0000 
     11 C4'        96.8310   -3.7210  140.3930 C.3       1 ADP600      0.0000 
     12 O4'        97.9010   -3.6380  139.4460 O.3       1 ADP600      0.0000 
     13 C3'        96.7630   -5.1610  140.8880 C.3       1 ADP600      0.0000 
     14 O3'        95.5940   -5.8120  140.3830 O.3       1 ADP600      0.0000 
     15 C2'        98.0340   -5.8110  140.3780 C.3       1 ADP600      0.0000 
     16 O2'        97.8210   -7.1600  139.9520 O.3       1 ADP600      0.0000 
     17 C1'        98.4840   -4.9240  139.2230 C.3       1 ADP600      0.0000 
     18 N9         99.9690   -4.8460  139.1440 N.pl3     1 ADP600      0.0000 
     19 C8        100.8040   -4.3790  140.0950 C.2       1 ADP600      0.0000 
     20 N7        102.0990   -4.4600  139.6990 N.2       1 ADP600      0.0000 
     21 C5        102.1060   -4.9850  138.4650 C.ar      1 ADP600      0.0000 
     22 C6        103.1380   -5.3380  137.4640 C.ar      1 ADP600      0.0000 
     23 N6        104.4540   -5.1340  137.7170 N.pl3     1 ADP600      0.0000 
     24 N1        102.7210   -5.8650  136.2860 N.ar      1 ADP600      0.0000 
     25 C2        101.4130   -6.0750  136.0140 C.ar      1 ADP600      0.0000 
     26 N3        100.4270   -5.7740  136.8860 N.ar      1 ADP600      0.0000 
     27 C4        100.7020   -5.2380  138.1020 C.ar      1 ADP600      0.0000 
@<TRIPOS>BOND
     1    1    2 ar   
     2    1    3 ar   
     3    1    4 ar   
     4    1    8 1    
     5    5    6 ar   
     6    5    7 ar   
     7    5    8 1    
     8    5    9 1    
     9    9   10 1    
    10   10   11 1    
    11   11   12 1    
    12   11   13 1    
    13   12   17 1    
    14   13   14 1    
    15   13   15 1    
    16   15   16 1    
    17   15   17 1    
    18   17   18 1    
    19   18   19 1    
    20   18   27 1    
    21   19   20 2    
    22   20   21 1    
    23   21   22 ar   
    24   21   27 ar   
    25   22   23 1    
    26   22   24 ar   
    27   24   25 ar   
    28   25   26 ar   
    29   26   27 ar   
@<TRIPOS>SUBSTRUCTURE
     1 ADP600      1 GROUP   
@<TRIPOS>SET
ATOM$ORANGE STATIC     ATOMS   COLORGROUP SYSTEM 
20 10 10 11 11 13 13 15 15 17 17 19 19 21 21 22 22 25 \
25 27 27 

