#    Name: 6f5d_2_ADP
#    Modification time : Fri May 22 19:27:50 2020

@<TRIPOS>MOLECULE
6f5d_2_ADP
   27    29     1     0     1
SMALL
NO_CHARGES


@<TRIPOS>ATOM
      1 PB         69.1140   37.6380  134.3780 P.3       1 ADP600      0.0000 
      2 O1B        70.2720   36.7020  134.1170 O.co2     1 ADP600      0.0000 
      3 O2B        67.9070   36.9470  134.9480 O.co2     1 ADP600      0.0000 
      4 O3B        69.4910   38.9320  135.0630 O.co2     1 ADP600      0.0000 
      5 PA         67.2530   38.8560  132.6010 P.3       1 ADP600      0.0000 
      6 O1A        66.1680   37.8280  132.4040 O.co2     1 ADP600      0.0000 
      7 O2A        67.0470   39.9460  133.6230 O.co2     1 ADP600      0.0000 
      8 O3A        68.6420   38.0860  132.8970 O.3       1 ADP600      0.0000 
      9 O5'        67.5500   39.5600  131.1860 O.3       1 ADP600      0.0000 
     10 C5'        68.6130   40.4960  131.0140 C.3       1 ADP600      0.0000 
     11 C4'        68.2480   41.5080  129.9350 C.3       1 ADP600      0.0000 
     12 O4'        68.0290   40.8260  128.6950 O.3       1 ADP600      0.0000 
     13 C3'        66.9720   42.2730  130.2580 C.3       1 ADP600      0.0000 
     14 O3'        67.1570   43.6670  129.9970 O.3       1 ADP600      0.0000 
     15 C2'        65.9170   41.6680  129.3480 C.3       1 ADP600      0.0000 
     16 O2'        64.9560   42.6250  128.8900 O.3       1 ADP600      0.0000 
     17 C1'        66.7200   41.1060  128.1870 C.3       1 ADP600      0.0000 
     18 N9         66.1070   39.8790  127.6190 N.pl3     1 ADP600      0.0000 
     19 C8         65.8300   38.7420  128.2840 C.2       1 ADP600      0.0000 
     20 N7         65.2770   37.8180  127.4620 N.2       1 ADP600      0.0000 
     21 C5         65.2000   38.3610  126.2370 C.ar      1 ADP600      0.0000 
     22 C6         64.7180   37.9240  124.9030 C.ar      1 ADP600      0.0000 
     23 N6         64.1990   36.6870  124.7210 N.pl3     1 ADP600      0.0000 
     24 N1         64.8220   38.8080  123.8790 N.ar      1 ADP600      0.0000 
     25 C2         65.3450   40.0470  124.0430 C.ar      1 ADP600      0.0000 
     26 N3         65.7910   40.5050  125.2330 N.ar      1 ADP600      0.0000 
     27 C4         65.7510   39.7230  126.3440 C.ar      1 ADP600      0.0000 
@<TRIPOS>BOND
     1    1    2 ar   
     2    1    3 ar   
     3    1    4 ar   
     4    1    8 1    
     5    5    6 ar   
     6    5    7 ar   
     7    5    8 1    
     8    5    9 1    
     9    9   10 1    
    10   10   11 1    
    11   11   12 1    
    12   11   13 1    
    13   12   17 1    
    14   13   14 1    
    15   13   15 1    
    16   15   16 1    
    17   15   17 1    
    18   17   18 1    
    19   18   19 1    
    20   18   27 1    
    21   19   20 2    
    22   20   21 1    
    23   21   22 ar   
    24   21   27 ar   
    25   22   23 1    
    26   22   24 ar   
    27   24   25 ar   
    28   25   26 ar   
    29   26   27 ar   
@<TRIPOS>SUBSTRUCTURE
     1 ADP600      1 GROUP   
@<TRIPOS>SET
ATOM$ORANGE STATIC     ATOMS   COLORGROUP SYSTEM 
20 10 10 11 11 13 13 15 15 17 17 19 19 21 21 22 22 25 \
25 27 27 

