#    Name: 6o1v_2_ATP
#    Modification time : Fri May 22 19:35:44 2020

@<TRIPOS>MOLECULE
6o1v_2_ATP
   31    33     1     0     1
SMALL
NO_CHARGES


@<TRIPOS>ATOM
      1 PG        162.3850  157.3790  100.9620 P.3       1 ATP2004     0.0000 
      2 O1G       162.6000  157.4750   99.4750 O.co2     1 ATP2004     0.0000 
      3 O2G       162.0160  155.9970  101.4280 O.co2     1 ATP2004     0.0000 
      4 O3G       161.4660  158.4490  101.4930 O.co2     1 ATP2004     0.0000 
      5 PB        164.6110  159.0790  101.4930 P.3       1 ATP2004     0.0000 
      6 O1B       165.0730  159.2550  100.0870 O.co2     1 ATP2004     0.0000 
      7 O2B       163.7880  160.1420  102.1370 O.co2     1 ATP2004     0.0000 
      8 O3B       163.8100  157.7030  101.6010 O.3       1 ATP2004     0.0000 
      9 PA        166.1360  159.4340  103.8640 P.3       1 ATP2004     0.0000 
     10 O1A       166.4310  160.8770  103.6290 O.co2     1 ATP2004     0.0000 
     11 O2A       164.9950  159.0940  104.7640 O.co2     1 ATP2004     0.0000 
     12 O3A       165.8590  158.7650  102.4390 O.3       1 ATP2004     0.0000 
     13 O5'       167.4480  158.6640  104.3700 O.3       1 ATP2004     0.0000 
     14 C5'       168.6000  158.4390  103.5210 C.3       1 ATP2004     0.0000 
     15 C4'       169.5080  157.4590  104.2160 C.3       1 ATP2004     0.0000 
     16 O4'       169.7680  157.9420  105.5570 O.3       1 ATP2004     0.0000 
     17 C3'       168.9450  156.0370  104.3550 C.3       1 ATP2004     0.0000 
     18 O3'       169.8130  155.1030  103.7250 O.3       1 ATP2004     0.0000 
     19 C2'       168.8040  155.7990  105.8650 C.3       1 ATP2004     0.0000 
     20 O2'       169.3210  154.5440  106.2490 O.3       1 ATP2004     0.0000 
     21 C1'       169.6110  156.9220  106.5130 C.3       1 ATP2004     0.0000 
     22 N9        168.9450  157.5070  107.6880 N.pl3     1 ATP2004     0.0000 
     23 C8        167.7120  158.1230  107.7220 C.2       1 ATP2004     0.0000 
     24 N7        167.3930  158.5480  108.9240 N.2       1 ATP2004     0.0000 
     25 C5        168.4730  158.1910  109.7260 C.ar      1 ATP2004     0.0000 
     26 C6        168.7410  158.3610  111.1030 C.ar      1 ATP2004     0.0000 
     27 N6        167.9140  158.9650  111.9540 N.pl3     1 ATP2004     0.0000 
     28 N1        169.9160  157.8780  111.5750 N.ar      1 ATP2004     0.0000 
     29 C2        170.7540  157.2780  110.7160 C.ar      1 ATP2004     0.0000 
     30 N3        170.6110  157.0630  109.4080 N.ar      1 ATP2004     0.0000 
     31 C4        169.4340  157.5480  108.9690 C.ar      1 ATP2004     0.0000 
@<TRIPOS>BOND
     1    1    2 ar   
     2    1    3 ar   
     3    1    4 ar   
     4    1    8 1    
     5    5    6 ar   
     6    5    7 ar   
     7    5    8 1    
     8    5   12 1    
     9    9   10 ar   
    10    9   11 ar   
    11    9   12 1    
    12    9   13 1    
    13   13   14 1    
    14   14   15 1    
    15   15   16 1    
    16   15   17 1    
    17   16   21 1    
    18   17   18 1    
    19   17   19 1    
    20   19   20 1    
    21   19   21 1    
    22   21   22 1    
    23   22   23 1    
    24   22   31 1    
    25   23   24 2    
    26   24   25 1    
    27   25   26 ar   
    28   25   31 ar   
    29   26   27 1    
    30   26   28 ar   
    31   28   29 ar   
    32   29   30 ar   
    33   30   31 ar   
@<TRIPOS>SUBSTRUCTURE
     1 ATP2004     1 GROUP   
@<TRIPOS>SET
ATOM$ORANGE STATIC     ATOMS   COLORGROUP SYSTEM 
20 14 14 15 15 17 17 19 19 21 21 23 23 25 25 26 26 29 \
29 31 31 

