#    Name: 6o1v_3_ATP
#    Modification time : Fri May 22 19:35:53 2020

@<TRIPOS>MOLECULE
6o1v_3_ATP
   31    33     1     0     1
SMALL
NO_CHARGES


@<TRIPOS>ATOM
      1 PG        143.0640  154.8110  101.7200 P.3       1 ATP2005     0.0000 
      2 O1G       142.6220  154.7920  100.2850 O.co2     1 ATP2005     0.0000 
      3 O2G       143.6510  156.1300  102.1500 O.co2     1 ATP2005     0.0000 
      4 O3G       143.9380  153.6340  102.0710 O.co2     1 ATP2005     0.0000 
      5 PB        140.9210  153.2540  102.7630 P.3       1 ATP2005     0.0000 
      6 O1B       140.3270  152.8540  101.4610 O.co2     1 ATP2005     0.0000 
      7 O2B       141.8490  152.3230  103.4660 O.co2     1 ATP2005     0.0000 
      8 O3B       141.7060  154.6280  102.5520 O.3       1 ATP2005     0.0000 
      9 PA        139.3710  152.7570  105.0620 P.3       1 ATP2005     0.0000 
     10 O1A       139.2240  151.3530  104.5790 O.co2     1 ATP2005     0.0000 
     11 O2A       140.3750  152.9910  106.1430 O.co2     1 ATP2005     0.0000 
     12 O3A       139.7650  153.6520  103.7940 O.3       1 ATP2005     0.0000 
     13 O5'       137.9390  153.3000  105.5540 O.3       1 ATP2005     0.0000 
     14 C5'       137.0990  154.2250  104.8240 C.3       1 ATP2005     0.0000 
     15 C4'       136.4100  155.1220  105.8200 C.3       1 ATP2005     0.0000 
     16 O4'       136.0720  154.3620  107.0040 O.3       1 ATP2005     0.0000 
     17 C3'       137.2550  156.2880  106.3340 C.3       1 ATP2005     0.0000 
     18 O3'       137.0850  157.3930  105.4580 O.3       1 ATP2005     0.0000 
     19 C2'       136.7000  156.5370  107.7420 C.3       1 ATP2005     0.0000 
     20 O2'       135.6670  157.4980  107.7760 O.3       1 ATP2005     0.0000 
     21 C1'       136.1580  155.1690  108.1580 C.3       1 ATP2005     0.0000 
     22 N9        137.0070  154.4800  109.1260 N.pl3     1 ATP2005     0.0000 
     23 C8        138.2240  153.8920  108.8760 C.2       1 ATP2005     0.0000 
     24 N7        138.7470  153.3460  109.9500 N.2       1 ATP2005     0.0000 
     25 C5        137.8230  153.5920  110.9590 C.ar      1 ATP2005     0.0000 
     26 C6        137.8020  153.2700  112.3310 C.ar      1 ATP2005     0.0000 
     27 N6        138.7720  152.5990  112.9440 N.pl3     1 ATP2005     0.0000 
     28 N1        136.7250  153.6730  113.0530 N.ar      1 ATP2005     0.0000 
     29 C2        135.7480  154.3480  112.4270 C.ar      1 ATP2005     0.0000 
     30 N3        135.6600  154.7050  111.1470 N.ar      1 ATP2005     0.0000 
     31 C4        136.7430  154.2930  110.4590 C.ar      1 ATP2005     0.0000 
@<TRIPOS>BOND
     1    1    2 ar   
     2    1    3 ar   
     3    1    4 ar   
     4    1    8 1    
     5    5    6 ar   
     6    5    7 ar   
     7    5    8 1    
     8    5   12 1    
     9    9   10 ar   
    10    9   11 ar   
    11    9   12 1    
    12    9   13 1    
    13   13   14 1    
    14   14   15 1    
    15   15   16 1    
    16   15   17 1    
    17   16   21 1    
    18   17   18 1    
    19   17   19 1    
    20   19   20 1    
    21   19   21 1    
    22   21   22 1    
    23   22   23 1    
    24   22   31 1    
    25   23   24 2    
    26   24   25 1    
    27   25   26 ar   
    28   25   31 ar   
    29   26   27 1    
    30   26   28 ar   
    31   28   29 ar   
    32   29   30 ar   
    33   30   31 ar   
@<TRIPOS>SUBSTRUCTURE
     1 ATP2005     1 GROUP   
@<TRIPOS>SET
ATOM$ORANGE STATIC     ATOMS   COLORGROUP SYSTEM 
20 14 14 15 15 17 17 19 19 21 21 23 23 25 25 26 26 29 \
29 31 31 

