#    Name: 5zdk_1_ATP
#    Modification time : Fri May 22 19:26:41 2020

@<TRIPOS>MOLECULE
5zdk_1_ATP
   31    33     1     0     1
SMALL
NO_CHARGES


@<TRIPOS>ATOM
      1 PG         20.6080    6.0820   17.5360 P.3       1 ATP601      0.0000 
      2 O1G        21.3440    6.7020   16.3460 O.co2     1 ATP601      0.0000 
      3 O2G        21.3240    6.1600   18.8530 O.co2     1 ATP601      0.0000 
      4 O3G        19.1380    6.3630   17.6810 O.co2     1 ATP601      0.0000 
      5 PB         22.1140    3.9430   16.5540 P.3       1 ATP601      0.0000 
      6 O1B        22.0650    3.8860   15.0180 O.co2     1 ATP601      0.0000 
      7 O2B        23.2000    4.6680   17.3590 O.co2     1 ATP601      0.0000 
      8 O3B        20.7130    4.5360   17.0900 O.3       1 ATP601      0.0000 
      9 PA         22.6080    1.7950   18.3460 P.3       1 ATP601      0.0000 
     10 O1A        23.4170    0.7620   17.6320 O.co2     1 ATP601      0.0000 
     11 O2A        23.2250    2.9550   19.1130 O.co2     1 ATP601      0.0000 
     12 O3A        21.9040    2.4210   17.0610 O.3       1 ATP601      0.0000 
     13 O5'        21.2720    1.2970   19.1180 O.3       1 ATP601      0.0000 
     14 C5'        20.3960    0.2840   18.5960 C.3       1 ATP601      0.0000 
     15 C4'        18.9280    0.5240   18.9530 C.3       1 ATP601      0.0000 
     16 O4'        18.7900    0.9310   20.3200 O.3       1 ATP601      0.0000 
     17 C3'        18.3680    1.6590   18.1500 C.3       1 ATP601      0.0000 
     18 O3'        16.9890    1.3530   17.9390 O.3       1 ATP601      0.0000 
     19 C2'        18.5800    2.8750   19.0580 C.3       1 ATP601      0.0000 
     20 O2'        17.8060    4.0650   18.7540 O.3       1 ATP601      0.0000 
     21 C1'        18.2420    2.2550   20.4000 C.3       1 ATP601      0.0000 
     22 N9         18.7600    3.1690   21.4470 N.pl3     1 ATP601      0.0000 
     23 C8         19.9480    3.8200   21.4600 C.2       1 ATP601      0.0000 
     24 N7         20.0310    4.6460   22.5380 N.2       1 ATP601      0.0000 
     25 C5         18.8850    4.5210   23.2270 C.ar      1 ATP601      0.0000 
     26 C6         18.3190    5.0910   24.4490 C.ar      1 ATP601      0.0000 
     27 N6         19.0580    5.9860   25.1520 N.pl3     1 ATP601      0.0000 
     28 N1         17.0650    4.7110   24.8420 N.ar      1 ATP601      0.0000 
     29 C2         16.3380    3.8450   24.1320 C.ar      1 ATP601      0.0000 
     30 N3         16.8340    3.3020   23.0000 N.ar      1 ATP601      0.0000 
     31 C4         18.0530    3.5840   22.5060 C.ar      1 ATP601      0.0000 
@<TRIPOS>BOND
     1    1    2 ar   
     2    1    3 ar   
     3    1    4 ar   
     4    1    8 1    
     5    5    6 ar   
     6    5    7 ar   
     7    5    8 1    
     8    5   12 1    
     9    9   10 ar   
    10    9   11 ar   
    11    9   12 1    
    12    9   13 1    
    13   13   14 1    
    14   14   15 1    
    15   15   16 1    
    16   15   17 1    
    17   16   21 1    
    18   17   18 1    
    19   17   19 1    
    20   19   20 1    
    21   19   21 1    
    22   21   22 1    
    23   22   23 1    
    24   22   31 1    
    25   23   24 2    
    26   24   25 1    
    27   25   26 ar   
    28   25   31 ar   
    29   26   27 1    
    30   26   28 ar   
    31   28   29 ar   
    32   29   30 ar   
    33   30   31 ar   
@<TRIPOS>SUBSTRUCTURE
     1 ATP601      1 GROUP   
@<TRIPOS>SET
ATOM$ORANGE STATIC     ATOMS   COLORGROUP SYSTEM 
20 14 14 15 15 17 17 19 19 21 21 23 23 25 25 26 26 29 \
29 31 31 

