#    Name: 6cvt_1_AMP
#    Modification time : Fri May 22 19:31:14 2020

@<TRIPOS>MOLECULE
6cvt_1_AMP
   23    25     1     0     1
SMALL
NO_CHARGES


@<TRIPOS>ATOM
      1 P           1.0340  -19.3150  -15.9700 P.3       1 AMP402      0.0000 
      2 O1P         1.0910  -18.7610  -17.3810 O.co2     1 AMP402      0.0000 
      3 O2P         2.2470  -20.0010  -15.3840 O.co2     1 AMP402      0.0000 
      4 O3P         0.5350  -18.0970  -15.0390 O.co2     1 AMP402      0.0000 
      5 O5'        -0.0880  -20.4380  -15.8990 O.3       1 AMP402      0.0000 
      6 C5'        -1.4270  -20.1760  -16.3060 C.3       1 AMP402      0.0000 
      7 C4'        -1.9800  -21.3750  -17.0220 C.3       1 AMP402      0.0000 
      8 O4'        -3.0520  -21.9540  -16.2480 O.3       1 AMP402      0.0000 
      9 C3'        -2.5480  -21.0780  -18.4150 C.3       1 AMP402      0.0000 
     10 O3'        -1.8860  -21.8700  -19.3970 O.3       1 AMP402      0.0000 
     11 C2'        -4.0300  -21.4760  -18.3210 C.3       1 AMP402      0.0000 
     12 O2'        -4.5210  -22.1120  -19.4820 O.3       1 AMP402      0.0000 
     13 C1'        -4.0490  -22.4230  -17.1240 C.3       1 AMP402      0.0000 
     14 N9         -5.3170  -22.4620  -16.3870 N.pl3     1 AMP402      0.0000 
     15 C8         -6.1300  -21.3940  -16.1250 C.2       1 AMP402      0.0000 
     16 N7         -7.2250  -21.7240  -15.4170 N.2       1 AMP402      0.0000 
     17 C5         -7.0960  -23.0950  -15.2200 C.ar      1 AMP402      0.0000 
     18 C6         -7.9070  -24.0420  -14.5530 C.ar      1 AMP402      0.0000 
     19 N6         -9.0720  -23.7320  -13.9310 N.pl3     1 AMP402      0.0000 
     20 N1         -7.4880  -25.3300  -14.5490 N.ar      1 AMP402      0.0000 
     21 C2         -6.3380  -25.6450  -15.1640 C.ar      1 AMP402      0.0000 
     22 N3         -5.5040  -24.8450  -15.8110 N.ar      1 AMP402      0.0000 
     23 C4         -5.9270  -23.5500  -15.8170 C.ar      1 AMP402      0.0000 
@<TRIPOS>BOND
     1    1    2 ar   
     2    1    3 ar   
     3    1    4 ar   
     4    1    5 1    
     5    5    6 1    
     6    6    7 1    
     7    7    8 1    
     8    7    9 1    
     9    8   13 1    
    10    9   10 1    
    11    9   11 1    
    12   11   12 1    
    13   11   13 1    
    14   13   14 1    
    15   14   15 1    
    16   14   23 1    
    17   15   16 2    
    18   16   17 1    
    19   17   18 ar   
    20   17   23 ar   
    21   18   19 1    
    22   18   20 ar   
    23   20   21 ar   
    24   21   22 ar   
    25   22   23 ar   
@<TRIPOS>SUBSTRUCTURE
     1 AMP402      1 GROUP   
@<TRIPOS>SET
ATOM$ORANGE STATIC     ATOMS   COLORGROUP SYSTEM 
20 6 6 7 7 9 9 11 11 13 13 15 15 17 17 18 18 21 \
21 23 23 

