#    Name: 6jwu_5_AMP_CAVITY_N1_8
#    Modification time : Fri May 22 19:34:32 2020

@<TRIPOS>MOLECULE
6jwu_5_AMP_CAVITY_N1_8
   76     0     7     0     0
SMALL
NO_CHARGES


@<TRIPOS>ATOM
      1 OG         42.0600  194.4900   63.3300 O.3       1 SER1        0.0000 
      2 OG         42.1000  198.0000   62.2500 O.3       1 SER1        0.0000 
      3 OG         42.2300  197.0800   63.4300 O.3       1 SER1        0.0000 
      4 OG         43.1200  196.1800   62.6200 O.3       1 SER1        0.0000 
      5 OG         43.2600  195.2600   63.8000 O.3       1 SER1        0.0000 
      6 OG         44.0100  195.2800   61.8100 O.3       1 SER1        0.0000 
      7 OG         44.1500  194.3600   62.9900 O.3       1 SER1        0.0000 
      8 OG         44.3200  196.9500   63.0800 O.3       1 SER1        0.0000 
      9 N          42.6400  191.9200   61.2600 N.am      2 ALA2        0.0000 
     10 O          43.3900  191.9400   59.2700 O.2       2 ALA2        0.0000 
     11 O          43.9800  191.7700   62.8900 O.2       2 ALA2        0.0000 
     12 N          45.0400  193.4600   62.1800 N.am      2 ALA2        0.0000 
     13 N          45.1800  192.5400   63.3600 N.am      2 ALA2        0.0000 
     14 N          46.2400  194.2400   62.6400 N.am      2 ALA2        0.0000 
     15 N          46.3800  193.3200   63.8200 N.am      2 ALA2        0.0000 
     16 N          47.1300  193.3400   61.8300 N.am      2 ALA2        0.0000 
     17 N          43.8900  198.6000   66.3400 N.am      2 ALA2        0.0000 
     18 N          48.1900  195.0300   61.1200 N.am      2 ALA2        0.0000 
     19 N          48.3300  194.1100   62.3000 N.am      2 ALA2        0.0000 
     20 N          49.0800  194.1300   60.3100 N.am      2 ALA2        0.0000 
     21 N          48.5000  196.7000   62.3900 N.am      2 ALA2        0.0000 
     22 N          48.6400  195.7800   63.5700 N.am      2 ALA2        0.0000 
     23 OD1        43.8700  196.2000   60.6400 O.co2     3 ASP3        0.0000 
     24 OD1        42.2700  200.5900   62.3500 O.co2     3 ASP3        0.0000 
     25 OD1        43.1600  199.6900   61.5400 O.co2     3 ASP3        0.0000 
     26 OD1        43.3000  198.7700   62.7200 O.co2     3 ASP3        0.0000 
     27 OD1        44.1800  197.8700   61.9100 O.co2     3 ASP3        0.0000 
     28 OD1        45.0700  196.9800   61.1000 O.co2     3 ASP3        0.0000 
     29 OD1        46.2700  197.7500   61.5600 O.co2     3 ASP3        0.0000 
     30 NZ         44.7600  195.3100   59.8300 N.4       4 LYS4        0.0000 
     31 NZ         44.9000  194.3900   61.0000 N.4       4 LYS4        0.0000 
     32 NZ         45.6500  194.4100   59.0200 N.4       4 LYS4        0.0000 
     33 NZ         45.9600  196.0800   60.2900 N.4       4 LYS4        0.0000 
     34 CZ         42.5000  192.8400   60.0800 C.ar      5 PHE5        0.0000 
     35 CZ         42.9500  193.5900   62.5300 C.ar      5 PHE5        0.0000 
     36 CZ         43.7000  193.6100   60.5400 C.ar      5 PHE5        0.0000 
     37 CZ         43.8400  192.6900   61.7200 C.ar      5 PHE5        0.0000 
     38 CZ         41.2100  198.9000   63.0600 C.ar      5 PHE5        0.0000 
     39 CZ         41.4900  197.0600   65.4100 C.ar      5 PHE5        0.0000 
     40 CZ         42.3700  196.1600   64.6100 C.ar      5 PHE5        0.0000 
     41 CZ         44.2900  193.4400   64.1600 C.ar      5 PHE5        0.0000 
     42 CZ         42.4100  199.6700   63.5200 C.ar      5 PHE5        0.0000 
     43 CZ         42.5500  198.7500   64.7000 C.ar      5 PHE5        0.0000 
     44 CZ         42.6900  197.8300   65.8800 C.ar      5 PHE5        0.0000 
     45 CZ         43.5700  196.9300   65.0700 C.ar      5 PHE5        0.0000 
     46 CZ         43.7100  196.0100   66.2400 C.ar      5 PHE5        0.0000 
     47 CZ         44.4600  196.0300   64.2600 C.ar      5 PHE5        0.0000 
     48 CZ         45.3500  195.1300   63.4500 C.ar      5 PHE5        0.0000 
     49 CZ         44.7700  197.7000   65.5300 C.ar      5 PHE5        0.0000 
     50 CZ         44.9100  196.7800   66.7100 C.ar      5 PHE5        0.0000 
     51 CZ         45.6600  196.8000   64.7200 C.ar      5 PHE5        0.0000 
     52 CZ         46.5500  195.9100   63.9100 C.ar      5 PHE5        0.0000 
     53 CZ         47.4400  195.0100   63.1000 C.ar      5 PHE5        0.0000 
     54 CZ         47.5800  194.0900   64.2800 C.ar      5 PHE5        0.0000 
     55 CZ         47.0000  196.6600   66.3600 C.ar      5 PHE5        0.0000 
     56 CZ         47.7500  196.6800   64.3800 C.ar      5 PHE5        0.0000 
     57 CZ         47.8900  195.7600   65.5500 C.ar      5 PHE5        0.0000 
     58 CA         43.5300  191.0200   60.4500 C.3       6 GLY6        0.0000 
     59 CA         43.0900  192.6700   63.7000 C.3       6 GLY6        0.0000 
     60 CA         44.5900  192.7200   59.7300 C.3       6 GLY6        0.0000 
     61 CA         44.7300  191.7900   60.9100 C.3       6 GLY6        0.0000 
     62 CA         44.8700  190.8700   62.0900 C.3       6 GLY6        0.0000 
     63 CA         45.7900  193.4900   60.2000 C.3       6 GLY6        0.0000 
     64 CA         45.9300  192.5700   61.3700 C.3       6 GLY6        0.0000 
     65 CA         46.8500  195.1800   59.4800 C.3       6 GLY6        0.0000 
     66 CA         47.8800  193.3600   59.8500 C.3       6 GLY6        0.0000 
     67 CA         48.0200  192.4400   61.0300 C.3       6 GLY6        0.0000 
     68 CA         48.7800  194.8600   64.7400 C.3       6 GLY6        0.0000 
     69 DU         43.4300  197.8500   63.8900 H         7 CUB7        0.0000 
     70 DU         45.2100  196.0600   62.2700 H         7 CUB7        0.0000 
     71 DU         46.1000  195.1600   61.4700 H         7 CUB7        0.0000 
     72 DU         46.9900  194.2600   60.6600 H         7 CUB7        0.0000 
     73 DU         44.6300  198.6200   64.3500 H         7 CUB7        0.0000 
     74 DU         45.5200  197.7300   63.5500 H         7 CUB7        0.0000 
     75 DU         46.4100  196.8300   62.7400 H         7 CUB7        0.0000 
     76 DU         47.3000  195.9300   61.9300 H         7 CUB7        0.0000 
@<TRIPOS>BOND
@<TRIPOS>SUBSTRUCTURE
     1 SER1        1 GROUP   
     2 ALA2        9 GROUP   
     3 ASP3       23 GROUP   
     4 LYS4       30 GROUP   
     5 PHE5       34 GROUP   
     6 GLY6       58 GROUP   
     7 CUB7       69 GROUP   
@<TRIPOS>SET

