#    Name: 6jwu_5_AMP
#    Modification time : Fri May 22 19:34:31 2020

@<TRIPOS>MOLECULE
6jwu_5_AMP
   23    25     1     0     1
SMALL
NO_CHARGES


@<TRIPOS>ATOM
      1 P          45.6800  199.6980   60.8090 P.3       1 AMP803      0.0000 
      2 O1P        45.8780  199.6220   59.3040 O.co2     1 AMP803      0.0000 
      3 O2P        46.1660  201.0130   61.3890 O.co2     1 AMP803      0.0000 
      4 O3P        44.2550  199.3830   61.2400 O.co2     1 AMP803      0.0000 
      5 O5'        46.6300  198.5240   61.4340 O.3       1 AMP803      0.0000 
      6 C5'        46.0310  197.2490   61.7990 C.3       1 AMP803      0.0000 
      7 C4'        47.0920  196.2610   62.2300 C.3       1 AMP803      0.0000 
      8 O4'        46.4720  195.2910   63.1100 O.3       1 AMP803      0.0000 
      9 C3'        47.7640  195.4560   61.1070 C.3       1 AMP803      0.0000 
     10 O3'        49.0770  195.9500   60.8650 O.3       1 AMP803      0.0000 
     11 C2'        47.7960  194.0030   61.6030 C.3       1 AMP803      0.0000 
     12 O2'        49.0670  193.6150   62.0730 O.3       1 AMP803      0.0000 
     13 C1'        46.8020  193.9650   62.7620 C.3       1 AMP803      0.0000 
     14 N9         45.5650  193.2330   62.4950 N.pl3     1 AMP803      0.0000 
     15 C8         44.8530  192.5440   63.4450 C.2       1 AMP803      0.0000 
     16 N7         43.7740  191.9680   62.9810 N.2       1 AMP803      0.0000 
     17 C5         43.7640  192.2940   61.6310 C.ar      1 AMP803      0.0000 
     18 C6         42.8660  191.9790   60.5880 C.ar      1 AMP803      0.0000 
     19 N6         41.7660  191.2490   60.7550 N.pl3     1 AMP803      0.0000 
     20 N1         43.1430  192.4630   59.3540 N.ar      1 AMP803      0.0000 
     21 C2         44.2450  193.2070   59.1930 C.ar      1 AMP803      0.0000 
     22 N3         45.1560  193.5680   60.0940 N.ar      1 AMP803      0.0000 
     23 C4         44.8640  193.0770   61.3140 C.ar      1 AMP803      0.0000 
@<TRIPOS>BOND
     1    1    2 ar   
     2    1    3 ar   
     3    1    4 ar   
     4    1    5 1    
     5    5    6 1    
     6    6    7 1    
     7    7    8 1    
     8    7    9 1    
     9    8   13 1    
    10    9   10 1    
    11    9   11 1    
    12   11   12 1    
    13   11   13 1    
    14   13   14 1    
    15   14   15 1    
    16   14   23 1    
    17   15   16 2    
    18   16   17 1    
    19   17   18 ar   
    20   17   23 ar   
    21   18   19 1    
    22   18   20 ar   
    23   20   21 ar   
    24   21   22 ar   
    25   22   23 ar   
@<TRIPOS>SUBSTRUCTURE
     1 AMP803      1 GROUP   
@<TRIPOS>SET
ATOM$ORANGE STATIC     ATOMS   COLORGROUP SYSTEM 
20 6 6 7 7 9 9 11 11 13 13 15 15 17 17 18 18 21 \
21 23 23 

