#    Name: 6g1m_2_NAD
#    Modification time : Fri May 22 19:30:52 2020

@<TRIPOS>MOLECULE
6g1m_2_NAD
   44    48     1     0     1
SMALL
NO_CHARGES


@<TRIPOS>ATOM
      1 PA         -6.9650   40.7580   27.3590 P.3       1 NAD401      0.0000 
      2 O1A        -7.6120   42.0130   27.7090 O.co2     1 NAD401      0.0000 
      3 O2A        -7.6710   39.8290   26.4880 O.co2     1 NAD401      0.0000 
      4 O5B        -6.5270   39.9510   28.6370 O.3       1 NAD401      0.0000 
      5 C5B        -5.8740   40.4550   29.8020 C.3       1 NAD401      0.0000 
      6 C4B        -6.2520   39.5480   30.9430 C.3       1 NAD401      0.0000 
      7 O4B        -5.5160   39.8540   32.1460 O.3       1 NAD401      0.0000 
      8 C3B        -7.7210   39.5920   31.3420 C.3       1 NAD401      0.0000 
      9 O3B        -8.1510   38.2510   31.4570 O.3       1 NAD401      0.0000 
     10 C2B        -7.6780   40.4710   32.5940 C.3       1 NAD401      0.0000 
     11 O2B        -8.7940   40.3670   33.4350 O.3       1 NAD401      0.0000 
     12 C1B        -6.4030   39.9530   33.2310 C.3       1 NAD401      0.0000 
     13 N9A        -5.7850   40.8240   34.2210 N.pl3     1 NAD401      0.0000 
     14 C8A        -5.4460   42.1220   34.0070 C.2       1 NAD401      0.0000 
     15 N7A        -4.8130   42.6590   34.9970 N.2       1 NAD401      0.0000 
     16 C5A        -4.6890   41.6420   35.9150 C.ar      1 NAD401      0.0000 
     17 C6A        -4.0890   41.5810   37.1770 C.ar      1 NAD401      0.0000 
     18 N6A        -3.4310   42.5860   37.7330 N.pl3     1 NAD401      0.0000 
     19 N1A        -4.1240   40.4100   37.8230 N.ar      1 NAD401      0.0000 
     20 C2A        -4.7700   39.4000   37.2660 C.ar      1 NAD401      0.0000 
     21 N3A        -5.3470   39.3400   36.0850 N.ar      1 NAD401      0.0000 
     22 C4A        -5.2880   40.5070   35.4540 C.ar      1 NAD401      0.0000 
     23 O3         -5.5900   41.1390   26.6820 O.3       1 NAD401      0.0000 
     24 PN         -4.4980   40.4270   25.7830 P.3       1 NAD401      0.0000 
     25 O1N        -4.8130   40.6750   24.3800 O.co2     1 NAD401      0.0000 
     26 O2N        -4.4270   39.0620   26.2680 O.co2     1 NAD401      0.0000 
     27 O5D        -3.2120   41.2180   26.1890 O.3       1 NAD401      0.0000 
     28 C5D        -2.4710   40.8940   27.3500 C.3       1 NAD401      0.0000 
     29 C4D        -1.3230   41.8610   27.4680 C.3       1 NAD401      0.0000 
     30 O4D        -0.2120   41.4470   26.6420 O.3       1 NAD401      0.0000 
     31 C3D        -1.6310   43.2950   27.0560 C.3       1 NAD401      0.0000 
     32 O3D        -1.0350   44.1580   28.0040 O.3       1 NAD401      0.0000 
     33 C2D        -1.0730   43.3110   25.6350 C.3       1 NAD401      0.0000 
     34 O2D        -0.7740   44.5800   25.1140 O.3       1 NAD401      0.0000 
     35 C1D         0.1540   42.4330   25.7320 C.3       1 NAD401      0.0000 
     36 N1N         0.5030   41.7880   24.4330 N.pl3     1 NAD401      0.0000 
     37 C2N         1.7910   41.7770   24.0060 C.ar      1 NAD401      0.0000 
     38 C3N         2.1080   41.3650   22.7360 C.ar      1 NAD401      0.0000 
     39 C7N         3.5280   41.4850   22.2400 C.2       1 NAD401      0.0000 
     40 O7N         3.7760   41.2350   21.0770 O.2       1 NAD401      0.0000 
     41 N7N         4.4640   41.8330   23.0970 N.am      1 NAD401      0.0000 
     42 C4N         1.1010   40.8510   21.9350 C.ar      1 NAD401      0.0000 
     43 C5N        -0.1660   40.7440   22.4200 C.ar      1 NAD401      0.0000 
     44 C6N        -0.4500   41.2470   23.6630 C.ar      1 NAD401      0.0000 
@<TRIPOS>BOND
     1    1    2 ar   
     2    1    3 ar   
     3    1    4 1    
     4    1   23 1    
     5    4    5 1    
     6    5    6 1    
     7    6    7 1    
     8    6    8 1    
     9    7   12 1    
    10    8    9 1    
    11    8   10 1    
    12   10   11 1    
    13   10   12 1    
    14   12   13 1    
    15   13   14 1    
    16   13   22 1    
    17   14   15 2    
    18   15   16 1    
    19   16   17 ar   
    20   16   22 ar   
    21   17   18 1    
    22   17   19 ar   
    23   19   20 ar   
    24   20   21 ar   
    25   21   22 ar   
    26   23   24 1    
    27   24   25 ar   
    28   24   26 ar   
    29   24   27 1    
    30   27   28 1    
    31   28   29 1    
    32   29   30 1    
    33   29   31 1    
    34   30   35 1    
    35   31   32 1    
    36   31   33 1    
    37   33   34 1    
    38   33   35 1    
    39   35   36 1    
    40   36   37 ar   
    41   36   44 ar   
    42   37   38 ar   
    43   38   39 1    
    44   38   42 ar   
    45   39   40 2    
    46   39   41 am   
    47   42   43 ar   
    48   43   44 ar   
@<TRIPOS>SUBSTRUCTURE
     1 NAD401      1 GROUP   
@<TRIPOS>SET
ATOM$ORANGE STATIC     ATOMS   COLORGROUP SYSTEM 
42 5 5 6 6 8 8 10 10 12 12 14 14 16 16 17 17 20 \
20 22 22 28 28 29 29 31 31 33 33 35 35 37 37 38 38 39 \
39 42 42 43 43 44 44 

