#    Name: 6g1m_3_NAD
#    Modification time : Fri May 22 19:30:58 2020

@<TRIPOS>MOLECULE
6g1m_3_NAD
   44    48     1     0     1
SMALL
NO_CHARGES


@<TRIPOS>ATOM
      1 PA         -7.3950  -13.6780   34.5530 P.3       1 NAD401      0.0000 
      2 O1A        -7.9110  -14.9800   34.1530 O.co2     1 NAD401      0.0000 
      3 O2A        -8.2490  -12.7230   35.2630 O.co2     1 NAD401      0.0000 
      4 O5B        -6.8000  -12.9250   33.3080 O.3       1 NAD401      0.0000 
      5 C5B        -5.9760  -13.4410   32.2550 C.3       1 NAD401      0.0000 
      6 C4B        -6.1980  -12.5530   31.0620 C.3       1 NAD401      0.0000 
      7 O4B        -5.2360  -12.7880   30.0140 O.3       1 NAD401      0.0000 
      8 C3B        -7.5700  -12.6410   30.4070 C.3       1 NAD401      0.0000 
      9 O3B        -7.9580  -11.2920   30.2810 O.3       1 NAD401      0.0000 
     10 C2B        -7.2930  -13.4220   29.1230 C.3       1 NAD401      0.0000 
     11 O2B        -8.2110  -13.2360   28.0790 O.3       1 NAD401      0.0000 
     12 C1B        -5.8960  -12.9430   28.7820 C.3       1 NAD401      0.0000 
     13 N9A        -5.0930  -13.8470   27.9760 N.pl3     1 NAD401      0.0000 
     14 C8A        -4.7470  -15.1290   28.2930 C.2       1 NAD401      0.0000 
     15 N7A        -3.9350  -15.6740   27.4380 N.2       1 NAD401      0.0000 
     16 C5A        -3.7030  -14.6750   26.5100 C.ar      1 NAD401      0.0000 
     17 C6A        -2.9140  -14.6220   25.3480 C.ar      1 NAD401      0.0000 
     18 N6A        -2.1500  -15.6160   24.9270 N.pl3     1 NAD401      0.0000 
     19 N1A        -2.8930  -13.4620   24.6670 N.ar      1 NAD401      0.0000 
     20 C2A        -3.6400  -12.4560   25.1040 C.ar      1 NAD401      0.0000 
     21 N3A        -4.4160  -12.4010   26.1640 N.ar      1 NAD401      0.0000 
     22 C4A        -4.4130  -13.5480   26.8310 C.ar      1 NAD401      0.0000 
     23 O3         -6.1100  -13.9730   35.4250 O.3       1 NAD401      0.0000 
     24 PN         -5.1930  -13.2460   36.4910 P.3       1 NAD401      0.0000 
     25 O1N        -5.7920  -13.5350   37.7830 O.co2     1 NAD401      0.0000 
     26 O2N        -5.0250  -11.8850   36.0210 O.co2     1 NAD401      0.0000 
     27 O5D        -3.8470  -14.0360   36.3550 O.3       1 NAD401      0.0000 
     28 C5D        -2.8560  -13.7690   35.3560 C.3       1 NAD401      0.0000 
     29 C4D        -1.7340  -14.7780   35.4420 C.3       1 NAD401      0.0000 
     30 O4D        -0.7330  -14.3670   36.3890 O.3       1 NAD401      0.0000 
     31 C3D        -2.1330  -16.1920   35.8540 C.3       1 NAD401      0.0000 
     32 O3D        -1.3840  -17.1240   35.1050 O.3       1 NAD401      0.0000 
     33 C2D        -1.8160  -16.1510   37.3450 C.3       1 NAD401      0.0000 
     34 O2D        -1.6300  -17.4100   37.9240 O.3       1 NAD401      0.0000 
     35 C1D        -0.5610  -15.3130   37.4090 C.3       1 NAD401      0.0000 
     36 N1N        -0.4220  -14.6250   38.7250 N.pl3     1 NAD401      0.0000 
     37 C2N         0.7780  -14.5950   39.3460 C.ar      1 NAD401      0.0000 
     38 C3N         0.8720  -14.2310   40.6580 C.ar      1 NAD401      0.0000 
     39 C7N         2.2050  -14.2680   41.3600 C.2       1 NAD401      0.0000 
     40 O7N         2.2850  -13.9130   42.5250 O.2       1 NAD401      0.0000 
     41 N7N         3.2540  -14.6800   40.6780 N.am      1 NAD401      0.0000 
     42 C4N        -0.2740  -13.8190   41.2970 C.ar      1 NAD401      0.0000 
     43 C5N        -1.3930  -13.5660   40.5680 C.ar      1 NAD401      0.0000 
     44 C6N        -1.4760  -14.0640   39.3040 C.ar      1 NAD401      0.0000 
@<TRIPOS>BOND
     1    1    2 ar   
     2    1    3 ar   
     3    1    4 1    
     4    1   23 1    
     5    4    5 1    
     6    5    6 1    
     7    6    7 1    
     8    6    8 1    
     9    7   12 1    
    10    8    9 1    
    11    8   10 1    
    12   10   11 1    
    13   10   12 1    
    14   12   13 1    
    15   13   14 1    
    16   13   22 1    
    17   14   15 2    
    18   15   16 1    
    19   16   17 ar   
    20   16   22 ar   
    21   17   18 1    
    22   17   19 ar   
    23   19   20 ar   
    24   20   21 ar   
    25   21   22 ar   
    26   23   24 1    
    27   24   25 ar   
    28   24   26 ar   
    29   24   27 1    
    30   27   28 1    
    31   28   29 1    
    32   29   30 1    
    33   29   31 1    
    34   30   35 1    
    35   31   32 1    
    36   31   33 1    
    37   33   34 1    
    38   33   35 1    
    39   35   36 1    
    40   36   37 ar   
    41   36   44 ar   
    42   37   38 ar   
    43   38   39 1    
    44   38   42 ar   
    45   39   40 2    
    46   39   41 am   
    47   42   43 ar   
    48   43   44 ar   
@<TRIPOS>SUBSTRUCTURE
     1 NAD401      1 GROUP   
@<TRIPOS>SET
ATOM$ORANGE STATIC     ATOMS   COLORGROUP SYSTEM 
42 5 5 6 6 8 8 10 10 12 12 14 14 16 16 17 17 20 \
20 22 22 28 28 29 29 31 31 33 33 35 35 37 37 38 38 39 \
39 42 42 43 43 44 44 

