#    Name: 5xio_1_HFG
#    Modification time : Fri May 22 19:16:38 2020

@<TRIPOS>MOLECULE
5xio_1_HFG
   24    26     1     0     0
SMALL
NO_CHARGES


@<TRIPOS>ATOM
      1 O4'       -27.5360   34.2220  -29.4350 O.2       1 HFG801      0.0000 
      2 C21       -27.6430   35.2790  -28.8690 C.2       1 HFG801      0.0000 
      3 C3'       -26.6780   35.7280  -27.7800 C.3       1 HFG801      0.0000 
      4 C2'       -25.3650   34.9450  -27.8110 C.3       1 HFG801      0.0000 
      5 N1'       -25.5330   33.5610  -27.3950 N.4       1 HFG801      0.0000 
      6 C6'       -24.2370   32.9000  -27.2600 C.3       1 HFG801      0.0000 
      7 C5'       -23.4290   32.9690  -28.5450 C.3       1 HFG801      0.0000 
      8 C4'       -23.3080   34.4050  -29.0270 C.3       1 HFG801      0.0000 
      9 C39       -24.6820   35.0150  -29.1570 C.3       1 HFG801      0.0000 
     10 O7'       -24.5520   36.3620  -29.5740 O.3       1 HFG801      0.0000 
     11 C1'       -28.7740   36.2590  -29.1780 C.3       1 HFG801      0.0000 
     12 N3        -29.8640   35.5740  -29.8810 N.am      1 HFG801      0.0000 
     13 C4        -30.8150   34.9100  -29.1290 C.2       1 HFG801      0.0000 
     14 O11       -30.7490   34.8500  -27.9330 O.2       1 HFG801      0.0000 
     15 C10       -31.8510   34.2390  -29.9160 C.ar      1 HFG801      0.0000 
     16 C5        -32.8590   33.5170  -29.2930 C.ar      1 HFG801      0.0000 
     17 C2        -29.9520   35.6240  -31.2150 C.2       1 HFG801      0.0000 
     18 N1        -30.8400   35.0630  -31.9380 N.2       1 HFG801      0.0000 
     19 C9        -31.8320   34.3400  -31.2950 C.ar      1 HFG801      0.0000 
     20 C8        -32.8110   33.7160  -32.0510 C.ar      1 HFG801      0.0000 
     21 C7        -33.8280   32.9920  -31.4470 C.ar      1 HFG801      0.0000 
     22 BR1       -35.1110   32.1420  -32.5530 Br        1 HFG801      0.0000 
     23 C6        -33.8440   32.8910  -30.0510 C.ar      1 HFG801      0.0000 
     24 CL1       -35.0690   32.0190  -29.2490 Cl        1 HFG801      0.0000 
@<TRIPOS>BOND
     1    1    2 2    
     2    2    3 1    
     3    2   11 1    
     4    3    4 1    
     5    4    5 1    
     6    4    9 1    
     7    5    6 1    
     8    6    7 1    
     9    7    8 1    
    10    8    9 1    
    11    9   10 1    
    12   11   12 1    
    13   12   13 am   
    14   12   17 1    
    15   13   14 2    
    16   13   15 1    
    17   15   16 ar   
    18   15   19 ar   
    19   16   23 ar   
    20   17   18 2    
    21   18   19 1    
    22   19   20 ar   
    23   20   21 ar   
    24   21   22 1    
    25   21   23 ar   
    26   23   24 1    
@<TRIPOS>SUBSTRUCTURE
     1 HFG801      1 GROUP   
@<TRIPOS>SET

