#    Name: 5xio_2_HFG
#    Modification time : Fri May 22 19:16:45 2020

@<TRIPOS>MOLECULE
5xio_2_HFG
   24    26     1     0     0
SMALL
NO_CHARGES


@<TRIPOS>ATOM
      1 O4'       -27.5550    4.1450  -40.8320 O.2       1 HFG802      0.0000 
      2 C21       -27.6680    3.0820  -41.3900 C.2       1 HFG802      0.0000 
      3 C3'       -26.6760    2.5980  -42.4370 C.3       1 HFG802      0.0000 
      4 C2'       -25.4090    3.4500  -42.4540 C.3       1 HFG802      0.0000 
      5 N1'       -25.6560    4.8440  -42.7930 N.4       1 HFG802      0.0000 
      6 C6'       -24.3900    5.5470  -43.0020 C.3       1 HFG802      0.0000 
      7 C5'       -23.4600    5.4320  -41.7970 C.3       1 HFG802      0.0000 
      8 C4'       -23.2950    3.9820  -41.3660 C.3       1 HFG802      0.0000 
      9 C39       -24.6570    3.3690  -41.1550 C.3       1 HFG802      0.0000 
     10 O7'       -24.5180    2.0210  -40.7520 O.3       1 HFG802      0.0000 
     11 C1'       -28.8210    2.1210  -41.0980 C.3       1 HFG802      0.0000 
     12 N3        -29.8900    2.8120  -40.3740 N.am      1 HFG802      0.0000 
     13 C4        -30.8450    3.4890  -41.1050 C.2       1 HFG802      0.0000 
     14 O11       -30.7990    3.5670  -42.2910 O.2       1 HFG802      0.0000 
     15 C10       -31.8690    4.1480  -40.3040 C.ar      1 HFG802      0.0000 
     16 C5        -32.8720    4.8750  -40.9170 C.ar      1 HFG802      0.0000 
     17 C2        -29.9660    2.7440  -39.0360 C.2       1 HFG802      0.0000 
     18 N1        -30.8510    3.2950  -38.2980 N.2       1 HFG802      0.0000 
     19 C9        -31.8440    4.0320  -38.9280 C.ar      1 HFG802      0.0000 
     20 C8        -32.8190    4.6530  -38.1640 C.ar      1 HFG802      0.0000 
     21 C7        -33.8300    5.3940  -38.7580 C.ar      1 HFG802      0.0000 
     22 BR1       -35.1030    6.2270  -37.6270 Br        1 HFG802      0.0000 
     23 C6        -33.8500    5.5040  -40.1570 C.ar      1 HFG802      0.0000 
     24 CL1       -35.0600    6.3820  -40.9780 Cl        1 HFG802      0.0000 
@<TRIPOS>BOND
     1    1    2 2    
     2    2    3 1    
     3    2   11 1    
     4    3    4 1    
     5    4    5 1    
     6    4    9 1    
     7    5    6 1    
     8    6    7 1    
     9    7    8 1    
    10    8    9 1    
    11    9   10 1    
    12   11   12 1    
    13   12   13 am   
    14   12   17 1    
    15   13   14 2    
    16   13   15 1    
    17   15   16 ar   
    18   15   19 ar   
    19   16   23 ar   
    20   17   18 2    
    21   18   19 1    
    22   19   20 ar   
    23   20   21 ar   
    24   21   22 1    
    25   21   23 ar   
    26   23   24 1    
@<TRIPOS>SUBSTRUCTURE
     1 HFG802      1 GROUP   
@<TRIPOS>SET

