#    Name: 6gnv_1_MYA
#    Modification time : Fri May 22 19:29:44 2020

@<TRIPOS>MOLECULE
6gnv_1_MYA
   63    65     1     0     0
SMALL
NO_CHARGES


@<TRIPOS>ATOM
      1 S1         26.1140   -4.6930    7.1630 S.3       1 MYA501      0.0000 
      2 C2         26.7410   -4.9210    8.7830 C.3       1 MYA501      0.0000 
      3 C3         27.7270   -6.0710    8.9630 C.3       1 MYA501      0.0000 
      4 N4         28.0780   -6.2890   10.3480 N.am      1 MYA501      0.0000 
      5 C5         28.9530   -5.7400   11.1270 C.2       1 MYA501      0.0000 
      6 O5         29.6400   -4.8770   10.7760 O.2       1 MYA501      0.0000 
      7 C6         29.0700   -6.2270   12.5320 C.3       1 MYA501      0.0000 
      8 C7         30.5130   -6.2340   13.0030 C.3       1 MYA501      0.0000 
      9 N8         31.3150   -7.0410   12.1310 N.am      1 MYA501      0.0000 
     10 C9         31.2300   -8.3250   11.9190 C.2       1 MYA501      0.0000 
     11 O9         30.4660   -8.9640   12.5100 O.2       1 MYA501      0.0000 
     12 C10        32.1550   -9.0290   10.9550 C.3       1 MYA501      0.0000 
     13 O10        33.3410   -8.2770   10.7940 O.3       1 MYA501      0.0000 
     14 C11        31.5180   -9.3610    9.5880 C.3       1 MYA501      0.0000 
     15 C12        32.5510   -9.9050    8.6360 C.3       1 MYA501      0.0000 
     16 C13        30.9820   -8.0880    8.9590 C.3       1 MYA501      0.0000 
     17 C14        30.3730  -10.3570    9.7140 C.3       1 MYA501      0.0000 
     18 N1A        28.9800   -7.3320    4.0890 N.ar      1 MYA501      0.0000 
     19 O1A        34.2600  -13.8650    7.7770 O.co2     1 MYA501      0.0000 
     20 P1A        35.2910  -13.0480    7.2220 P.3       1 MYA501      0.0000 
     21 C1X        33.3980   -9.5900    3.4930 C.3       1 MYA501      0.0000 
     22 C2A        29.3710   -8.2190    3.2400 C.ar      1 MYA501      0.0000 
     23 O2A        36.6110  -13.5720    7.3220 O.co2     1 MYA501      0.0000 
     24 P2A        34.6690  -11.2260    9.2510 P.3       1 MYA501      0.0000 
     25 C2M        24.9850   -5.8760    6.9260 C.2       1 MYA501      0.0000 
     26 O2M        24.4770   -6.4290    7.8450 O.2       1 MYA501      0.0000 
     27 C2X        34.8260   -9.2690    3.1350 C.3       1 MYA501      0.0000 
     28 O2X        34.9630   -8.3080    2.1250 O.3       1 MYA501      0.0000 
     29 N3A        30.5860   -8.6760    3.2440 N.ar      1 MYA501      0.0000 
     30 O3A        35.3470  -11.6460    7.8980 O.3       1 MYA501      0.0000 
     31 C3M        24.5720   -6.2950    5.5310 C.3       1 MYA501      0.0000 
     32 C3X        35.3970  -10.6430    2.8090 C.3       1 MYA501      0.0000 
     33 O3X        35.2260  -11.0700    1.4920 O.3       1 MYA501      0.0000 
     34 P3X        36.2900  -10.8690    0.3890 P.3       1 MYA501      0.0000 
     35 C4A        31.4610   -8.2620    4.1140 C.ar      1 MYA501      0.0000 
     36 O4A        35.2030   -9.9680    9.4890 O.co2     1 MYA501      0.0000 
     37 C4M        25.2730   -7.5590    5.0890 C.3       1 MYA501      0.0000 
     38 C4X        34.6260  -11.5420    3.7150 C.3       1 MYA501      0.0000 
     39 O4X        33.4780  -10.8170    4.1170 O.3       1 MYA501      0.0000 
     40 C5A        31.1010   -7.3300    5.0160 C.ar      1 MYA501      0.0000 
     41 O5A        34.8590  -12.1810   10.2680 O.co2     1 MYA501      0.0000 
     42 C5M        25.0890   -7.9540    3.6490 C.3       1 MYA501      0.0000 
     43 C5X        35.5120  -11.9010    4.8750 C.3       1 MYA501      0.0000 
     44 O5X        34.8850  -12.7580    5.7770 O.3       1 MYA501      0.0000 
     45 C6A        29.8050   -6.8470    4.9800 C.ar      1 MYA501      0.0000 
     46 N6A        29.3220   -5.9380    5.8030 N.pl3     1 MYA501      0.0000 
     47 O6A        33.1370  -11.1320    8.9810 O.3       1 MYA501      0.0000 
     48 C6M        25.8560   -9.2220    3.3420 C.3       1 MYA501      0.0000 
     49 N7A        32.1650   -7.1370    5.7410 N.2       1 MYA501      0.0000 
     50 O7A        36.6350   -9.4490    0.0030 O.co2     1 MYA501      0.0000 
     51 C7M        25.7960   -9.6160    1.8880 C.3       1 MYA501      0.0000 
     52 C8A        33.1200   -7.8830    5.2920 C.2       1 MYA501      0.0000 
     53 O8A        37.4710  -11.7810    0.5690 O.co2     1 MYA501      0.0000 
     54 C8M        24.4310  -10.1290    1.4670 C.3       1 MYA501      0.0000 
     55 N9A        32.6890   -8.5890    4.3090 N.pl3     1 MYA501      0.0000 
     56 O9A        35.6550  -11.0840   -0.9680 O.co2     1 MYA501      0.0000 
     57 C9M        24.3380  -10.4740    0.0010 C.3       1 MYA501      0.0000 
     58 CAM        22.9410  -10.8200   -0.4570 C.3       1 MYA501      0.0000 
     59 CBM        22.5150  -12.1780    0.0100 C.3       1 MYA501      0.0000 
     60 CCM        21.1330  -12.5270   -0.4430 C.3       1 MYA501      0.0000 
     61 CDM        21.0000  -13.0010   -1.8790 C.3       1 MYA501      0.0000 
     62 CEM        19.6030  -13.5210   -2.1740 C.3       1 MYA501      0.0000 
     63 CFM        19.2240  -13.6100   -3.6260 C.3       1 MYA501      0.0000 
@<TRIPOS>BOND
     1    1    2 1    
     2    1   25 1    
     3    2    3 1    
     4    3    4 1    
     5    4    5 am   
     6    5    6 2    
     7    5    7 1    
     8    7    8 1    
     9    8    9 1    
    10    9   10 am   
    11   10   11 2    
    12   10   12 1    
    13   12   13 1    
    14   12   14 1    
    15   14   15 1    
    16   14   16 1    
    17   14   17 1    
    18   15   47 1    
    19   18   22 ar   
    20   18   45 ar   
    21   19   20 ar   
    22   20   23 ar   
    23   20   30 1    
    24   20   44 1    
    25   21   27 1    
    26   21   39 1    
    27   21   55 1    
    28   22   29 ar   
    29   24   30 1    
    30   24   36 ar   
    31   24   41 ar   
    32   24   47 1    
    33   25   26 2    
    34   25   31 1    
    35   27   28 1    
    36   27   32 1    
    37   29   35 ar   
    38   31   37 1    
    39   32   33 1    
    40   32   38 1    
    41   33   34 1    
    42   34   50 ar   
    43   34   53 ar   
    44   34   56 ar   
    45   35   40 ar   
    46   35   55 1    
    47   37   42 1    
    48   38   39 1    
    49   38   43 1    
    50   40   45 ar   
    51   40   49 1    
    52   42   48 1    
    53   43   44 1    
    54   45   46 1    
    55   48   51 1    
    56   49   52 2    
    57   51   54 1    
    58   52   55 1    
    59   54   57 1    
    60   57   58 1    
    61   58   59 1    
    62   59   60 1    
    63   60   61 1    
    64   61   62 1    
    65   62   63 1    
@<TRIPOS>SUBSTRUCTURE
     1 MYA501      1 GROUP   
@<TRIPOS>SET

