#    Name: 6fcx_1_SAH_CAVITY_N1_8
#    Modification time : Fri May 22 19:30:45 2020

@<TRIPOS>MOLECULE
6fcx_1_SAH_CAVITY_N1_8
  104     0     6     0     0
SMALL
NO_CHARGES


@<TRIPOS>ATOM
      1 OG        -28.7700   22.5400   -4.9400 O.3       1 SER1        0.0000 
      2 OG        -31.9100   23.7200   -4.9100 O.3       1 SER1        0.0000 
      3 OG        -27.4700   24.1000   -5.5500 O.3       1 SER1        0.0000 
      4 OG        -28.2800   23.8200   -4.3200 O.3       1 SER1        0.0000 
      5 OG        -29.0900   23.5300   -3.0900 O.3       1 SER1        0.0000 
      6 OG        -31.4200   25.0000   -4.2900 O.3       1 SER1        0.0000 
      7 OG        -31.0700   23.9700   -2.4600 O.3       1 SER1        0.0000 
      8 OG        -31.8800   23.6900   -1.2300 O.3       1 SER1        0.0000 
      9 OG        -32.6900   23.4000   -0.0100 O.3       1 SER1        0.0000 
     10 OG        -26.1700   25.6700   -6.1600 O.3       1 SER1        0.0000 
     11 OG        -26.9800   25.3800   -4.9300 O.3       1 SER1        0.0000 
     12 OG        -27.8000   25.0900   -3.7000 O.3       1 SER1        0.0000 
     13 OG        -28.6100   24.8000   -2.4700 O.3       1 SER1        0.0000 
     14 OG        -31.8500   23.6500    2.4400 O.3       1 SER1        0.0000 
     15 OG        -33.0200   24.3800    1.8400 O.3       1 SER1        0.0000 
     16 OG        -26.5000   26.6500   -4.3100 O.3       1 SER1        0.0000 
     17 OG        -27.3100   26.3700   -3.0800 O.3       1 SER1        0.0000 
     18 N         -29.7700   20.0300   -9.8600 N.am      2 ALA2        0.0000 
     19 N         -29.2900   21.3000   -9.2400 N.am      2 ALA2        0.0000 
     20 N         -27.9900   22.8700   -9.8500 N.am      2 ALA2        0.0000 
     21 N         -27.6300   21.8400   -8.0200 N.am      2 ALA2        0.0000 
     22 N         -30.0700   20.9800   -4.3400 N.am      2 ALA2        0.0000 
     23 N         -31.2300   21.7100   -4.9300 N.am      2 ALA2        0.0000 
     24 N         -26.3400   23.4100   -8.6300 N.am      2 ALA2        0.0000 
     25 N         -27.1500   23.1200   -7.4000 N.am      2 ALA2        0.0000 
     26 N         -28.4200   21.5200   -3.1200 N.am      2 ALA2        0.0000 
     27 N         -29.5800   22.2500   -3.7200 N.am      2 ALA2        0.0000 
     28 N         -30.7500   22.9900   -4.3100 N.am      2 ALA2        0.0000 
     29 N         -30.3900   21.9600   -2.4900 N.am      2 ALA2        0.0000 
     30 N         -31.5600   22.7000   -3.0800 N.am      2 ALA2        0.0000 
     31 N         -25.8500   24.6800   -8.0100 N.am      2 ALA2        0.0000 
     32 N         -26.6600   24.3900   -6.7800 N.am      2 ALA2        0.0000 
     33 O         -29.4500   24.5500   -4.9200 O.2       2 ALA2        0.0000 
     34 O         -30.6100   25.2900   -5.5100 O.2       2 ALA2        0.0000 
     35 O         -31.5300   22.6600    0.5900 O.2       2 ALA2        0.0000 
     36 N         -27.3400   26.4000   -6.7500 N.am      2 ALA2        0.0000 
     37 O         -28.5000   27.1400   -7.3500 O.2       2 ALA2        0.0000 
     38 N         -28.1500   26.1100   -5.5200 N.am      2 ALA2        0.0000 
     39 O         -28.9600   25.8300   -4.3000 O.2       2 ALA2        0.0000 
     40 O         -29.4200   24.5100   -1.2400 O.2       2 ALA2        0.0000 
     41 N         -30.2300   24.2300   -0.0200 N.am      2 ALA2        0.0000 
     42 O         -31.0400   23.9400    1.2100 O.2       2 ALA2        0.0000 
     43 N         -26.8500   27.6800   -6.1300 N.am      2 ALA2        0.0000 
     44 N         -28.4700   27.1000   -3.6700 N.am      2 ALA2        0.0000 
     45 O         -28.1200   26.0800   -1.8500 O.2       2 ALA2        0.0000 
     46 O         -28.9300   25.7900   -0.6200 O.2       2 ALA2        0.0000 
     47 N         -29.7400   25.5000    0.6100 N.am      2 ALA2        0.0000 
     48 N         -30.5600   25.2100    1.8300 N.am      2 ALA2        0.0000 
     49 N         -31.3700   24.9200    3.0600 N.am      2 ALA2        0.0000 
     50 OD1       -30.9400   20.7600  -10.4600 O.co2     3 ASP3        0.0000 
     51 OD1       -30.4500   22.0400   -9.8300 O.co2     3 ASP3        0.0000 
     52 OD1       -31.6100   22.7700  -10.4300 O.co2     3 ASP3        0.0000 
     53 OD1       -32.7800   23.5100  -11.0300 O.co2     3 ASP3        0.0000 
     54 OD1       -29.1500   23.6000  -10.4400 O.co2     3 ASP3        0.0000 
     55 OD1       -30.3100   24.3400  -11.0400 O.co2     3 ASP3        0.0000 
     56 NZ        -30.5800   19.7400   -8.6300 N.4       4 LYS4        0.0000 
     57 NZ        -31.7500   20.4700   -9.2300 N.4       4 LYS4        0.0000 
     58 NZ        -32.9100   21.2100   -9.8200 N.4       4 LYS4        0.0000 
     59 NZ        -31.4000   19.4500   -7.4000 N.4       4 LYS4        0.0000 
     60 NZ        -30.1000   21.0100   -8.0100 N.4       4 LYS4        0.0000 
     61 NZ        -31.2600   21.7500   -8.6100 N.4       4 LYS4        0.0000 
     62 NZ        -32.4200   22.4800   -9.2000 N.4       4 LYS4        0.0000 
     63 NZ        -30.9100   20.7300   -6.7800 N.4       4 LYS4        0.0000 
     64 NZ        -29.6100   22.2900   -7.3900 N.4       4 LYS4        0.0000 
     65 NZ        -30.7700   23.0200   -7.9900 N.4       4 LYS4        0.0000 
     66 NZ        -30.4200   22.0000   -6.1600 N.4       4 LYS4        0.0000 
     67 CA        -31.0700   18.4600   -9.2500 C.3       5 GLY6        0.0000 
     68 CA        -32.2400   19.2000   -9.8500 C.3       5 GLY6        0.0000 
     69 CA        -30.2300   18.7200   -6.8100 C.3       5 GLY6        0.0000 
     70 CA        -28.9300   20.2800   -7.4100 C.3       5 GLY6        0.0000 
     71 CA        -29.7500   19.9900   -6.1900 C.3       5 GLY6        0.0000 
     72 CA        -29.9600   23.3100   -9.2100 C.3       5 GLY6        0.0000 
     73 CA        -31.1300   24.0500   -9.8100 C.3       5 GLY6        0.0000 
     74 CA        -28.4500   21.5500   -6.7900 C.3       5 GLY6        0.0000 
     75 CA        -29.2600   21.2700   -5.5600 C.3       5 GLY6        0.0000 
     76 CA        -29.4700   24.5900   -8.5900 C.3       5 GLY6        0.0000 
     77 CA        -26.8000   22.0900   -5.5700 C.3       5 GLY6        0.0000 
     78 CA        -27.9600   22.8300   -6.1700 C.3       5 GLY6        0.0000 
     79 CA        -29.1200   23.5600   -6.7700 C.3       5 GLY6        0.0000 
     80 CA        -27.6100   21.8100   -4.3500 C.3       5 GLY6        0.0000 
     81 CA        -31.1000   24.0100   -6.1400 C.3       5 GLY6        0.0000 
     82 CA        -28.9900   25.8600   -7.9700 C.3       5 GLY6        0.0000 
     83 CA        -28.6400   24.8400   -6.1500 C.3       5 GLY6        0.0000 
     84 CA        -29.9100   23.2400   -1.8700 C.3       5 GLY6        0.0000 
     85 CA        -30.7200   22.9500   -0.6400 C.3       5 GLY6        0.0000 
     86 CA        -25.0100   24.9300   -5.5600 C.3       5 GLY6        0.0000 
     87 CA        -29.7700   25.5400   -3.0700 C.3       5 GLY6        0.0000 
     88 CA        -30.5800   25.2500   -1.8400 C.3       5 GLY6        0.0000 
     89 CA        -31.3900   24.9600   -0.6100 C.3       5 GLY6        0.0000 
     90 CA        -32.2100   24.6700    0.6200 C.3       5 GLY6        0.0000 
     91 CA        -24.8700   27.2300   -6.7600 C.3       5 GLY6        0.0000 
     92 CA        -26.0400   27.9700   -7.3600 C.3       5 GLY6        0.0000 
     93 CA        -25.6900   26.9400   -5.5300 C.3       5 GLY6        0.0000 
     94 CA        -31.7200   25.9500    1.2400 C.3       5 GLY6        0.0000 
     95 CA        -32.5300   25.6600    2.4700 C.3       5 GLY6        0.0000 
     96 DU        -28.8000   22.5800   -8.6200 H         6 CUB7        0.0000 
     97 DU        -27.5000   24.1400   -9.2200 H         6 CUB7        0.0000 
     98 DU        -28.3100   23.8500   -8.0000 H         6 CUB7        0.0000 
     99 DU        -29.9300   23.2800   -5.5400 H         6 CUB7        0.0000 
    100 DU        -27.0100   25.4200   -8.6000 H         6 CUB7        0.0000 
    101 DU        -27.8200   25.1300   -7.3700 H         6 CUB7        0.0000 
    102 DU        -30.2600   24.2600   -3.6900 H         6 CUB7        0.0000 
    103 DU        -25.3600   25.9600   -7.3800 H         6 CUB7        0.0000 
    104 DU        -26.5200   26.6900   -7.9800 H         6 CUB7        0.0000 
@<TRIPOS>BOND
@<TRIPOS>SUBSTRUCTURE
     1 SER1        1 GROUP   
     2 ALA2       18 GROUP   
     3 ASP3       50 GROUP   
     4 LYS4       56 GROUP   
     5 GLY6       67 GROUP   
     6 CUB7       96 GROUP   
@<TRIPOS>SET

