#    Name: 6fcx_2_FAD
#    Modification time : Fri May 22 19:30:50 2020

@<TRIPOS>MOLECULE
6fcx_2_FAD
   53    58     1     0     1
SMALL
NO_CHARGES


@<TRIPOS>ATOM
      1 PA          5.7640   32.9720  -37.4460 P.3       1 FAD701      0.0000 
      2 O1A         4.8140   32.0480  -38.1020 O.co2     1 FAD701      0.0000 
      3 O2A         7.0620   32.2770  -36.9800 O.co2     1 FAD701      0.0000 
      4 O5B         5.9790   34.2960  -38.3540 O.3       1 FAD701      0.0000 
      5 C5B         6.9100   35.3340  -37.9640 C.3       1 FAD701      0.0000 
      6 C4B         7.7410   35.8720  -39.1220 C.3       1 FAD701      0.0000 
      7 O4B         8.8000   34.9470  -39.4630 O.3       1 FAD701      0.0000 
      8 C3B         6.9870   36.1640  -40.4190 C.3       1 FAD701      0.0000 
      9 O3B         7.3400   37.4310  -40.9560 O.3       1 FAD701      0.0000 
     10 C2B         7.3490   34.9760  -41.3160 C.3       1 FAD701      0.0000 
     11 O2B         7.3920   35.3220  -42.6910 O.3       1 FAD701      0.0000 
     12 C1B         8.7540   34.6400  -40.8410 C.3       1 FAD701      0.0000 
     13 N9A         9.0990   33.2350  -40.9870 N.pl3     1 FAD701      0.0000 
     14 C8A         8.2890   32.1540  -40.7680 C.2       1 FAD701      0.0000 
     15 N7A         8.8770   30.9950  -40.9530 N.2       1 FAD701      0.0000 
     16 C5A        10.1700   31.3410  -41.3190 C.ar      1 FAD701      0.0000 
     17 C6A        11.3020   30.5710  -41.6510 C.ar      1 FAD701      0.0000 
     18 N6A        11.3130   29.2390  -41.6740 N.pl3     1 FAD701      0.0000 
     19 N1A        12.4340   31.2290  -41.9730 N.ar      1 FAD701      0.0000 
     20 C2A        12.4280   32.5660  -41.9580 C.ar      1 FAD701      0.0000 
     21 N3A        11.4270   33.4010  -41.6650 N.ar      1 FAD701      0.0000 
     22 C4A        10.3180   32.7200  -41.3510 C.ar      1 FAD701      0.0000 
     23 N1          0.9920   36.8680  -29.4450 N.2       1 FAD701      0.0000 
     24 C2          1.1480   36.5750  -28.1210 C.2       1 FAD701      0.0000 
     25 O2          2.1340   36.9570  -27.4840 O.2       1 FAD701      0.0000 
     26 N3          0.1930   35.8240  -27.4640 N.am      1 FAD701      0.0000 
     27 C4         -0.9580   35.3100  -28.0170 C.2       1 FAD701      0.0000 
     28 O4         -1.7400   34.6610  -27.3210 O.2       1 FAD701      0.0000 
     29 C4X        -1.1150   35.6300  -29.4260 C.2       1 FAD701      0.0000 
     30 N5         -2.1610   35.1960  -30.0260 N.2       1 FAD701      0.0000 
     31 C5X        -2.3210   35.4930  -31.3640 C.ar      1 FAD701      0.0000 
     32 C6         -3.4570   35.0160  -32.0160 C.ar      1 FAD701      0.0000 
     33 C7         -3.6760   35.2750  -33.3640 C.ar      1 FAD701      0.0000 
     34 C7M        -4.9240   34.7550  -34.0270 C.3       1 FAD701      0.0000 
     35 C8         -2.7330   36.0270  -34.0820 C.ar      1 FAD701      0.0000 
     36 C8M        -2.9440   36.3340  -35.5420 C.3       1 FAD701      0.0000 
     37 C9         -1.5950   36.5020  -33.4300 C.ar      1 FAD701      0.0000 
     38 C9A        -1.3790   36.2390  -32.0830 C.ar      1 FAD701      0.0000 
     39 N10        -0.2310   36.6810  -31.3940 N.pl3     1 FAD701      0.0000 
     40 C10        -0.0750   36.4040  -30.0570 C.2       1 FAD701      0.0000 
     41 C1'         0.7820   37.5290  -32.0530 C.3       1 FAD701      0.0000 
     42 C2'         1.7570   36.7840  -32.9610 C.3       1 FAD701      0.0000 
     43 O2'         2.7130   36.0470  -32.1980 O.3       1 FAD701      0.0000 
     44 C3'         2.5850   37.8150  -33.7260 C.3       1 FAD701      0.0000 
     45 O3'         1.9350   38.2100  -34.9290 O.3       1 FAD701      0.0000 
     46 C4'         4.0370   37.4050  -33.9940 C.3       1 FAD701      0.0000 
     47 O4'         4.7560   38.5960  -34.3220 O.3       1 FAD701      0.0000 
     48 C5'         4.2050   36.3830  -35.0970 C.3       1 FAD701      0.0000 
     49 O5'         3.9560   35.0610  -34.5740 O.3       1 FAD701      0.0000 
     50 P           3.6630   33.8470  -35.5460 P.3       1 FAD701      0.0000 
     51 O1P         3.2320   32.5790  -34.8010 O.co2     1 FAD701      0.0000 
     52 O2P         2.7720   34.3860  -36.6060 O.co2     1 FAD701      0.0000 
     53 O3P         5.1320   33.5940  -36.1280 O.3       1 FAD701      0.0000 
@<TRIPOS>BOND
     1    1    2 ar   
     2    1    3 ar   
     3    1    4 1    
     4    1   53 1    
     5    4    5 1    
     6    5    6 1    
     7    6    7 1    
     8    6    8 1    
     9    7   12 1    
    10    8    9 1    
    11    8   10 1    
    12   10   11 1    
    13   10   12 1    
    14   12   13 1    
    15   13   14 1    
    16   13   22 1    
    17   14   15 2    
    18   15   16 1    
    19   16   17 ar   
    20   16   22 ar   
    21   17   18 1    
    22   17   19 ar   
    23   19   20 ar   
    24   20   21 ar   
    25   21   22 ar   
    26   23   24 1    
    27   23   40 2    
    28   24   25 2    
    29   24   26 am   
    30   26   27 am   
    31   27   28 2    
    32   27   29 1    
    33   29   30 2    
    34   29   40 1    
    35   30   31 1    
    36   31   32 ar   
    37   31   38 ar   
    38   32   33 ar   
    39   33   34 1    
    40   33   35 ar   
    41   35   36 1    
    42   35   37 ar   
    43   37   38 ar   
    44   38   39 1    
    45   39   40 1    
    46   39   41 1    
    47   41   42 1    
    48   42   43 1    
    49   42   44 1    
    50   44   45 1    
    51   44   46 1    
    52   46   47 1    
    53   46   48 1    
    54   48   49 1    
    55   49   50 1    
    56   50   51 ar   
    57   50   52 ar   
    58   50   53 1    
@<TRIPOS>SUBSTRUCTURE
     1 FAD701      1 GROUP   
@<TRIPOS>SET
ATOM$ORANGE STATIC     ATOMS   COLORGROUP SYSTEM 
54 5 5 6 6 8 8 10 10 12 12 14 14 16 16 17 17 20 \
20 22 22 24 24 27 27 29 29 31 31 32 32 33 33 34 34 35 \
35 36 36 37 37 38 38 40 40 41 41 42 42 44 44 46 46 48 \
48 

