#    Name: 6fcx_1_SAH
#    Modification time : Fri May 22 19:30:44 2020

@<TRIPOS>MOLECULE
6fcx_1_SAH
   26    28     1     0     0
SMALL
NO_CHARGES


@<TRIPOS>ATOM
      1 N         -32.7800   19.1670   -8.2890 N.4       1 SAH702      0.0000 
      2 CA        -31.3750   18.7600   -8.3550 C.3       1 SAH702      0.0000 
      3 CB        -30.8680   18.3130   -6.9900 C.3       1 SAH702      0.0000 
      4 CG        -30.8040   19.4530   -5.9840 C.3       1 SAH702      0.0000 
      5 SD        -29.7030   20.8180   -6.5130 S.3       1 SAH702      0.0000 
      6 C         -31.0340   17.6430   -9.3210 C.2       1 SAH702      0.0000 
      7 O         -31.7750   17.1950  -10.1820 O.co2     1 SAH702      0.0000 
      8 OXT       -29.9260   17.1430   -9.2020 O.co2     1 SAH702      0.0000 
      9 C5'       -29.4360   21.3940   -4.8270 C.3       1 SAH702      0.0000 
     10 C4'       -30.6870   22.0700   -4.2800 C.3       1 SAH702      0.0000 
     11 O4'       -30.6020   22.3190   -2.8970 O.3       1 SAH702      0.0000 
     12 C3'       -31.0170   23.3840   -4.9650 C.3       1 SAH702      0.0000 
     13 O3'       -32.3740   23.2750   -5.2880 O.3       1 SAH702      0.0000 
     14 C2'       -30.7980   24.4240   -3.8820 C.3       1 SAH702      0.0000 
     15 O2'       -31.5460   25.6290   -4.0450 O.3       1 SAH702      0.0000 
     16 C1'       -31.1540   23.6200   -2.6320 C.3       1 SAH702      0.0000 
     17 N9        -30.6260   24.2300   -1.4040 N.pl3     1 SAH702      0.0000 
     18 C8        -29.4810   24.9750   -1.2500 C.2       1 SAH702      0.0000 
     19 N7        -29.3280   25.3400    0.0530 N.2       1 SAH702      0.0000 
     20 C5        -30.3790   24.8180    0.7160 C.ar      1 SAH702      0.0000 
     21 C6        -30.7200   24.8610    2.0440 C.ar      1 SAH702      0.0000 
     22 N6        -29.9060   25.5500    2.8640 N.pl3     1 SAH702      0.0000 
     23 N1        -31.8800   24.1990    2.4800 N.ar      1 SAH702      0.0000 
     24 C2        -32.6870   23.5310    1.5770 C.ar      1 SAH702      0.0000 
     25 N3        -32.3220   23.5060    0.2440 N.ar      1 SAH702      0.0000 
     26 C4        -31.1930   24.1140   -0.1680 C.ar      1 SAH702      0.0000 
@<TRIPOS>BOND
     1    1    2 1    
     2    2    3 1    
     3    2    6 1    
     4    3    4 1    
     5    4    5 1    
     6    5    9 1    
     7    6    7 ar   
     8    6    8 ar   
     9    9   10 1    
    10   10   11 1    
    11   10   12 1    
    12   11   16 1    
    13   12   13 1    
    14   12   14 1    
    15   14   15 1    
    16   14   16 1    
    17   16   17 1    
    18   17   18 1    
    19   17   26 1    
    20   18   19 2    
    21   19   20 1    
    22   20   21 ar   
    23   20   26 ar   
    24   21   22 1    
    25   21   23 ar   
    26   23   24 ar   
    27   24   25 ar   
    28   25   26 ar   
@<TRIPOS>SUBSTRUCTURE
     1 SAH702      1 GROUP   
@<TRIPOS>SET

