#    Name: 6dvh_6_FMN
#    Modification time : Fri May 22 19:26:53 2020

@<TRIPOS>MOLECULE
6dvh_6_FMN
   31    33     1     0     1
SMALL
NO_CHARGES


@<TRIPOS>ATOM
      1 N1         25.4120   57.5730  128.0010 N.2       1 FMN401      0.0000 
      2 C2         26.6370   57.1120  127.6240 C.2       1 FMN401      0.0000 
      3 O2         26.8300   56.7790  126.4240 O.2       1 FMN401      0.0000 
      4 N3         27.6560   56.9730  128.4930 N.am      1 FMN401      0.0000 
      5 C4         27.5430   57.2960  129.7980 C.2       1 FMN401      0.0000 
      6 O4         28.5220   57.1660  130.5690 O.2       1 FMN401      0.0000 
      7 C4A        26.2420   57.8170  130.2820 C.2       1 FMN401      0.0000 
      8 N5         26.0690   58.2440  131.5510 N.2       1 FMN401      0.0000 
      9 C5A        24.8360   58.5860  131.9970 C.ar      1 FMN401      0.0000 
     10 C6         24.6650   58.8740  133.3560 C.ar      1 FMN401      0.0000 
     11 C7         23.4080   59.1970  133.8560 C.ar      1 FMN401      0.0000 
     12 C7M        23.2420   59.5050  135.3320 C.3       1 FMN401      0.0000 
     13 C8         22.2370   59.2270  132.9230 C.ar      1 FMN401      0.0000 
     14 C8M        20.8720   59.5690  133.4520 C.3       1 FMN401      0.0000 
     15 C9         22.4020   58.9390  131.5580 C.ar      1 FMN401      0.0000 
     16 C9A        23.6680   58.6220  131.0570 C.ar      1 FMN401      0.0000 
     17 N10        23.9270   58.5270  129.6560 N.pl3     1 FMN401      0.0000 
     18 C10        25.1560   57.9440  129.2750 C.2       1 FMN401      0.0000 
     19 C1'        22.9260   58.8640  128.6270 C.3       1 FMN401      0.0000 
     20 C2'        22.0230   57.6580  128.4000 C.3       1 FMN401      0.0000 
     21 O2'        22.8060   56.5780  127.8630 O.3       1 FMN401      0.0000 
     22 C3'        20.8320   57.9200  127.4860 C.3       1 FMN401      0.0000 
     23 O3'        21.2900   58.2850  126.1690 O.3       1 FMN401      0.0000 
     24 C4'        19.9350   59.0130  128.0570 C.3       1 FMN401      0.0000 
     25 O4'        19.8950   58.9720  129.4930 O.3       1 FMN401      0.0000 
     26 C5'        18.4950   58.8720  127.5790 C.3       1 FMN401      0.0000 
     27 O5'        17.7580   59.9860  128.0670 O.3       1 FMN401      0.0000 
     28 P          16.6040   59.7840  129.1680 P.3       1 FMN401      0.0000 
     29 O1P        17.4210   59.3110  130.3500 O.co2     1 FMN401      0.0000 
     30 O2P        16.0610   61.1920  129.2810 O.co2     1 FMN401      0.0000 
     31 O3P        15.6310   58.7500  128.6450 O.co2     1 FMN401      0.0000 
@<TRIPOS>BOND
     1    1    2 1    
     2    1   18 2    
     3    2    3 2    
     4    2    4 am   
     5    4    5 am   
     6    5    6 2    
     7    5    7 1    
     8    7    8 2    
     9    7   18 1    
    10    8    9 1    
    11    9   10 ar   
    12    9   16 ar   
    13   10   11 ar   
    14   11   12 1    
    15   11   13 ar   
    16   13   14 1    
    17   13   15 ar   
    18   15   16 ar   
    19   16   17 1    
    20   17   18 1    
    21   17   19 1    
    22   19   20 1    
    23   20   21 1    
    24   20   22 1    
    25   22   23 1    
    26   22   24 1    
    27   24   25 1    
    28   24   26 1    
    29   26   27 1    
    30   27   28 1    
    31   28   29 ar   
    32   28   30 ar   
    33   28   31 ar   
@<TRIPOS>SUBSTRUCTURE
     1 FMN401      1 GROUP   
@<TRIPOS>SET
ATOM$ORANGE STATIC     ATOMS   COLORGROUP SYSTEM 
34 2 2 5 5 7 7 9 9 10 10 11 11 12 12 13 13 14 \
14 15 15 16 16 18 18 19 19 20 20 22 22 24 24 26 26 

