#    Name: 6dvh_4_FMN_CAVITY_N1_8
#    Modification time : Fri May 22 19:26:47 2020

@<TRIPOS>MOLECULE
6dvh_4_FMN_CAVITY_N1_8
   79     0     7     0     0
SMALL
NO_CHARGES


@<TRIPOS>ATOM
      1 OG         29.0400   58.9300   72.9700 O.3       1 SER1        0.0000 
      2 OG         28.8200   60.3500   72.5600 O.3       1 SER1        0.0000 
      3 OG         28.6100   61.7800   72.1500 O.3       1 SER1        0.0000 
      4 OG         27.6700   58.9000   73.5900 O.3       1 SER1        0.0000 
      5 OG         27.4600   60.3300   73.1800 O.3       1 SER1        0.0000 
      6 OG         27.2400   61.7500   72.7800 O.3       1 SER1        0.0000 
      7 OG         29.1900   62.2400   73.4600 O.3       1 SER1        0.0000 
      8 OG         28.4700   57.9300   75.3000 O.3       1 SER1        0.0000 
      9 OG         27.8300   62.2100   74.0800 O.3       1 SER1        0.0000 
     10 OG         27.6100   63.6400   73.6700 O.3       1 SER1        0.0000 
     11 OG         26.2500   63.6100   74.2900 O.3       1 SER1        0.0000 
     12 OG         29.7800   62.7000   74.7600 O.3       1 SER1        0.0000 
     13 OG         28.4100   62.6700   75.3800 O.3       1 SER1        0.0000 
     14 OG         28.2000   64.1000   74.9700 O.3       1 SER1        0.0000 
     15 OG         26.6200   65.5000   75.1900 O.3       1 SER1        0.0000 
     16 OG         27.4100   64.5300   76.9000 O.3       1 SER1        0.0000 
     17 O          28.3900   63.2100   71.7500 O.2       2 ALA2        0.0000 
     18 O          28.9800   63.6700   73.0500 O.2       2 ALA2        0.0000 
     19 N          27.4000   65.0700   73.2600 N.am      2 ALA2        0.0000 
     20 N          29.5600   64.1300   74.3500 N.am      2 ALA2        0.0000 
     21 N          27.9800   65.5300   74.5700 N.am      2 ALA2        0.0000 
     22 N          27.7700   66.9500   74.1600 N.am      2 ALA2        0.0000 
     23 N          26.4000   66.9300   74.7800 N.am      2 ALA2        0.0000 
     24 N          23.6700   66.8700   76.0200 N.am      2 ALA2        0.0000 
     25 O          23.0300   71.1600   74.8000 O.2       2 ALA2        0.0000 
     26 N          28.7800   64.5600   76.2800 N.am      2 ALA2        0.0000 
     27 N          27.2000   65.9600   76.4900 N.am      2 ALA2        0.0000 
     28 N          26.9900   67.3900   76.0800 N.am      2 ALA2        0.0000 
     29 O          24.2600   67.3300   77.3300 O.2       2 ALA2        0.0000 
     30 O          24.0400   68.7600   76.9200 O.2       2 ALA2        0.0000 
     31 OD1        27.0300   63.1800   72.3700 O.co2     3 ASP3        0.0000 
     32 OD1        26.8200   64.6100   71.9600 O.co2     3 ASP3        0.0000 
     33 OD1        26.3100   58.8700   74.2100 O.co2     3 ASP3        0.0000 
     34 OD1        25.2400   66.0100   72.1700 O.co2     3 ASP3        0.0000 
     35 OD1        26.0300   65.0400   73.8800 O.co2     3 ASP3        0.0000 
     36 OD1        24.2400   67.8700   73.6900 O.co2     3 ASP3        0.0000 
     37 OD1        24.0300   69.3000   73.2800 O.co2     3 ASP3        0.0000 
     38 OD1        22.8800   67.8400   74.3100 O.co2     3 ASP3        0.0000 
     39 OD1        23.2500   69.7300   75.2100 O.co2     3 ASP3        0.0000 
     40 OD1        21.8800   69.7000   75.8300 O.co2     3 ASP3        0.0000 
     41 OD1        26.4200   66.3900   78.4200 O.co2     3 ASP3        0.0000 
     42 NZ         27.5700   67.8500   77.3900 N.4       4 LYS4        0.0000 
     43 NZ         26.2100   67.8200   78.0100 N.4       4 LYS4        0.0000 
     44 NZ         25.9900   69.2500   77.6000 N.4       4 LYS4        0.0000 
     45 NZ         24.8400   67.7900   78.6300 N.4       4 LYS4        0.0000 
     46 NZ         24.6300   69.2200   78.2200 N.4       4 LYS4        0.0000 
     47 CZ         28.8800   55.6100   72.4800 C.ar      5 PHE5        0.0000 
     48 CZ         28.6700   57.0400   72.0700 C.ar      5 PHE5        0.0000 
     49 CZ         27.3000   57.0100   72.6900 C.ar      5 PHE5        0.0000 
     50 CZ         29.4600   56.0700   73.7800 C.ar      5 PHE5        0.0000 
     51 CZ         29.2500   57.5000   73.3800 C.ar      5 PHE5        0.0000 
     52 CZ         28.1000   56.0400   74.4000 C.ar      5 PHE5        0.0000 
     53 CZ         27.8900   57.4700   74.0000 C.ar      5 PHE5        0.0000 
     54 CZ         26.5200   57.4400   74.6200 C.ar      5 PHE5        0.0000 
     55 CZ         28.6800   56.5000   75.7100 C.ar      5 PHE5        0.0000 
     56 CZ         25.2500   65.4700   75.8100 C.ar      5 PHE5        0.0000 
     57 CZ         28.9900   63.1300   76.6900 C.ar      5 PHE5        0.0000 
     58 CA         28.1800   64.6400   71.3400 C.3       6 GLY6        0.0000 
     59 CA         26.6000   66.0400   71.5500 C.3       6 GLY6        0.0000 
     60 CA         25.0200   67.4400   71.7700 C.3       6 GLY6        0.0000 
     61 CA         28.7600   65.1000   72.6400 C.3       6 GLY6        0.0000 
     62 CA         27.1900   66.5000   72.8600 C.3       6 GLY6        0.0000 
     63 CA         27.1000   57.9000   75.9200 C.3       6 GLY6        0.0000 
     64 CA         25.8200   66.4700   73.4800 C.3       6 GLY6        0.0000 
     65 CA         25.6100   67.9000   73.0700 C.3       6 GLY6        0.0000 
     66 CA         24.4500   66.4400   74.1000 C.3       6 GLY6        0.0000 
     67 CA         26.1900   68.3600   74.3700 C.3       6 GLY6        0.0000 
     68 CA         25.0400   66.9000   75.4000 C.3       6 GLY6        0.0000 
     69 CA         24.8200   68.3300   74.9900 C.3       6 GLY6        0.0000 
     70 CA         24.6100   69.7600   74.5900 C.3       6 GLY6        0.0000 
     71 CA         23.4600   68.3000   75.6200 C.3       6 GLY6        0.0000 
     72 CA         26.7700   68.8100   75.6800 C.3       6 GLY6        0.0000 
     73 CA         25.8400   65.9300   77.1100 C.3       6 GLY6        0.0000 
     74 CA         25.4100   68.7900   76.3000 C.3       6 GLY6        0.0000 
     75 CA         25.1900   70.2100   75.8900 C.3       6 GLY6        0.0000 
     76 CA         23.8300   70.1900   76.5100 C.3       6 GLY6        0.0000 
     77 CA         22.6800   68.7300   77.5400 C.3       6 GLY6        0.0000 
     78 CA         22.4600   70.1600   77.1300 C.3       6 GLY6        0.0000 
     79 DU         25.6200   67.3600   76.7100 H         7 CUB7        0.0000 
@<TRIPOS>BOND
@<TRIPOS>SUBSTRUCTURE
     1 SER1        1 GROUP   
     2 ALA2       17 GROUP   
     3 ASP3       31 GROUP   
     4 LYS4       42 GROUP   
     5 PHE5       47 GROUP   
     6 GLY6       58 GROUP   
     7 CUB7       79 GROUP   
@<TRIPOS>SET

