#    Name: 6dvh_4_FMN
#    Modification time : Fri May 22 19:26:45 2020

@<TRIPOS>MOLECULE
6dvh_4_FMN
   31    33     1     0     1
SMALL
NO_CHARGES


@<TRIPOS>ATOM
      1 N1         28.9780   64.2650   77.0140 N.2       1 FMN401      0.0000 
      2 C2         30.1660   63.7130   77.3650 C.2       1 FMN401      0.0000 
      3 O2         30.4690   63.6920   78.6120 O.2       1 FMN401      0.0000 
      4 N3         31.0150   63.2050   76.4570 N.am      1 FMN401      0.0000 
      5 C4         30.7360   63.2140   75.1070 C.2       1 FMN401      0.0000 
      6 O4         31.5530   62.7230   74.2980 O.2       1 FMN401      0.0000 
      7 C4A        29.4600   63.7890   74.6470 C.2       1 FMN401      0.0000 
      8 N5         29.1350   63.9080   73.3060 N.2       1 FMN401      0.0000 
      9 C5A        27.9270   64.4540   72.9800 C.ar      1 FMN401      0.0000 
     10 C6         27.5430   64.5370   71.6220 C.ar      1 FMN401      0.0000 
     11 C7         26.4850   65.3540   71.2340 C.ar      1 FMN401      0.0000 
     12 C7M        26.0970   65.4470   69.7670 C.3       1 FMN401      0.0000 
     13 C8         25.7450   66.1700   72.1950 C.ar      1 FMN401      0.0000 
     14 C8M        24.6030   67.0560   71.7510 C.3       1 FMN401      0.0000 
     15 C9         26.1100   66.0960   73.5640 C.ar      1 FMN401      0.0000 
     16 C9A        27.1640   65.2640   73.9720 C.ar      1 FMN401      0.0000 
     17 N10        27.4650   65.0960   75.3830 N.pl3     1 FMN401      0.0000 
     18 C10        28.5900   64.3380   75.7140 C.2       1 FMN401      0.0000 
     19 C1'        26.6290   65.7010   76.4130 C.3       1 FMN401      0.0000 
     20 C2'        27.0740   67.1410   76.5530 C.3       1 FMN401      0.0000 
     21 O2'        28.3910   67.2380   77.1270 O.3       1 FMN401      0.0000 
     22 C3'        26.1150   67.9820   77.3980 C.3       1 FMN401      0.0000 
     23 O3'        25.9010   67.3400   78.6800 O.3       1 FMN401      0.0000 
     24 C4'        24.7820   68.1570   76.6810 C.3       1 FMN401      0.0000 
     25 O4'        25.0000   68.4540   75.2650 O.3       1 FMN401      0.0000 
     26 C5'        24.0010   69.2990   77.2900 C.3       1 FMN401      0.0000 
     27 O5'        22.6410   69.2520   76.9000 O.3       1 FMN401      0.0000 
     28 P          22.0420   70.3430   75.8130 P.3       1 FMN401      0.0000 
     29 O1P        23.0510   70.1450   74.6720 O.co2     1 FMN401      0.0000 
     30 O2P        20.6480   69.8050   75.4840 O.co2     1 FMN401      0.0000 
     31 O3P        22.1170   71.7370   76.3860 O.co2     1 FMN401      0.0000 
@<TRIPOS>BOND
     1    1    2 1    
     2    1   18 2    
     3    2    3 2    
     4    2    4 am   
     5    4    5 am   
     6    5    6 2    
     7    5    7 1    
     8    7    8 2    
     9    7   18 1    
    10    8    9 1    
    11    9   10 ar   
    12    9   16 ar   
    13   10   11 ar   
    14   11   12 1    
    15   11   13 ar   
    16   13   14 1    
    17   13   15 ar   
    18   15   16 ar   
    19   16   17 1    
    20   17   18 1    
    21   17   19 1    
    22   19   20 1    
    23   20   21 1    
    24   20   22 1    
    25   22   23 1    
    26   22   24 1    
    27   24   25 1    
    28   24   26 1    
    29   26   27 1    
    30   27   28 1    
    31   28   29 ar   
    32   28   30 ar   
    33   28   31 ar   
@<TRIPOS>SUBSTRUCTURE
     1 FMN401      1 GROUP   
@<TRIPOS>SET
ATOM$ORANGE STATIC     ATOMS   COLORGROUP SYSTEM 
34 2 2 5 5 7 7 9 9 10 10 11 11 12 12 13 13 14 \
14 15 15 16 16 18 18 19 19 20 20 22 22 24 24 26 26 

