#    Name: 6dvh_6_FMN_CAVITY_N1_ALL
#    Modification time : Fri May 22 19:26:55 2020

@<TRIPOS>MOLECULE
6dvh_6_FMN_CAVITY_N1_ALL
   77     0     6     0     0
SMALL
NO_CHARGES


@<TRIPOS>ATOM
      1 OG         25.2700   58.8500  129.9200 O.3       1 SER1        0.0000 
      2 OG         27.2200   59.3400  130.6100 O.3       1 SER1        0.0000 
      3 OG         25.8600   59.3100  131.2300 O.3       1 SER1        0.0000 
      4 OG         29.1700   59.8300  131.2900 O.3       1 SER1        0.0000 
      5 OG         28.9600   61.2500  130.8800 O.3       1 SER1        0.0000 
      6 OG         27.8100   59.8000  131.9100 O.3       1 SER1        0.0000 
      7 OG         27.5900   61.2300  131.5000 O.3       1 SER1        0.0000 
      8 OG         29.5400   61.7100  132.1800 O.3       1 SER1        0.0000 
      9 OG         28.3900   60.2600  133.2100 O.3       1 SER1        0.0000 
     10 OG         27.0200   60.2300  133.8300 O.3       1 SER1        0.0000 
     11 N          21.5900   56.4500  128.9700 N.am      2 ALA2        0.0000 
     12 N          21.3800   57.8800  128.5600 N.am      2 ALA2        0.0000 
     13 O          19.8000   59.2800  128.7700 O.2       2 ALA2        0.0000 
     14 N          23.3300   58.3700  129.2400 N.am      2 ALA2        0.0000 
     15 N          21.9600   58.3400  129.8600 N.am      2 ALA2        0.0000 
     16 O          19.2300   58.2800  131.1000 O.2       2 ALA2        0.0000 
     17 N          25.4900   57.4200  130.3300 N.am      2 ALA2        0.0000 
     18 N          23.9100   58.8200  130.5400 N.am      2 ALA2        0.0000 
     19 O          27.4400   57.9100  131.0100 O.2       2 ALA2        0.0000 
     20 O          26.0700   57.8800  131.6300 O.2       2 ALA2        0.0000 
     21 O          28.0200   58.3700  132.3200 O.2       2 ALA2        0.0000 
     22 O          26.4400   59.7700  132.5300 O.2       2 ALA2        0.0000 
     23 O          25.2900   58.3200  133.5600 O.2       2 ALA2        0.0000 
     24 O          27.2400   58.8000  134.2400 O.2       2 ALA2        0.0000 
     25 OD1        16.4800   58.7600  128.7100 O.co2     3 ASP3        0.0000 
     26 OD1        22.7400   57.9100  127.9400 O.co2     3 ASP3        0.0000 
     27 OD1        18.4300   59.2500  129.3900 O.co2     3 ASP3        0.0000 
     28 OD1        17.0700   59.2200  130.0100 O.co2     3 ASP3        0.0000 
     29 OD1        19.0200   59.7100  130.7000 O.co2     3 ASP3        0.0000 
     30 OD1        24.4900   59.2800  131.8500 O.co2     3 ASP3        0.0000 
     31 OD1        23.1300   59.2600  132.4700 O.co2     3 ASP3        0.0000 
     32 OD1        21.7600   59.2300  133.0900 O.co2     3 ASP3        0.0000 
     33 OD1        26.2300   61.2000  132.1200 O.co2     3 ASP3        0.0000 
     34 OD1        25.0800   59.7400  133.1500 O.co2     3 ASP3        0.0000 
     35 OD1        23.7100   59.7200  133.7700 O.co2     3 ASP3        0.0000 
     36 OD1        22.3500   59.6900  134.3900 O.co2     3 ASP3        0.0000 
     37 OD1        24.2900   60.1800  135.0800 O.co2     3 ASP3        0.0000 
     38 OD1        22.9300   60.1500  135.7000 O.co2     3 ASP3        0.0000 
     39 NZ         20.7900   57.4200  127.2600 N.4       4 LYS4        0.0000 
     40 NZ         20.5800   58.8500  126.8500 N.4       4 LYS4        0.0000 
     41 NZ         19.4300   57.3900  127.8800 N.4       4 LYS4        0.0000 
     42 NZ         19.2100   58.8200  127.4700 N.4       4 LYS4        0.0000 
     43 CZ         23.1100   59.7900  128.8300 C.ar      5 PHE5        0.0000 
     44 CZ         29.3900   58.4000  131.7000 C.ar      5 PHE5        0.0000 
     45 CZ         31.1200   60.3100  131.9700 C.ar      5 PHE5        0.0000 
     46 CZ         29.9700   58.8600  133.0000 C.ar      5 PHE5        0.0000 
     47 CZ         29.7500   60.2800  132.5900 C.ar      5 PHE5        0.0000 
     48 CZ         25.6600   60.2000  134.4500 C.ar      5 PHE5        0.0000 
     49 CA         18.0600   57.3600  128.5000 C.3       6 GLY6        0.0000 
     50 CA         17.8500   58.7900  128.0900 C.3       6 GLY6        0.0000 
     51 CA         22.5300   59.3300  127.5300 C.3       6 GLY6        0.0000 
     52 CA         21.1600   59.3100  128.1500 C.3       6 GLY6        0.0000 
     53 CA         20.2300   56.4200  129.5900 C.3       6 GLY6        0.0000 
     54 CA         20.0100   57.8500  129.1800 C.3       6 GLY6        0.0000 
     55 CA         18.2200   60.6800  128.9900 C.3       6 GLY6        0.0000 
     56 CA         21.7500   59.7700  129.4600 C.3       6 GLY6        0.0000 
     57 CA         20.8100   56.8800  130.8900 C.3       6 GLY6        0.0000 
     58 CA         20.5900   58.3100  130.4800 C.3       6 GLY6        0.0000 
     59 CA         20.3800   59.7400  130.0800 C.3       6 GLY6        0.0000 
     60 CA         22.5400   58.8000  131.1700 C.3       6 GLY6        0.0000 
     61 CA         21.1800   58.7700  131.7900 C.3       6 GLY6        0.0000 
     62 CA         20.9600   60.2000  131.3800 C.3       6 GLY6        0.0000 
     63 CA         20.0300   57.3100  132.8100 C.3       6 GLY6        0.0000 
     64 CA         19.8100   58.7400  132.4100 C.3       6 GLY6        0.0000 
     65 CA         24.7100   57.8600  132.2600 C.3       6 GLY6        0.0000 
     66 CA         23.3400   57.8300  132.8800 C.3       6 GLY6        0.0000 
     67 CA         21.9800   57.8000  133.5000 C.3       6 GLY6        0.0000 
     68 CA         20.6100   57.7700  134.1200 C.3       6 GLY6        0.0000 
     69 CA         20.4000   59.2000  133.7100 C.3       6 GLY6        0.0000 
     70 CA         23.9200   58.2900  134.1800 C.3       6 GLY6        0.0000 
     71 CA         22.5600   58.2600  134.8000 C.3       6 GLY6        0.0000 
     72 CA         21.1900   58.2300  135.4200 C.3       6 GLY6        0.0000 
     73 CA         20.9800   59.6600  135.0100 C.3       6 GLY6        0.0000 
     74 CA         28.6000   58.8300  133.6200 C.3       6 GLY6        0.0000 
     75 CA         25.8700   58.7700  134.8600 C.3       6 GLY6        0.0000 
     76 CA         24.5100   58.7500  135.4800 C.3       6 GLY6        0.0000 
     77 CA         23.1400   58.7200  136.1000 C.3       6 GLY6        0.0000 
@<TRIPOS>BOND
@<TRIPOS>SUBSTRUCTURE
     1 SER1        1 GROUP   
     2 ALA2       11 GROUP   
     3 ASP3       25 GROUP   
     4 LYS4       39 GROUP   
     5 PHE5       43 GROUP   
     6 GLY6       49 GROUP   
@<TRIPOS>SET

