#    Name: 6qkx_1_FAD
#    Modification time : Fri May 22 19:28:22 2020

@<TRIPOS>MOLECULE
6qkx_1_FAD
   53    58     1     0     1
SMALL
NO_CHARGES


@<TRIPOS>ATOM
      1 PA        -18.6440  -21.9820  -14.7800 P.3       1 FAD802      0.0000 
      2 O1A       -17.5850  -22.3340  -13.7980 O.co2     1 FAD802      0.0000 
      3 O2A       -19.7160  -23.0590  -14.9620 O.co2     1 FAD802      0.0000 
      4 O5B       -19.3260  -20.5890  -14.4310 O.3       1 FAD802      0.0000 
      5 C5B       -20.6680  -20.2820  -14.8630 C.3       1 FAD802      0.0000 
      6 C4B       -21.3500  -19.4040  -13.8420 C.3       1 FAD802      0.0000 
      7 O4B       -22.2770  -18.5230  -14.5190 O.3       1 FAD802      0.0000 
      8 C3B       -22.1680  -20.1610  -12.7960 C.3       1 FAD802      0.0000 
      9 O3B       -22.0410  -19.5750  -11.5040 O.3       1 FAD802      0.0000 
     10 C2B       -23.5970  -20.0600  -13.3410 C.3       1 FAD802      0.0000 
     11 O2B       -24.5550  -20.1440  -12.2940 O.3       1 FAD802      0.0000 
     12 C1B       -23.5720  -18.6710  -13.9730 C.3       1 FAD802      0.0000 
     13 N9A       -24.5510  -18.4630  -15.0430 N.pl3     1 FAD802      0.0000 
     14 C8A       -24.8620  -19.3230  -16.0640 C.2       1 FAD802      0.0000 
     15 N7A       -25.7780  -18.8660  -16.8860 N.2       1 FAD802      0.0000 
     16 C5A       -26.0900  -17.6160  -16.3710 C.ar      1 FAD802      0.0000 
     17 C6A       -26.9930  -16.6170  -16.7830 C.ar      1 FAD802      0.0000 
     18 N6A       -27.7800  -16.7200  -17.8580 N.pl3     1 FAD802      0.0000 
     19 N1A       -27.0560  -15.4860  -16.0460 N.ar      1 FAD802      0.0000 
     20 C2A       -26.2720  -15.3700  -14.9720 C.ar      1 FAD802      0.0000 
     21 N3A       -25.3840  -16.2440  -14.4910 N.ar      1 FAD802      0.0000 
     22 C4A       -25.3410  -17.3540  -15.2370 C.ar      1 FAD802      0.0000 
     23 N1        -11.6790  -28.5990  -14.0850 N.2       1 FAD802      0.0000 
     24 C2        -10.3460  -28.8280  -13.9070 C.2       1 FAD802      0.0000 
     25 O2         -9.4970  -28.3160  -14.6430 O.2       1 FAD802      0.0000 
     26 N3         -9.9210  -29.6510  -12.8800 N.am      1 FAD802      0.0000 
     27 C4        -10.7330  -30.2900  -11.9700 C.2       1 FAD802      0.0000 
     28 O4        -10.2420  -30.9980  -11.0940 O.2       1 FAD802      0.0000 
     29 C4X       -12.1470  -30.0400  -12.1670 C.2       1 FAD802      0.0000 
     30 N5        -12.9870  -30.6030  -11.3490 N.2       1 FAD802      0.0000 
     31 C5X       -14.3400  -30.3590  -11.5360 C.ar      1 FAD802      0.0000 
     32 C6        -15.2570  -30.9590  -10.6750 C.ar      1 FAD802      0.0000 
     33 C7        -16.6230  -30.7450  -10.8220 C.ar      1 FAD802      0.0000 
     34 C7M       -17.5810  -31.4080   -9.8680 C.3       1 FAD802      0.0000 
     35 C8        -17.0880  -29.9170  -11.8560 C.ar      1 FAD802      0.0000 
     36 C8M       -18.5610  -29.6600  -12.0460 C.3       1 FAD802      0.0000 
     37 C9        -16.1750  -29.3200  -12.7180 C.ar      1 FAD802      0.0000 
     38 C9A       -14.8110  -29.5340  -12.5660 C.ar      1 FAD802      0.0000 
     39 N10       -13.8630  -28.9500  -13.4300 N.pl3     1 FAD802      0.0000 
     40 C10       -12.5220  -29.1730  -13.2520 C.2       1 FAD802      0.0000 
     41 C1'       -14.2860  -28.0680  -14.5210 C.3       1 FAD802      0.0000 
     42 C2'       -14.2060  -26.6010  -14.1550 C.3       1 FAD802      0.0000 
     43 O2'       -14.8800  -26.3800  -12.9160 O.3       1 FAD802      0.0000 
     44 C3'       -14.8460  -25.7730  -15.2680 C.3       1 FAD802      0.0000 
     45 O3'       -14.0830  -25.9600  -16.4540 O.3       1 FAD802      0.0000 
     46 C4'       -14.9130  -24.2780  -14.9660 C.3       1 FAD802      0.0000 
     47 O4'       -15.6460  -24.0550  -13.7610 O.3       1 FAD802      0.0000 
     48 C5'       -15.5670  -23.4970  -16.0830 C.3       1 FAD802      0.0000 
     49 O5'       -15.6380  -22.1130  -15.6920 O.3       1 FAD802      0.0000 
     50 P         -16.5610  -21.0980  -16.4490 P.3       1 FAD802      0.0000 
     51 O1P       -16.4640  -19.7570  -15.7140 O.co2     1 FAD802      0.0000 
     52 O2P       -16.2410  -21.1160  -17.8910 O.co2     1 FAD802      0.0000 
     53 O3P       -18.0000  -21.7140  -16.2030 O.3       1 FAD802      0.0000 
@<TRIPOS>BOND
     1    1    2 ar   
     2    1    3 ar   
     3    1    4 1    
     4    1   53 1    
     5    4    5 1    
     6    5    6 1    
     7    6    7 1    
     8    6    8 1    
     9    7   12 1    
    10    8    9 1    
    11    8   10 1    
    12   10   11 1    
    13   10   12 1    
    14   12   13 1    
    15   13   14 1    
    16   13   22 1    
    17   14   15 2    
    18   15   16 1    
    19   16   17 ar   
    20   16   22 ar   
    21   17   18 1    
    22   17   19 ar   
    23   19   20 ar   
    24   20   21 ar   
    25   21   22 ar   
    26   23   24 1    
    27   23   40 2    
    28   24   25 2    
    29   24   26 am   
    30   26   27 am   
    31   27   28 2    
    32   27   29 1    
    33   29   30 2    
    34   29   40 1    
    35   30   31 1    
    36   31   32 ar   
    37   31   38 ar   
    38   32   33 ar   
    39   33   34 1    
    40   33   35 ar   
    41   35   36 1    
    42   35   37 ar   
    43   37   38 ar   
    44   38   39 1    
    45   39   40 1    
    46   39   41 1    
    47   41   42 1    
    48   42   43 1    
    49   42   44 1    
    50   44   45 1    
    51   44   46 1    
    52   46   47 1    
    53   46   48 1    
    54   48   49 1    
    55   49   50 1    
    56   50   51 ar   
    57   50   52 ar   
    58   50   53 1    
@<TRIPOS>SUBSTRUCTURE
     1 FAD802      1 GROUP   
@<TRIPOS>SET
ATOM$ORANGE STATIC     ATOMS   COLORGROUP SYSTEM 
54 5 5 6 6 8 8 10 10 12 12 14 14 16 16 17 17 20 \
20 22 22 24 24 27 27 29 29 31 31 32 32 33 33 34 34 35 \
35 36 36 37 37 38 38 40 40 41 41 42 42 44 44 46 46 48 \
48 

