#    Name: 6vfy_1_COA
#    Modification time : Fri May 22 19:33:33 2020

@<TRIPOS>MOLECULE
6vfy_1_COA
   48    50     1     0     1
SMALL
NO_CHARGES


@<TRIPOS>ATOM
      1 N1A         3.0780   20.7620   11.1460 N.ar      1 COA401      0.0000 
      2 C2A         3.7250   20.3420   10.0320 C.ar      1 COA401      0.0000 
      3 N3A         3.1520   19.4310    9.2100 N.ar      1 COA401      0.0000 
      4 C4A         1.9290   18.9430    9.5040 C.ar      1 COA401      0.0000 
      5 C5A         1.2950   19.3540   10.6020 C.ar      1 COA401      0.0000 
      6 C6A         1.8830   20.2830   11.4360 C.ar      1 COA401      0.0000 
      7 N6A         1.3470   20.8610   12.6890 N.pl3     1 COA401      0.0000 
      8 N7A         0.1100   18.7170   10.6660 N.2       1 COA401      0.0000 
      9 C8A         0.0190   17.9170    9.6040 C.2       1 COA401      0.0000 
     10 N9A         1.1390   18.0390    8.8840 N.pl3     1 COA401      0.0000 
     11 C1B         1.4400   17.3730    7.6690 C.3       1 COA401      0.0000 
     12 C2B         1.8360   16.1040    7.8450 C.3       1 COA401      0.0000 
     13 O2B         3.2960   16.0160    8.0830 O.3       1 COA401      0.0000 
     14 C3B         1.4010   15.3980    6.5320 C.3       1 COA401      0.0000 
     15 O3B         2.2410   15.4960    5.5030 O.3       1 COA401      0.0000 
     16 P3B         3.6110   14.6240    5.3670 P.3       1 COA401      0.0000 
     17 O7A         4.4630   15.2170    4.2740 O.co2     1 COA401      0.0000 
     18 O8A         4.3570   14.5710    6.6660 O.co2     1 COA401      0.0000 
     19 O9A         3.2430   13.2110    4.9910 O.co2     1 COA401      0.0000 
     20 C4B         0.0670   16.1660    6.1060 C.3       1 COA401      0.0000 
     21 O4B         0.0360   17.2750    6.8130 O.3       1 COA401      0.0000 
     22 C5B        -1.1730   15.3090    6.3880 C.3       1 COA401      0.0000 
     23 O5B        -0.9210   14.6740    7.6240 O.3       1 COA401      0.0000 
     24 P1A        -2.1120   14.1080    8.6440 P.3       1 COA401      0.0000 
     25 O1A        -2.1680   12.6010    8.4910 O.co2     1 COA401      0.0000 
     26 O2A        -1.7000   14.4400   10.0530 O.co2     1 COA401      0.0000 
     27 O3A        -3.6430   14.6870    8.3510 O.3       1 COA401      0.0000 
     28 P2A        -4.4020   15.7580    9.3920 P.3       1 COA401      0.0000 
     29 O4A        -3.9650   15.5070   10.8240 O.co2     1 COA401      0.0000 
     30 O5A        -5.9040   15.5500    9.2820 O.co2     1 COA401      0.0000 
     31 O6A        -4.0620   17.3150    8.9420 O.3       1 COA401      0.0000 
     32 CBP        -4.1410   19.6560    9.5730 C.3       1 COA401      0.0000 
     33 CCP        -3.5770   18.2450    9.8760 C.3       1 COA401      0.0000 
     34 CDP        -3.0430   20.6880    9.9120 C.3       1 COA401      0.0000 
     35 CEP        -4.4960   19.7290    8.0830 C.3       1 COA401      0.0000 
     36 CAP        -5.3960   19.9850   10.4720 C.3       1 COA401      0.0000 
     37 OAP        -4.9520   20.1220   11.7760 O.3       1 COA401      0.0000 
     38 C9P        -6.0460   21.2680   10.0320 C.2       1 COA401      0.0000 
     39 O9P        -6.9640   21.2240    9.3060 O.2       1 COA401      0.0000 
     40 N8P        -5.5750   22.5790   10.4930 N.am      1 COA401      0.0000 
     41 C7P        -6.2120   23.7970   10.0240 C.3       1 COA401      0.0000 
     42 C6P        -6.1680   24.9650   11.1070 C.3       1 COA401      0.0000 
     43 C5P        -6.4210   26.3720   10.4560 C.2       1 COA401      0.0000 
     44 O5P        -7.1760   27.1220   10.9590 O.2       1 COA401      0.0000 
     45 N4P        -5.6820   26.7520    9.2230 N.am      1 COA401      0.0000 
     46 C3P        -5.8320   28.0480    8.5300 C.3       1 COA401      0.0000 
     47 C2P        -7.3250   28.3470    8.1360 C.3       1 COA401      0.0000 
     48 S1P        -8.0550   26.9080    7.2730 S.3       1 COA401      0.0000 
@<TRIPOS>BOND
     1    1    2 ar   
     2    1    6 ar   
     3    2    3 ar   
     4    3    4 ar   
     5    4    5 ar   
     6    4   10 1    
     7    5    6 ar   
     8    5    8 1    
     9    6    7 1    
    10    8    9 2    
    11    9   10 1    
    12   10   11 1    
    13   11   12 1    
    14   11   21 1    
    15   12   13 1    
    16   12   14 1    
    17   14   15 1    
    18   14   20 1    
    19   15   16 1    
    20   16   17 ar   
    21   16   18 ar   
    22   16   19 ar   
    23   20   21 1    
    24   20   22 1    
    25   22   23 1    
    26   23   24 1    
    27   24   25 ar   
    28   24   26 ar   
    29   24   27 1    
    30   27   28 1    
    31   28   29 ar   
    32   28   30 ar   
    33   28   31 1    
    34   31   33 1    
    35   32   33 1    
    36   32   34 1    
    37   32   35 1    
    38   32   36 1    
    39   36   37 1    
    40   36   38 1    
    41   38   39 2    
    42   38   40 am   
    43   40   41 1    
    44   41   42 1    
    45   42   43 1    
    46   43   44 2    
    47   43   45 am   
    48   45   46 1    
    49   46   47 1    
    50   47   48 1    
@<TRIPOS>SUBSTRUCTURE
     1 COA401      1 GROUP   
@<TRIPOS>SET
ATOM$ORANGE STATIC     ATOMS   COLORGROUP SYSTEM 
42 2 2 4 4 5 5 6 6 9 9 11 11 12 12 14 14 20 \
20 22 22 32 32 33 33 34 34 35 35 36 36 38 38 41 41 42 \
42 43 43 46 46 47 47 

