#    Name: 6vfy_2_COA
#    Modification time : Fri May 22 19:33:37 2020

@<TRIPOS>MOLECULE
6vfy_2_COA
   48    50     1     0     1
SMALL
NO_CHARGES


@<TRIPOS>ATOM
      1 N1A        -7.8960   68.4580   -7.8120 N.ar      1 COA401      0.0000 
      2 C2A        -6.6260   68.6570   -8.2290 C.ar      1 COA401      0.0000 
      3 N3A        -5.8410   69.5670   -7.6050 N.ar      1 COA401      0.0000 
      4 C4A        -6.3290   70.2740   -6.5660 C.ar      1 COA401      0.0000 
      5 C5A        -7.5780   70.0770   -6.1530 C.ar      1 COA401      0.0000 
      6 C6A        -8.3760   69.1450   -6.7940 C.ar      1 COA401      0.0000 
      7 N6A        -9.7800   68.7650   -6.5080 N.pl3     1 COA401      0.0000 
      8 N7A        -7.8040   70.9100   -5.1140 N.2       1 COA401      0.0000 
      9 C8A        -6.6880   71.6120   -4.8920 C.2       1 COA401      0.0000 
     10 N9A        -5.7690   71.2210   -5.7830 N.pl3     1 COA401      0.0000 
     11 C1B        -4.4440   71.6960   -5.9510 C.3       1 COA401      0.0000 
     12 C2B        -4.4500   72.7350   -6.8010 C.3       1 COA401      0.0000 
     13 O2B        -4.6650   72.3310   -8.2130 O.3       1 COA401      0.0000 
     14 C3B        -3.0500   73.3400   -6.5730 C.3       1 COA401      0.0000 
     15 O3B        -2.0980   72.7700   -7.2840 O.3       1 COA401      0.0000 
     16 P3B        -1.1900   73.8120   -8.1180 P.3       1 COA401      0.0000 
     17 O7A        -1.0090   75.0610   -7.2860 O.co2     1 COA401      0.0000 
     18 O8A        -1.9310   74.1440   -9.3780 O.co2     1 COA401      0.0000 
     19 O9A         0.1560   73.2060   -8.4370 O.co2     1 COA401      0.0000 
     20 C4B        -2.7610   73.0720   -5.0380 C.3       1 COA401      0.0000 
     21 O4B        -3.7880   72.3720   -4.5970 O.3       1 COA401      0.0000 
     22 C5B        -2.6460   74.4560   -4.4020 C.3       1 COA401      0.0000 
     23 O5B        -3.3410   74.4620   -3.1800 O.3       1 COA401      0.0000 
     24 P1A        -4.7530   75.3190   -3.0480 P.3       1 COA401      0.0000 
     25 O1A        -4.5800   76.7360   -3.5550 O.co2     1 COA401      0.0000 
     26 O2A        -5.8170   74.6030   -3.8330 O.co2     1 COA401      0.0000 
     27 O3A        -5.0530   75.2530   -1.4160 O.3       1 COA401      0.0000 
     28 P2A        -6.3700   74.3980   -0.8630 P.3       1 COA401      0.0000 
     29 O4A        -7.5370   74.4560   -1.8320 O.co2     1 COA401      0.0000 
     30 O5A        -6.8300   74.9320    0.4810 O.co2     1 COA401      0.0000 
     31 O6A        -5.8250   72.8520   -0.7290 O.3       1 COA401      0.0000 
     32 CBP        -6.6330   70.6070   -0.5760 C.3       1 COA401      0.0000 
     33 CCP        -6.6160   71.9070   -1.3920 C.3       1 COA401      0.0000 
     34 CDP        -6.7260   69.3910   -1.5300 C.3       1 COA401      0.0000 
     35 CEP        -5.3580   70.5180    0.2740 C.3       1 COA401      0.0000 
     36 CAP        -7.9380   70.7480    0.2860 C.3       1 COA401      0.0000 
     37 OAP        -9.0060   70.9990   -0.5620 O.3       1 COA401      0.0000 
     38 C9P        -8.2090   69.5110    1.0660 C.2       1 COA401      0.0000 
     39 O9P        -7.5850   69.2850    2.0330 O.2       1 COA401      0.0000 
     40 N8P        -9.2640   68.6080    0.6200 N.am      1 COA401      0.0000 
     41 C7P        -9.5220   67.4230    1.3840 C.3       1 COA401      0.0000 
     42 C6P        -8.3100   66.4190    1.1860 C.3       1 COA401      0.0000 
     43 C5P        -8.3870   65.3620    2.3310 C.2       1 COA401      0.0000 
     44 O5P        -9.4370   64.9650    2.6890 O.2       1 COA401      0.0000 
     45 N4P        -7.1330   64.8780    2.9550 N.am      1 COA401      0.0000 
     46 C3P        -7.1750   63.8780    4.0310 C.3       1 COA401      0.0000 
     47 C2P        -6.9460   62.4470    3.4100 C.3       1 COA401      0.0000 
     48 S1P        -8.0630   62.1700    1.9870 S.3       1 COA401      0.0000 
@<TRIPOS>BOND
     1    1    2 ar   
     2    1    6 ar   
     3    2    3 ar   
     4    3    4 ar   
     5    4    5 ar   
     6    4   10 1    
     7    5    6 ar   
     8    5    8 1    
     9    6    7 1    
    10    8    9 2    
    11    9   10 1    
    12   10   11 1    
    13   11   12 1    
    14   11   21 1    
    15   12   13 1    
    16   12   14 1    
    17   14   15 1    
    18   14   20 1    
    19   15   16 1    
    20   16   17 ar   
    21   16   18 ar   
    22   16   19 ar   
    23   20   21 1    
    24   20   22 1    
    25   22   23 1    
    26   23   24 1    
    27   24   25 ar   
    28   24   26 ar   
    29   24   27 1    
    30   27   28 1    
    31   28   29 ar   
    32   28   30 ar   
    33   28   31 1    
    34   31   33 1    
    35   32   33 1    
    36   32   34 1    
    37   32   35 1    
    38   32   36 1    
    39   36   37 1    
    40   36   38 1    
    41   38   39 2    
    42   38   40 am   
    43   40   41 1    
    44   41   42 1    
    45   42   43 1    
    46   43   44 2    
    47   43   45 am   
    48   45   46 1    
    49   46   47 1    
    50   47   48 1    
@<TRIPOS>SUBSTRUCTURE
     1 COA401      1 GROUP   
@<TRIPOS>SET
ATOM$ORANGE STATIC     ATOMS   COLORGROUP SYSTEM 
42 2 2 4 4 5 5 6 6 9 9 11 11 12 12 14 14 20 \
20 22 22 32 32 33 33 34 34 35 35 36 36 38 38 41 41 42 \
42 43 43 46 46 47 47 

