#    Name: 6vfy_3_COA
#    Modification time : Fri May 22 19:33:40 2020

@<TRIPOS>MOLECULE
6vfy_3_COA
   48    50     1     0     1
SMALL
NO_CHARGES


@<TRIPOS>ATOM
      1 N1A       -29.6770   56.5690   34.3530 N.ar      1 COA401      0.0000 
      2 C2A       -30.0170   57.8380   34.0430 C.ar      1 COA401      0.0000 
      3 N3A       -29.2390   58.8640   34.4560 N.ar      1 COA401      0.0000 
      4 C4A       -28.1220   58.6400   35.1810 C.ar      1 COA401      0.0000 
      5 C5A       -27.7920   57.3850   35.4840 C.ar      1 COA401      0.0000 
      6 C6A       -28.5890   56.3360   35.0590 C.ar      1 COA401      0.0000 
      7 N6A       -28.4050   54.8870   35.2860 N.pl3     1 COA401      0.0000 
      8 N7A       -26.6510   57.4160   36.2030 N.2       1 COA401      0.0000 
      9 C8A       -26.2830   58.6930   36.3370 C.2       1 COA401      0.0000 
     10 N9A       -27.1850   59.4690   35.7190 N.pl3     1 COA401      0.0000 
     11 C1B       -27.1460   60.8960   35.6250 C.3       1 COA401      0.0000 
     12 C2B       -28.3100   61.5170   35.8500 C.3       1 COA401      0.0000 
     13 O2B       -28.1080   62.9260   35.4420 O.3       1 COA401      0.0000 
     14 C3B       -28.4200   61.4130   37.3830 C.3       1 COA401      0.0000 
     15 O3B       -29.4380   62.0910   37.9460 O.3       1 COA401      0.0000 
     16 P3B       -29.7850   63.6870   37.8060 P.3       1 COA401      0.0000 
     17 O7A       -31.1180   63.8590   37.1220 O.co2     1 COA401      0.0000 
     18 O8A       -28.7450   64.4520   37.0490 O.co2     1 COA401      0.0000 
     19 O9A       -29.8890   64.2670   39.1910 O.co2     1 COA401      0.0000 
     20 C4B       -26.9560   61.8790   37.8150 C.3       1 COA401      0.0000 
     21 O4B       -26.1870   61.5540   36.7950 O.3       1 COA401      0.0000 
     22 C5B       -26.4560   61.1640   39.0800 C.3       1 COA401      0.0000 
     23 O5B       -25.0540   60.8890   39.0190 O.3       1 COA401      0.0000 
     24 P1A       -23.9090   62.1170   38.9900 P.3       1 COA401      0.0000 
     25 O1A       -24.1480   63.0800   37.8450 O.co2     1 COA401      0.0000 
     26 O2A       -23.9140   62.8760   40.2890 O.co2     1 COA401      0.0000 
     27 O3A       -22.3890   61.4990   38.7410 O.3       1 COA401      0.0000 
     28 P2A       -22.0110   59.9620   38.1940 P.3       1 COA401      0.0000 
     29 O4A       -23.0100   58.9250   38.6650 O.co2     1 COA401      0.0000 
     30 O5A       -20.6310   59.6060   38.7180 O.co2     1 COA401      0.0000 
     31 O6A       -21.9840   60.0190   36.5460 O.3       1 COA401      0.0000 
     32 CBP       -21.9160   58.7670   34.5460 C.3       1 COA401      0.0000 
     33 CCP       -22.6930   59.0260   35.8590 C.3       1 COA401      0.0000 
     34 CDP       -22.8980   58.3800   33.4140 C.3       1 COA401      0.0000 
     35 CEP       -21.1580   60.0450   34.1670 C.3       1 COA401      0.0000 
     36 CAP       -20.9130   57.5890   34.8010 C.3       1 COA401      0.0000 
     37 OAP       -21.5680   56.5820   35.4930 O.3       1 COA401      0.0000 
     38 C9P       -20.3500   57.0530   33.5220 C.2       1 COA401      0.0000 
     39 O9P       -19.7050   57.7200   32.8070 O.2       1 COA401      0.0000 
     40 N8P       -20.5930   55.6590   33.1730 N.am      1 COA401      0.0000 
     41 C7P       -20.0510   55.1160   31.9580 C.3       1 COA401      0.0000 
     42 C6P       -20.8870   55.5590   30.6870 C.3       1 COA401      0.0000 
     43 C5P       -20.0200   55.2280   29.4300 C.2       1 COA401      0.0000 
     44 O5P       -20.0660   54.1440   28.9870 O.2       1 COA401      0.0000 
     45 N4P       -19.1580   56.2430   28.7880 N.am      1 COA401      0.0000 
     46 C3P       -18.3530   55.8920   27.6050 C.3       1 COA401      0.0000 
     47 C2P       -19.1430   56.0960   26.2550 C.3       1 COA401      0.0000 
     48 S1P       -20.7760   55.2740   26.2480 S.3       1 COA401      0.0000 
@<TRIPOS>BOND
     1    1    2 ar   
     2    1    6 ar   
     3    2    3 ar   
     4    3    4 ar   
     5    4    5 ar   
     6    4   10 1    
     7    5    6 ar   
     8    5    8 1    
     9    6    7 1    
    10    8    9 2    
    11    9   10 1    
    12   10   11 1    
    13   11   12 1    
    14   11   21 1    
    15   12   13 1    
    16   12   14 1    
    17   14   15 1    
    18   14   20 1    
    19   15   16 1    
    20   16   17 ar   
    21   16   18 ar   
    22   16   19 ar   
    23   20   21 1    
    24   20   22 1    
    25   22   23 1    
    26   23   24 1    
    27   24   25 ar   
    28   24   26 ar   
    29   24   27 1    
    30   27   28 1    
    31   28   29 ar   
    32   28   30 ar   
    33   28   31 1    
    34   31   33 1    
    35   32   33 1    
    36   32   34 1    
    37   32   35 1    
    38   32   36 1    
    39   36   37 1    
    40   36   38 1    
    41   38   39 2    
    42   38   40 am   
    43   40   41 1    
    44   41   42 1    
    45   42   43 1    
    46   43   44 2    
    47   43   45 am   
    48   45   46 1    
    49   46   47 1    
    50   47   48 1    
@<TRIPOS>SUBSTRUCTURE
     1 COA401      1 GROUP   
@<TRIPOS>SET
ATOM$ORANGE STATIC     ATOMS   COLORGROUP SYSTEM 
42 2 2 4 4 5 5 6 6 9 9 11 11 12 12 14 14 20 \
20 22 22 32 32 33 33 34 34 35 35 36 36 38 38 41 41 42 \
42 43 43 46 46 47 47 

