#    Name: 6me4_1_ML2
#    Modification time : Fri May 22 19:37:35 2020

@<TRIPOS>MOLECULE
6me4_1_ML2
   18    19     1     0     0
SMALL
NO_CHARGES


@<TRIPOS>ATOM
      1 C2         23.0100  -25.0520   47.5440 C.2       1 ML21201     0.0000 
      2 C4         24.8670  -25.9940   48.3370 C.ar      1 ML21201     0.0000 
      3 C5         25.8490  -26.7630   48.9660 C.ar      1 ML21201     0.0000 
      4 C6         27.1960  -26.3780   48.9110 C.ar      1 ML21201     0.0000 
      5 C9         29.2260  -23.5770   47.6490 C.3       1 ML21201     0.0000 
      6 C12        24.0460  -24.2380   47.1860 C.2       1 ML21201     0.0000 
      7 C13        23.9370  -22.9200   46.4690 C.3       1 ML21201     0.0000 
      8 N15        23.7960  -20.5020   46.8760 N.am      1 ML21201     0.0000 
      9 C16        23.3380  -19.4580   47.5790 C.2       1 ML21201     0.0000 
     10 C18        23.0700  -18.2060   46.7400 C.3       1 ML21201     0.0000 
     11 I1         20.9940  -24.7020   47.0470 I         1 ML21201     0.0000 
     12 N3         23.4970  -26.1310   48.2270 N.pl3     1 ML21201     0.0000 
     13 C7         27.5770  -25.1990   48.2620 C.ar      1 ML21201     0.0000 
     14 O8         28.9040  -24.8550   48.2330 O.3       1 ML21201     0.0000 
     15 C10        26.5890  -24.4170   47.6510 C.ar      1 ML21201     0.0000 
     16 C11        25.2470  -24.8100   47.6970 C.ar      1 ML21201     0.0000 
     17 C14        24.1300  -21.7930   47.4880 C.3       1 ML21201     0.0000 
     18 O17        23.1520  -19.4660   48.7980 O.2       1 ML21201     0.0000 
@<TRIPOS>BOND
     1    1    6 2    
     2    1   11 1    
     3    1   12 1    
     4    2    3 ar   
     5    2   12 1    
     6    2   16 ar   
     7    3    4 ar   
     8    4   13 ar   
     9    5   14 1    
    10    6    7 1    
    11    6   16 1    
    12    7   17 1    
    13    8    9 am   
    14    8   17 1    
    15    9   10 1    
    16    9   18 2    
    17   13   14 1    
    18   13   15 ar   
    19   15   16 ar   
@<TRIPOS>SUBSTRUCTURE
     1 ML21201     1 GROUP   
@<TRIPOS>SET

