#    Name: 5ykg_6_AGS_CAVITY_N1_8
#    Modification time : Fri May 22 19:31:45 2020

@<TRIPOS>MOLECULE
5ykg_6_AGS_CAVITY_N1_8
   79     0     6     0     0
SMALL
NO_CHARGES


@<TRIPOS>ATOM
      1 OG         94.4000  197.3900  136.7400 O.3       1 SER1        0.0000 
      2 OG         95.4200  198.4100  137.1600 O.3       1 SER1        0.0000 
      3 OG         94.3800  199.4900  137.0600 O.3       1 SER1        0.0000 
      4 OG         96.0800  197.1100  138.7000 O.3       1 SER1        0.0000 
      5 OG         95.0400  198.1900  138.6000 O.3       1 SER1        0.0000 
      6 OG         95.7100  196.8800  140.1400 O.3       1 SER1        0.0000 
      7 OG         97.1000  198.1200  139.1200 O.3       1 SER1        0.0000 
      8 OG         96.0600  199.2000  139.0200 O.3       1 SER1        0.0000 
      9 OG         96.7200  197.9000  140.5600 O.3       1 SER1        0.0000 
     10 OG         97.3900  196.6000  142.1000 O.3       1 SER1        0.0000 
     11 OG         97.0800  200.2200  139.4400 O.3       1 SER1        0.0000 
     12 N          92.7000  199.7700  135.1000 N.am      2 ALA2        0.0000 
     13 N          92.5100  198.3700  144.2400 N.am      2 ALA2        0.0000 
     14 N          93.1800  197.0700  145.7800 N.am      2 ALA2        0.0000 
     15 N          92.8000  196.8400  147.2100 N.am      2 ALA2        0.0000 
     16 N          96.3500  197.6800  141.9900 N.am      2 ALA2        0.0000 
     17 N          97.0100  196.3700  143.5300 N.am      2 ALA2        0.0000 
     18 N          95.9800  197.4500  143.4300 N.am      2 ALA2        0.0000 
     19 N          95.6000  197.2300  144.8700 N.am      2 ALA2        0.0000 
     20 N          95.2300  197.0100  146.3000 N.am      2 ALA2        0.0000 
     21 N          93.1600  199.1600  146.1000 N.am      2 ALA2        0.0000 
     22 N          92.1200  200.2400  146.0000 N.am      2 ALA2        0.0000 
     23 N          93.8200  197.8600  147.6300 N.am      2 ALA2        0.0000 
     24 N          92.7800  198.9400  147.5300 N.am      2 ALA2        0.0000 
     25 N          97.7400  198.9200  140.9800 N.am      2 ALA2        0.0000 
     26 N          96.3300  199.7700  142.3200 N.am      2 ALA2        0.0000 
     27 N          95.5800  199.3300  145.1900 N.am      2 ALA2        0.0000 
     28 N          95.2100  199.1000  146.6200 N.am      2 ALA2        0.0000 
     29 O          94.1700  200.1800  146.5200 O.2       2 ALA2        0.0000 
     30 NZ         94.7700  197.6200  135.3000 N.4       3 LYS4        0.0000 
     31 CZ         90.9500  196.2100  137.2300 C.ar      4 PHE5        0.0000 
     32 CZ         91.6000  197.0100  139.0900 C.ar      4 PHE5        0.0000 
     33 CA         91.3300  196.4400  135.7900 C.3       5 GLY6        0.0000 
     34 CA         93.7500  196.6000  134.8800 C.3       5 GLY6        0.0000 
     35 CA         92.7200  197.6800  134.7800 C.3       5 GLY6        0.0000 
     36 CA         91.6800  198.7600  134.6800 C.3       5 GLY6        0.0000 
     37 CA         93.3800  196.3700  136.3200 C.3       5 GLY6        0.0000 
     38 CA         92.3400  197.4500  136.2100 C.3       5 GLY6        0.0000 
     39 CA         91.9700  197.2300  137.6500 C.3       5 GLY6        0.0000 
     40 CA         92.6300  195.9300  139.1900 C.3       5 GLY6        0.0000 
     41 CA         93.7300  198.6900  135.2000 C.3       5 GLY6        0.0000 
     42 CA         95.0600  196.0900  138.2800 C.3       5 GLY6        0.0000 
     43 CA         94.0200  197.1700  138.1800 C.3       5 GLY6        0.0000 
     44 CA         93.6500  196.9400  139.6100 C.3       5 GLY6        0.0000 
     45 CA         94.7500  199.7100  135.6300 C.3       5 GLY6        0.0000 
     46 CA         95.3300  196.6600  141.5700 C.3       5 GLY6        0.0000 
     47 CA         94.3000  197.7400  141.4700 C.3       5 GLY6        0.0000 
     48 CA         96.0000  195.3600  143.1100 C.3       5 GLY6        0.0000 
     49 CA         94.9600  196.4400  143.0100 C.3       5 GLY6        0.0000 
     50 CA         95.6200  195.1300  144.5400 C.3       5 GLY6        0.0000 
     51 CA         94.5900  196.2100  144.4400 C.3       5 GLY6        0.0000 
     52 CA         94.2100  195.9900  145.8800 C.3       5 GLY6        0.0000 
     53 CA         93.8400  195.7600  147.3100 C.3       5 GLY6        0.0000 
     54 CA         94.9400  198.5300  143.3300 C.3       5 GLY6        0.0000 
     55 CA         94.5700  198.3100  144.7600 C.3       5 GLY6        0.0000 
     56 CA         96.0400  201.3000  139.3400 C.3       5 GLY6        0.0000 
     57 CA         95.0000  202.3800  139.2400 C.3       5 GLY6        0.0000 
     58 CA         96.7000  200.0000  140.8800 C.3       5 GLY6        0.0000 
     59 CA         95.6700  201.0800  140.7800 C.3       5 GLY6        0.0000 
     60 CA         96.3100  201.8700  142.6400 C.3       5 GLY6        0.0000 
     61 DU         90.2900  197.5100  135.6900 H         6 CUB7        0.0000 
     62 DU         91.3100  198.5300  136.1100 H         6 CUB7        0.0000 
     63 DU         90.9300  198.3100  137.5500 H         6 CUB7        0.0000 
     64 DU         93.3600  198.4700  136.6400 H         6 CUB7        0.0000 
     65 DU         92.3200  199.5500  136.5400 H         6 CUB7        0.0000 
     66 DU         92.9900  198.2500  138.0700 H         6 CUB7        0.0000 
     67 DU         92.6100  198.0200  139.5100 H         6 CUB7        0.0000 
     68 DU         94.0100  199.2600  138.5000 H         6 CUB7        0.0000 
     69 DU         94.6700  197.9600  140.0300 H         6 CUB7        0.0000 
     70 DU         93.6300  199.0400  139.9300 H         6 CUB7        0.0000 
     71 DU         95.0200  200.2800  138.9200 H         6 CUB7        0.0000 
     72 DU         95.6900  198.9800  140.4600 H         6 CUB7        0.0000 
     73 DU         94.6500  200.0600  140.3600 H         6 CUB7        0.0000 
     74 DU         95.3100  198.7600  141.8900 H         6 CUB7        0.0000 
     75 DU         93.5300  199.3900  144.6600 H         6 CUB7        0.0000 
     76 DU         92.4900  200.4700  144.5600 H         6 CUB7        0.0000 
     77 DU         94.1900  198.0800  146.2000 H         6 CUB7        0.0000 
     78 DU         94.9200  200.6300  143.6500 H         6 CUB7        0.0000 
     79 DU         94.5500  200.4000  145.0900 H         6 CUB7        0.0000 
@<TRIPOS>BOND
@<TRIPOS>SUBSTRUCTURE
     1 SER1        1 GROUP   
     2 ALA2       12 GROUP   
     3 LYS4       30 GROUP   
     4 PHE5       31 GROUP   
     5 GLY6       33 GROUP   
     6 CUB7       61 GROUP   
@<TRIPOS>SET

