#    Name: 5ykg_10_AGS
#    Modification time : Fri May 22 19:32:16 2020

@<TRIPOS>MOLECULE
5ykg_10_AGS
   31    33     1     0     0
SMALL
NO_CHARGES


@<TRIPOS>ATOM
      1 PG        172.2910  131.7600  160.4300 P.3       1 AGS401      0.0000 
      2 S1G       173.7280  130.2630  160.4340 S.2       1 AGS401      0.0000 
      3 O2G       170.8550  131.1320  160.8020 O.3       1 AGS401      0.0000 
      4 O3G       172.6540  132.7960  161.4240 O.3       1 AGS401      0.0000 
      5 PB        171.6500  131.6150  157.7060 P.3       1 AGS401      0.0000 
      6 O1B       172.7970  131.1080  156.8640 O.co2     1 AGS401      0.0000 
      7 O2B       170.8110  130.4590  158.1990 O.co2     1 AGS401      0.0000 
      8 O3B       172.2250  132.4320  158.9690 O.3       1 AGS401      0.0000 
      9 PA        169.5540  133.4230  157.5320 P.3       1 AGS401      0.0000 
     10 O1A       168.3470  133.4680  156.6280 O.co2     1 AGS401      0.0000 
     11 O2A       169.2130  132.7150  158.8210 O.co2     1 AGS401      0.0000 
     12 O3A       170.7440  132.6080  156.8200 O.3       1 AGS401      0.0000 
     13 O5'       170.0190  134.9240  157.8790 O.3       1 AGS401      0.0000 
     14 C5'       169.0590  135.8400  158.4000 C.3       1 AGS401      0.0000 
     15 C4'       169.6180  136.5510  159.6240 C.3       1 AGS401      0.0000 
     16 O4'       168.5350  136.9120  160.4850 O.3       1 AGS401      0.0000 
     17 C3'       170.5580  135.6580  160.4150 C.3       1 AGS401      0.0000 
     18 O3'       171.8250  136.3040  160.5560 O.3       1 AGS401      0.0000 
     19 C2'       169.9030  135.4600  161.7690 C.3       1 AGS401      0.0000 
     20 O2'       170.6800  136.0800  162.7960 O.3       1 AGS401      0.0000 
     21 C1'       168.5440  136.1320  161.6810 C.3       1 AGS401      0.0000 
     22 N9        167.4920  135.0870  161.6150 N.pl3     1 AGS401      0.0000 
     23 C8        167.6000  133.9190  160.9580 C.2       1 AGS401      0.0000 
     24 N7        166.4760  133.1730  161.0850 N.2       1 AGS401      0.0000 
     25 C5        165.6150  133.8740  161.8420 C.ar      1 AGS401      0.0000 
     26 C6        164.2430  133.6670  162.3610 C.ar      1 AGS401      0.0000 
     27 N6        163.5560  132.5320  162.0860 N.pl3     1 AGS401      0.0000 
     28 N1        163.7030  134.6480  163.1170 N.ar      1 AGS401      0.0000 
     29 C2        164.3780  135.7780  163.3960 C.ar      1 AGS401      0.0000 
     30 N3        165.6250  136.0330  162.9590 N.ar      1 AGS401      0.0000 
     31 C4        166.2880  135.1350  162.1900 C.ar      1 AGS401      0.0000 
@<TRIPOS>BOND
     1    1    2 2    
     2    1    3 1    
     3    1    4 1    
     4    1    8 1    
     5    5    6 ar   
     6    5    7 ar   
     7    5    8 1    
     8    5   12 1    
     9    9   10 ar   
    10    9   11 ar   
    11    9   12 1    
    12    9   13 1    
    13   13   14 1    
    14   14   15 1    
    15   15   16 1    
    16   15   17 1    
    17   16   21 1    
    18   17   18 1    
    19   17   19 1    
    20   19   20 1    
    21   19   21 1    
    22   21   22 1    
    23   22   23 1    
    24   22   31 1    
    25   23   24 2    
    26   24   25 1    
    27   25   26 ar   
    28   25   31 ar   
    29   26   27 1    
    30   26   28 ar   
    31   28   29 ar   
    32   29   30 ar   
    33   30   31 ar   
@<TRIPOS>SUBSTRUCTURE
     1 AGS401      1 GROUP   
@<TRIPOS>SET

