#    Name: 5ykg_5_GBM
#    Modification time : Fri May 22 19:31:34 2020

@<TRIPOS>MOLECULE
5ykg_5_GBM
   33    35     1     0     0
SMALL
NO_CHARGES


@<TRIPOS>ATOM
      1 O3        112.6730  198.0460  178.4610           1 GBM2001     0.0000 
      2 O4        111.8890  199.7980  180.4540           1 GBM2001     0.0000 
      3 O5        110.5060  201.4740  179.6300           1 GBM2001     0.0000 
      4 O6        107.0030  199.4420  182.7000           1 GBM2001     0.0000 
      5 CL1       104.4260  197.0670  187.9680           1 GBM2001     0.0000 
      6 S2        110.8700  200.0890  179.4800           1 GBM2001     0.0000 
      7 O7        108.0720  200.6580  184.8790           1 GBM2001     0.0000 
      8 N8        112.4220  198.5810  176.3410           1 GBM2001     0.0000 
      9 N9        111.4150  199.8380  177.9810           1 GBM2001     0.0000 
     10 N10       105.5990  197.7060  182.8580           1 GBM2001     0.0000 
     11 C11       111.7300  199.2690  175.2750           1 GBM2001     0.0000 
     12 C12       110.4140  198.5520  175.0140           1 GBM2001     0.0000 
     13 C13       112.6080  199.2100  174.0340           1 GBM2001     0.0000 
     14 C14       109.7060  199.1110  173.7900           1 GBM2001     0.0000 
     15 C15       111.8960  199.7380  172.7960           1 GBM2001     0.0000 
     16 C16       110.5980  198.9810  172.5640           1 GBM2001     0.0000 
     17 C17       112.1840  198.7980  177.6320           1 GBM2001     0.0000 
     18 C18       109.5830  199.1810  179.7800           1 GBM2001     0.0000 
     19 C19       107.3660  197.5930  180.3300           1 GBM2001     0.0000 
     20 C20       106.1720  196.7300  180.6560           1 GBM2001     0.0000 
     21 C21       108.4110  199.3330  179.0430           1 GBM2001     0.0000 
     22 C22       109.6360  198.2350  180.7980           1 GBM2001     0.0000 
     23 C23       107.3010  198.5410  179.3170           1 GBM2001     0.0000 
     24 C24       108.5310  197.4440  181.0720           1 GBM2001     0.0000 
     25 C25       106.1360  196.5440  182.1700           1 GBM2001     0.0000 
     26 C26       106.3530  198.6730  183.3860           1 GBM2001     0.0000 
     27 C27       106.3630  198.8300  184.8760           1 GBM2001     0.0000 
     28 C28       107.2290  199.8250  185.5680           1 GBM2001     0.0000 
     29 C29       105.5320  198.0190  185.6340           1 GBM2001     0.0000 
     30 C30       107.1720  199.9060  186.9530           1 GBM2001     0.0000 
     31 C31       105.5120  198.1360  187.0180           1 GBM2001     0.0000 
     32 C32       106.3220  199.0660  187.6670           1 GBM2001     0.0000 
     33 C33       107.7000  202.0100  184.6120           1 GBM2001     0.0000 
@<TRIPOS>BOND
     1    1   17 du   
     2    2    6 du   
     3    3    6 du   
     4    4   26 du   
     5    5   31 du   
     6    6    9 du   
     7    6   18 du   
     8    7   28 du   
     9    7   33 du   
    10    8   11 du   
    11    8   17 du   
    12    9   17 du   
    13   10   25 du   
    14   10   26 du   
    15   11   12 du   
    16   11   13 du   
    17   12   14 du   
    18   13   15 du   
    19   14   16 du   
    20   15   16 du   
    21   18   21 du   
    22   18   22 du   
    23   19   20 du   
    24   19   23 du   
    25   19   24 du   
    26   20   25 du   
    27   21   23 du   
    28   22   24 du   
    29   26   27 du   
    30   27   28 du   
    31   27   29 du   
    32   28   30 du   
    33   29   31 du   
    34   30   32 du   
    35   31   32 du   
@<TRIPOS>SUBSTRUCTURE
     1 GBM2001     1 GROUP   
@<TRIPOS>SET

