#    Name: 5ykg_3_AGS_CAVITY_N1_4
#    Modification time : Fri May 22 19:31:11 2020

@<TRIPOS>MOLECULE
5ykg_3_AGS_CAVITY_N1_4
   17     0     5     0     0
SMALL
NO_CHARGES


@<TRIPOS>ATOM
      1 OG        199.2200  235.2900  133.8600 O.3       1 SER1        0.0000 
      2 N         199.8600  236.0800  135.7200 N.am      2 ALA2        0.0000 
      3 CZ        197.4100  238.0200  136.9500 C.ar      3 PHE5        0.0000 
      4 CZ        197.0400  237.7900  138.3800 C.ar      3 PHE5        0.0000 
      5 CA        196.7700  237.2200  135.0900 C.3       4 GLY6        0.0000 
      6 CA        196.6900  235.4700  139.5000 C.3       4 GLY6        0.0000 
      7 CA        195.6500  236.5500  139.4000 C.3       4 GLY6        0.0000 
      8 CA        196.3100  235.2500  140.9300 C.3       4 GLY6        0.0000 
      9 CA        199.2000  237.3800  134.1800 C.3       4 GLY6        0.0000 
     10 CA        198.8200  237.1600  135.6100 C.3       4 GLY6        0.0000 
     11 CA        197.7900  238.2400  135.5100 C.3       4 GLY6        0.0000 
     12 CA        197.7000  236.4900  139.9200 C.3       4 GLY6        0.0000 
     13 CA        196.6700  237.5700  139.8200 C.3       4 GLY6        0.0000 
     14 CA        198.3700  235.1900  141.4600 C.3       4 GLY6        0.0000 
     15 DU        198.4500  236.9400  137.0500 H         5 CUB7        0.0000 
     16 DU        198.0800  236.7100  138.4900 H         5 CUB7        0.0000 
     17 DU        198.7400  235.4100  140.0200 H         5 CUB7        0.0000 
@<TRIPOS>BOND
@<TRIPOS>SUBSTRUCTURE
     1 SER1        1 GROUP   
     2 ALA2        2 GROUP   
     3 PHE5        3 GROUP   
     4 GLY6        5 GROUP   
     5 CUB7       15 GROUP   
@<TRIPOS>SET

