#    Name: 5ykg_10_AGS_CAVITY_N1_4
#    Modification time : Fri May 22 19:32:17 2020

@<TRIPOS>MOLECULE
5ykg_10_AGS_CAVITY_N1_4
   51     0     5     0     0
SMALL
NO_CHARGES


@<TRIPOS>ATOM
      1 N         163.8000  130.8900  161.6700 N.am      1 ALA2        0.0000 
      2 N         163.4200  130.6700  163.1000 N.am      1 ALA2        0.0000 
      3 N         165.5600  132.3600  159.2200 N.am      1 ALA2        0.0000 
      4 N         165.1900  132.1300  160.6600 N.am      1 ALA2        0.0000 
      5 N         164.8100  131.9100  162.0900 N.am      1 ALA2        0.0000 
      6 O         163.4000  132.7700  163.4300 O.2       1 ALA2        0.0000 
      7 N         166.5800  133.3800  159.6400 N.am      1 ALA2        0.0000 
      8 N         165.1700  134.2300  160.9800 N.am      1 ALA2        0.0000 
      9 O         163.3800  134.8600  163.7500 O.2       1 ALA2        0.0000 
     10 OD1       165.8500  130.8300  162.1900 O.co2     2 ASP3        0.0000 
     11 OD1       166.2000  133.1500  161.0800 O.co2     2 ASP3        0.0000 
     12 OD1       165.8300  132.9300  162.5100 O.co2     2 ASP3        0.0000 
     13 OD1       167.2200  134.1700  161.5000 O.co2     2 ASP3        0.0000 
     14 OD1       165.8100  135.0200  162.8400 O.co2     2 ASP3        0.0000 
     15 OD1       166.8300  136.0400  163.2600 O.co2     2 ASP3        0.0000 
     16 OD1       166.4600  135.8200  164.6900 O.co2     2 ASP3        0.0000 
     17 OD1       168.5100  135.7600  165.2200 O.co2     2 ASP3        0.0000 
     18 CZ        165.5400  134.4500  159.5400 C.ar      3 PHE5        0.0000 
     19 CZ        164.5000  135.5300  159.4400 C.ar      3 PHE5        0.0000 
     20 CZ        163.0900  136.3900  160.7700 C.ar      3 PHE5        0.0000 
     21 CZ        162.7200  136.1700  162.2100 C.ar      3 PHE5        0.0000 
     22 CZ        162.3500  135.9400  163.6500 C.ar      3 PHE5        0.0000 
     23 CZ        166.5600  135.4700  159.9700 C.ar      3 PHE5        0.0000 
     24 CA        163.7800  132.9900  161.9900 C.3       4 GLY6        0.0000 
     25 CA        164.4400  131.6900  163.5300 C.3       4 GLY6        0.0000 
     26 CA        164.1300  135.3100  160.8800 C.3       4 GLY6        0.0000 
     27 CA        164.7900  134.0100  162.4100 C.3       4 GLY6        0.0000 
     28 CA        163.7600  135.0900  162.3100 C.3       4 GLY6        0.0000 
     29 CA        165.5200  136.5500  159.8600 C.3       4 GLY6        0.0000 
     30 CA        165.1500  136.3300  161.3000 C.3       4 GLY6        0.0000 
     31 CA        164.1100  137.4100  161.2000 C.3       4 GLY6        0.0000 
     32 CA        164.7700  136.1000  162.7300 C.3       4 GLY6        0.0000 
     33 CA        163.7400  137.1800  162.6300 C.3       4 GLY6        0.0000 
     34 CA        164.4000  135.8800  164.1700 C.3       4 GLY6        0.0000 
     35 CA        163.3600  136.9600  164.0700 C.3       4 GLY6        0.0000 
     36 CA        162.9900  136.7400  165.5000 C.3       4 GLY6        0.0000 
     37 CA        167.5800  136.4900  160.3900 C.3       4 GLY6        0.0000 
     38 CA        166.5400  137.5700  160.2900 C.3       4 GLY6        0.0000 
     39 CA        167.2000  136.2700  161.8200 C.3       4 GLY6        0.0000 
     40 CA        166.1700  137.3400  161.7200 C.3       4 GLY6        0.0000 
     41 CA        165.7900  137.1200  163.1600 C.3       4 GLY6        0.0000 
     42 CA        165.4200  136.9000  164.5900 C.3       4 GLY6        0.0000 
     43 CA        165.0500  136.6700  166.0300 C.3       4 GLY6        0.0000 
     44 CA        168.5900  137.5100  160.8100 C.3       4 GLY6        0.0000 
     45 CA        168.2200  137.2800  162.2500 C.3       4 GLY6        0.0000 
     46 CA        167.8500  137.0600  163.6800 C.3       4 GLY6        0.0000 
     47 CA        167.4700  136.8400  165.1200 C.3       4 GLY6        0.0000 
     48 CA        167.1000  136.6100  166.5500 C.3       4 GLY6        0.0000 
     49 CA        166.0600  137.6900  166.4500 C.3       4 GLY6        0.0000 
     50 DU        167.5900  134.3900  160.0700 H         5 CUB7        0.0000 
     51 DU        166.1800  135.2500  161.4000 H         5 CUB7        0.0000 
@<TRIPOS>BOND
@<TRIPOS>SUBSTRUCTURE
     1 ALA2        1 GROUP   
     2 ASP3       10 GROUP   
     3 PHE5       18 GROUP   
     4 GLY6       24 GROUP   
     5 CUB7       50 GROUP   
@<TRIPOS>SET

