#    Name: 5ykg_11_GBM_CAVITY_N1_4
#    Modification time : Fri May 22 19:32:33 2020

@<TRIPOS>MOLECULE
5ykg_11_GBM_CAVITY_N1_4
   43     0     6     0     0
SMALL
NO_CHARGES


@<TRIPOS>ATOM
      1 OG        220.1000  128.8400  185.4000 O.3       1 SER1        0.0000 
      2 OG        219.7200  128.6200  186.8300 O.3       1 SER1        0.0000 
      3 OG        219.3500  128.4000  188.2700 O.3       1 SER1        0.0000 
      4 OG        218.3100  129.4800  188.1700 O.3       1 SER1        0.0000 
      5 OG        222.1500  128.7800  185.9200 O.3       1 SER1        0.0000 
      6 OG        221.7800  128.5600  187.3600 O.3       1 SER1        0.0000 
      7 OG        220.3700  129.4100  188.6900 O.3       1 SER1        0.0000 
      8 OG        220.0000  129.1900  190.1300 O.3       1 SER1        0.0000 
      9 OG        221.0100  130.2100  190.5500 O.3       1 SER1        0.0000 
     10 OG        222.4000  131.4500  189.5400 O.3       1 SER1        0.0000 
     11 OG        222.0300  131.2300  190.9700 O.3       1 SER1        0.0000 
     12 O         218.7300  125.5100  186.0900 O.2       2 ALA2        0.0000 
     13 O         220.7800  125.4400  186.6100 O.2       2 ALA2        0.0000 
     14 OD1       217.4000  128.1100  183.0100 O.co2     3 ASP3        0.0000 
     15 OD1       216.3600  129.1900  182.9100 O.co2     3 ASP3        0.0000 
     16 OD1       218.0600  126.8100  184.5500 O.co2     3 ASP3        0.0000 
     17 OD1       218.4200  129.1300  183.4400 O.co2     3 ASP3        0.0000 
     18 OD1       217.3800  130.2100  183.3400 O.co2     3 ASP3        0.0000 
     19 OD1       224.0900  131.1600  191.5000 O.co2     3 ASP3        0.0000 
     20 OD1       223.0500  132.2400  191.4000 O.co2     3 ASP3        0.0000 
     21 CZ        218.0400  128.9100  184.8700 C.ar      4 PHE5        0.0000 
     22 CZ        217.6700  128.6800  186.3100 C.ar      4 PHE5        0.0000 
     23 CZ        219.4300  130.1500  183.8600 C.ar      4 PHE5        0.0000 
     24 CZ        219.0600  129.9200  185.3000 C.ar      4 PHE5        0.0000 
     25 CZ        218.6900  129.7000  186.7300 C.ar      4 PHE5        0.0000 
     26 CA        221.8000  126.4600  187.0400 C.3       5 GLY6        0.0000 
     27 CA        221.4300  126.2400  188.4700 C.3       5 GLY6        0.0000 
     28 CA        222.8200  127.4800  187.4600 C.3       5 GLY6        0.0000 
     29 CA        222.4400  127.2600  188.8900 C.3       5 GLY6        0.0000 
     30 CA        221.4100  128.3400  188.7900 C.3       5 GLY6        0.0000 
     31 CA        221.0300  128.1100  190.2300 C.3       5 GLY6        0.0000 
     32 CA        222.8000  129.5800  187.7800 C.3       5 GLY6        0.0000 
     33 CA        222.4200  129.3500  189.2200 C.3       5 GLY6        0.0000 
     34 CA        222.0500  129.1300  190.6500 C.3       5 GLY6        0.0000 
     35 CA        223.4400  130.3700  189.6400 C.3       5 GLY6        0.0000 
     36 CA        224.1000  129.0700  191.1800 C.3       5 GLY6        0.0000 
     37 CA        223.0700  130.1500  191.0700 C.3       5 GLY6        0.0000 
     38 DU        219.0800  127.8300  184.9700 H         6 CUB7        0.0000 
     39 DU        219.7400  126.5200  186.5100 H         6 CUB7        0.0000 
     40 DU        218.7100  127.6000  186.4100 H         6 CUB7        0.0000 
     41 DU        221.1300  127.7700  185.5000 H         6 CUB7        0.0000 
     42 DU        220.7600  127.5400  186.9300 H         6 CUB7        0.0000 
     43 DU        220.3900  127.3200  188.3700 H         6 CUB7        0.0000 
@<TRIPOS>BOND
@<TRIPOS>SUBSTRUCTURE
     1 SER1        1 GROUP   
     2 ALA2       12 GROUP   
     3 ASP3       14 GROUP   
     4 PHE5       21 GROUP   
     5 GLY6       26 GROUP   
     6 CUB7       38 GROUP   
@<TRIPOS>SET

