#    Name: 5ykg_4_AGS
#    Modification time : Fri May 22 19:31:18 2020

@<TRIPOS>MOLECULE
5ykg_4_AGS
   31    33     1     0     0
SMALL
NO_CHARGES


@<TRIPOS>ATOM
      1 PG        156.8690  197.4000  160.4300 P.3       1 AGS401      0.0000 
      2 S1G       155.4320  198.8970  160.4340 S.2       1 AGS401      0.0000 
      3 O2G       158.3050  198.0280  160.8020 O.3       1 AGS401      0.0000 
      4 O3G       156.5060  196.3640  161.4240 O.3       1 AGS401      0.0000 
      5 PB        157.5100  197.5450  157.7060 P.3       1 AGS401      0.0000 
      6 O1B       156.3630  198.0520  156.8640 O.co2     1 AGS401      0.0000 
      7 O2B       158.3490  198.7010  158.1990 O.co2     1 AGS401      0.0000 
      8 O3B       156.9350  196.7280  158.9690 O.3       1 AGS401      0.0000 
      9 PA        159.6060  195.7370  157.5320 P.3       1 AGS401      0.0000 
     10 O1A       160.8130  195.6920  156.6280 O.co2     1 AGS401      0.0000 
     11 O2A       159.9470  196.4450  158.8210 O.co2     1 AGS401      0.0000 
     12 O3A       158.4160  196.5520  156.8200 O.3       1 AGS401      0.0000 
     13 O5'       159.1410  194.2360  157.8790 O.3       1 AGS401      0.0000 
     14 C5'       160.1010  193.3200  158.4000 C.3       1 AGS401      0.0000 
     15 C4'       159.5420  192.6090  159.6240 C.3       1 AGS401      0.0000 
     16 O4'       160.6250  192.2480  160.4850 O.3       1 AGS401      0.0000 
     17 C3'       158.6020  193.5020  160.4150 C.3       1 AGS401      0.0000 
     18 O3'       157.3350  192.8560  160.5560 O.3       1 AGS401      0.0000 
     19 C2'       159.2570  193.7000  161.7690 C.3       1 AGS401      0.0000 
     20 O2'       158.4800  193.0800  162.7960 O.3       1 AGS401      0.0000 
     21 C1'       160.6160  193.0280  161.6810 C.3       1 AGS401      0.0000 
     22 N9        161.6680  194.0730  161.6150 N.pl3     1 AGS401      0.0000 
     23 C8        161.5600  195.2410  160.9580 C.2       1 AGS401      0.0000 
     24 N7        162.6840  195.9870  161.0850 N.2       1 AGS401      0.0000 
     25 C5        163.5450  195.2860  161.8420 C.ar      1 AGS401      0.0000 
     26 C6        164.9170  195.4930  162.3610 C.ar      1 AGS401      0.0000 
     27 N6        165.6040  196.6280  162.0860 N.pl3     1 AGS401      0.0000 
     28 N1        165.4570  194.5120  163.1170 N.ar      1 AGS401      0.0000 
     29 C2        164.7820  193.3820  163.3960 C.ar      1 AGS401      0.0000 
     30 N3        163.5350  193.1270  162.9590 N.ar      1 AGS401      0.0000 
     31 C4        162.8720  194.0250  162.1900 C.ar      1 AGS401      0.0000 
@<TRIPOS>BOND
     1    1    2 2    
     2    1    3 1    
     3    1    4 1    
     4    1    8 1    
     5    5    6 ar   
     6    5    7 ar   
     7    5    8 1    
     8    5   12 1    
     9    9   10 ar   
    10    9   11 ar   
    11    9   12 1    
    12    9   13 1    
    13   13   14 1    
    14   14   15 1    
    15   15   16 1    
    16   15   17 1    
    17   16   21 1    
    18   17   18 1    
    19   17   19 1    
    20   19   20 1    
    21   19   21 1    
    22   21   22 1    
    23   22   23 1    
    24   22   31 1    
    25   23   24 2    
    26   24   25 1    
    27   25   26 ar   
    28   25   31 ar   
    29   26   27 1    
    30   26   28 ar   
    31   28   29 ar   
    32   29   30 ar   
    33   30   31 ar   
@<TRIPOS>SUBSTRUCTURE
     1 AGS401      1 GROUP   
@<TRIPOS>SET

