#    Name: 5ykg_3_AGS
#    Modification time : Fri May 22 19:31:10 2020

@<TRIPOS>MOLECULE
5ykg_3_AGS
   31    33     1     0     0
SMALL
NO_CHARGES


@<TRIPOS>ATOM
      1 PG        200.9510  238.4930  130.8470 P.3       1 AGS2002     0.0000 
      2 S1G       200.5960  237.6270  132.6990 S.2       1 AGS2002     0.0000 
      3 O2G       201.2930  237.3460  129.7690 O.3       1 AGS2002     0.0000 
      4 O3G       202.0970  239.4260  130.9410 O.3       1 AGS2002     0.0000 
      5 PB        199.6080  240.8880  130.2750 P.3       1 AGS2002     0.0000 
      6 O1B       200.7390  241.3250  129.3750 O.co2     1 AGS2002     0.0000 
      7 O2B       198.2840  241.3220  129.6920 O.co2     1 AGS2002     0.0000 
      8 O3B       199.6270  239.2810  130.3810 O.3       1 AGS2002     0.0000 
      9 PA        198.8440  241.1780  132.9730 P.3       1 AGS2002     0.0000 
     10 O1A       197.4070  241.1520  132.5080 O.co2     1 AGS2002     0.0000 
     11 O2A       199.2400  239.8200  133.5040 O.co2     1 AGS2002     0.0000 
     12 O3A       199.8020  241.5560  131.7320 O.3       1 AGS2002     0.0000 
     13 O5'       199.0110  242.2680  134.1510 O.3       1 AGS2002     0.0000 
     14 C5'       198.6540  243.6380  133.9510 C.3       1 AGS2002     0.0000 
     15 C4'       198.8880  244.4310  135.2320 C.3       1 AGS2002     0.0000 
     16 O4'       198.0730  243.9160  136.2880 O.3       1 AGS2002     0.0000 
     17 C3'       200.3340  244.3430  135.6910 C.3       1 AGS2002     0.0000 
     18 O3'       200.9610  245.6240  135.5870 O.3       1 AGS2002     0.0000 
     19 C2'       200.2840  243.9080  137.1420 C.3       1 AGS2002     0.0000 
     20 O2'       200.9420  244.8750  137.9640 O.3       1 AGS2002     0.0000 
     21 C1'       198.8120  243.8240  137.5080 C.3       1 AGS2002     0.0000 
     22 N9        198.5350  242.5120  138.1400 N.pl3     1 AGS2002     0.0000 
     23 C8        198.6020  241.3230  137.5140 C.2       1 AGS2002     0.0000 
     24 N7        198.2920  240.3060  138.3560 N.2       1 AGS2002     0.0000 
     25 C5        198.0120  240.8490  139.5550 C.ar      1 AGS2002     0.0000 
     26 C6        197.6110  240.3390  140.8870 C.ar      1 AGS2002     0.0000 
     27 N6        197.4410  239.0130  141.1050 N.pl3     1 AGS2002     0.0000 
     28 N1        197.4190  241.2410  141.8750 N.ar      1 AGS2002     0.0000 
     29 C2        197.5840  242.5610  141.6680 C.ar      1 AGS2002     0.0000 
     30 N3        197.9480  243.0920  140.4860 N.ar      1 AGS2002     0.0000 
     31 C4        198.1730  242.3030  139.4080 C.ar      1 AGS2002     0.0000 
@<TRIPOS>BOND
     1    1    2 2    
     2    1    3 1    
     3    1    4 1    
     4    1    8 1    
     5    5    6 ar   
     6    5    7 ar   
     7    5    8 1    
     8    5   12 1    
     9    9   10 ar   
    10    9   11 ar   
    11    9   12 1    
    12    9   13 1    
    13   13   14 1    
    14   14   15 1    
    15   15   16 1    
    16   15   17 1    
    17   16   21 1    
    18   17   18 1    
    19   17   19 1    
    20   19   20 1    
    21   19   21 1    
    22   21   22 1    
    23   22   23 1    
    24   22   31 1    
    25   23   24 2    
    26   24   25 1    
    27   25   26 ar   
    28   25   31 ar   
    29   26   27 1    
    30   26   28 ar   
    31   28   29 ar   
    32   29   30 ar   
    33   30   31 ar   
@<TRIPOS>SUBSTRUCTURE
     1 AGS2002     1 GROUP   
@<TRIPOS>SET

