#    Name: 5ykg_5_GBM_CAVITY_N1_6
#    Modification time : Fri May 22 19:31:35 2020

@<TRIPOS>MOLECULE
5ykg_5_GBM_CAVITY_N1_6
   83     0     7     0     0
SMALL
NO_CHARGES


@<TRIPOS>ATOM
      1 OG        110.2200  198.9800  169.3200 O.3       1 SER1        0.0000 
      2 OG        111.8200  196.9400  175.6800 O.3       1 SER1        0.0000 
      3 OG        111.4200  198.8200  177.4400 O.3       1 SER1        0.0000 
      4 OG        113.4800  198.7500  177.9700 O.3       1 SER1        0.0000 
      5 O         108.1500  201.1400  169.1100 O.2       2 ALA2        0.0000 
      6 O         107.7700  200.9100  170.5500 O.2       2 ALA2        0.0000 
      7 N         110.5100  197.4500  172.2900 N.am      2 ALA2        0.0000 
      8 O         107.4000  200.6900  171.9800 O.2       2 ALA2        0.0000 
      9 N         111.5300  198.4700  172.7100 N.am      2 ALA2        0.0000 
     10 O         109.0800  200.4000  173.9400 O.2       2 ALA2        0.0000 
     11 O         108.0400  201.4800  173.8400 O.2       2 ALA2        0.0000 
     12 O         108.7100  200.1800  175.3800 O.2       2 ALA2        0.0000 
     13 N         113.5800  198.4100  173.2400 N.am      2 ALA2        0.0000 
     14 O         114.2300  199.2000  175.0900 O.2       2 ALA2        0.0000 
     15 O         112.8200  200.0600  176.4300 O.2       2 ALA2        0.0000 
     16 O         114.2100  201.3000  175.4200 O.2       2 ALA2        0.0000 
     17 O         113.8300  201.0700  176.8500 O.2       2 ALA2        0.0000 
     18 O         112.8000  202.1500  176.7500 O.2       2 ALA2        0.0000 
     19 O         113.4600  200.8500  178.2900 O.2       2 ALA2        0.0000 
     20 O         113.8100  203.1700  177.1700 O.2       2 ALA2        0.0000 
     21 OD1       109.1800  200.0600  169.2100 O.co2     3 ASP3        0.0000 
     22 OD1       111.0500  198.5900  178.8800 O.co2     3 ASP3        0.0000 
     23 OD1       112.0700  199.6100  179.3000 O.co2     3 ASP3        0.0000 
     24 OD1       112.4200  201.9300  178.1900 O.co2     3 ASP3        0.0000 
     25 OD1       112.0500  201.7100  179.6200 O.co2     3 ASP3        0.0000 
     26 NZ        111.2400  200.0000  169.7400 N.4       4 LYS4        0.0000 
     27 NZ        110.2000  201.0700  169.6400 N.4       4 LYS4        0.0000 
     28 NZ        110.8600  199.7700  171.1700 N.4       4 LYS4        0.0000 
     29 NZ        111.8800  200.7900  171.6000 N.4       4 LYS4        0.0000 
     30 NZ        110.8400  201.8700  171.5000 N.4       4 LYS4        0.0000 
     31 NZ        112.2300  203.1100  170.4800 N.4       4 LYS4        0.0000 
     32 CZ        109.4900  196.4300  171.8600 C.ar      5 PHE5        0.0000 
     33 CZ        110.1400  197.2300  173.7200 C.ar      5 PHE5        0.0000 
     34 CZ        109.1000  198.3100  173.6200 C.ar      5 PHE5        0.0000 
     35 CZ        108.0600  199.3900  173.5200 C.ar      5 PHE5        0.0000 
     36 CZ        109.7600  197.0000  175.1600 C.ar      5 PHE5        0.0000 
     37 CZ        110.1200  199.3200  174.0500 C.ar      5 PHE5        0.0000 
     38 CZ        109.7400  199.1000  175.4800 C.ar      5 PHE5        0.0000 
     39 CZ        109.3700  198.8800  176.9200 C.ar      5 PHE5        0.0000 
     40 CZ        108.3300  199.9600  176.8100 C.ar      5 PHE5        0.0000 
     41 CA        108.8300  197.7400  170.3300 C.3       6 GLY6        0.0000 
     42 CA        107.7900  198.8200  170.2300 C.3       6 GLY6        0.0000 
     43 CA        110.8800  197.6700  170.8500 C.3       6 GLY6        0.0000 
     44 CA        109.8500  198.7500  170.7500 C.3       6 GLY6        0.0000 
     45 CA        108.8100  199.8300  170.6500 C.3       6 GLY6        0.0000 
     46 CA        109.4700  198.5300  172.1900 C.3       6 GLY6        0.0000 
     47 CA        108.4400  199.6100  172.0900 C.3       6 GLY6        0.0000 
     48 CA        111.1700  196.1500  173.8300 C.3       6 GLY6        0.0000 
     49 CA        109.3900  196.7800  176.5900 C.3       6 GLY6        0.0000 
     50 CA        107.9800  197.6400  177.9300 C.3       6 GLY6        0.0000 
     51 CA        112.2700  198.9200  169.8400 C.3       6 GLY6        0.0000 
     52 CA        111.9000  198.6900  171.2800 C.3       6 GLY6        0.0000 
     53 CA        112.1900  197.1700  174.2500 C.3       6 GLY6        0.0000 
     54 CA        110.4100  197.8000  177.0200 C.3       6 GLY6        0.0000 
     55 CA        110.0300  197.5700  178.4500 C.3       6 GLY6        0.0000 
     56 CA        109.0000  198.6500  178.3500 C.3       6 GLY6        0.0000 
     57 CA        112.9200  199.7100  171.7000 C.3       6 GLY6        0.0000 
     58 CA        112.5400  199.4900  173.1300 C.3       6 GLY6        0.0000 
     59 CA        113.2100  198.1800  174.6700 C.3       6 GLY6        0.0000 
     60 CA        112.8300  197.9600  176.1100 C.3       6 GLY6        0.0000 
     61 CA        112.9000  201.8100  172.0200 C.3       6 GLY6        0.0000 
     62 CA        113.5600  200.5000  173.5600 C.3       6 GLY6        0.0000 
     63 CA        112.5200  201.5800  173.4600 C.3       6 GLY6        0.0000 
     64 CA        113.1900  200.2800  174.9900 C.3       6 GLY6        0.0000 
     65 CA        113.8500  198.9800  176.5300 C.3       6 GLY6        0.0000 
     66 CA        112.4000  204.0300  178.5100 C.3       6 GLY6        0.0000 
     67 DU        109.8300  200.8500  171.0700 H         7 CUB7        0.0000 
     68 DU        110.4900  199.5500  172.6100 H         7 CUB7        0.0000 
     69 DU        109.4500  200.6300  172.5100 H         7 CUB7        0.0000 
     70 DU        111.1500  198.2500  174.1500 H         7 CUB7        0.0000 
     71 DU        110.7800  198.0200  175.5800 H         7 CUB7        0.0000 
     72 DU        111.5100  200.5700  173.0300 H         7 CUB7        0.0000 
     73 DU        112.1700  199.2600  174.5700 H         7 CUB7        0.0000 
     74 DU        110.1000  201.4200  174.3700 H         7 CUB7        0.0000 
     75 DU        111.8000  199.0400  176.0100 H         7 CUB7        0.0000 
     76 DU        110.7600  200.1200  175.9000 H         7 CUB7        0.0000 
     77 DU        109.7200  201.2000  175.8000 H         7 CUB7        0.0000 
     78 DU        110.0100  199.6700  178.7700 H         7 CUB7        0.0000 
     79 DU        112.1500  201.3600  174.8900 H         7 CUB7        0.0000 
     80 DU        111.7800  201.1400  176.3300 H         7 CUB7        0.0000 
     81 DU        112.4400  199.8300  177.8600 H         7 CUB7        0.0000 
     82 DU        111.4000  200.9100  177.7600 H         7 CUB7        0.0000 
     83 DU        113.1700  202.3800  175.3100 H         7 CUB7        0.0000 
@<TRIPOS>BOND
@<TRIPOS>SUBSTRUCTURE
     1 SER1        1 GROUP   
     2 ALA2        5 GROUP   
     3 ASP3       21 GROUP   
     4 LYS4       26 GROUP   
     5 PHE5       32 GROUP   
     6 GLY6       41 GROUP   
     7 CUB7       67 GROUP   
@<TRIPOS>SET

