#    Name: 5ykg_7_AGS
#    Modification time : Fri May 22 19:31:51 2020

@<TRIPOS>MOLECULE
5ykg_7_AGS
   31    33     1     0     0
SMALL
NO_CHARGES


@<TRIPOS>ATOM
      1 PG        131.7600  156.8690  160.4300 P.3       1 AGS401      0.0000 
      2 S1G       130.2630  155.4320  160.4340 S.2       1 AGS401      0.0000 
      3 O2G       131.1320  158.3050  160.8020 O.3       1 AGS401      0.0000 
      4 O3G       132.7960  156.5060  161.4240 O.3       1 AGS401      0.0000 
      5 PB        131.6150  157.5100  157.7060 P.3       1 AGS401      0.0000 
      6 O1B       131.1080  156.3630  156.8640 O.co2     1 AGS401      0.0000 
      7 O2B       130.4590  158.3490  158.1990 O.co2     1 AGS401      0.0000 
      8 O3B       132.4320  156.9350  158.9690 O.3       1 AGS401      0.0000 
      9 PA        133.4230  159.6060  157.5320 P.3       1 AGS401      0.0000 
     10 O1A       133.4680  160.8130  156.6280 O.co2     1 AGS401      0.0000 
     11 O2A       132.7150  159.9470  158.8210 O.co2     1 AGS401      0.0000 
     12 O3A       132.6080  158.4160  156.8200 O.3       1 AGS401      0.0000 
     13 O5'       134.9240  159.1410  157.8790 O.3       1 AGS401      0.0000 
     14 C5'       135.8400  160.1010  158.4000 C.3       1 AGS401      0.0000 
     15 C4'       136.5510  159.5420  159.6240 C.3       1 AGS401      0.0000 
     16 O4'       136.9120  160.6250  160.4850 O.3       1 AGS401      0.0000 
     17 C3'       135.6580  158.6020  160.4150 C.3       1 AGS401      0.0000 
     18 O3'       136.3040  157.3350  160.5560 O.3       1 AGS401      0.0000 
     19 C2'       135.4600  159.2570  161.7690 C.3       1 AGS401      0.0000 
     20 O2'       136.0800  158.4800  162.7960 O.3       1 AGS401      0.0000 
     21 C1'       136.1320  160.6160  161.6810 C.3       1 AGS401      0.0000 
     22 N9        135.0870  161.6680  161.6150 N.pl3     1 AGS401      0.0000 
     23 C8        133.9190  161.5600  160.9580 C.2       1 AGS401      0.0000 
     24 N7        133.1730  162.6840  161.0850 N.2       1 AGS401      0.0000 
     25 C5        133.8740  163.5450  161.8420 C.ar      1 AGS401      0.0000 
     26 C6        133.6670  164.9170  162.3610 C.ar      1 AGS401      0.0000 
     27 N6        132.5320  165.6040  162.0860 N.pl3     1 AGS401      0.0000 
     28 N1        134.6480  165.4570  163.1170 N.ar      1 AGS401      0.0000 
     29 C2        135.7780  164.7820  163.3960 C.ar      1 AGS401      0.0000 
     30 N3        136.0330  163.5350  162.9590 N.ar      1 AGS401      0.0000 
     31 C4        135.1350  162.8720  162.1900 C.ar      1 AGS401      0.0000 
@<TRIPOS>BOND
     1    1    2 2    
     2    1    3 1    
     3    1    4 1    
     4    1    8 1    
     5    5    6 ar   
     6    5    7 ar   
     7    5    8 1    
     8    5   12 1    
     9    9   10 ar   
    10    9   11 ar   
    11    9   12 1    
    12    9   13 1    
    13   13   14 1    
    14   14   15 1    
    15   15   16 1    
    16   15   17 1    
    17   16   21 1    
    18   17   18 1    
    19   17   19 1    
    20   19   20 1    
    21   19   21 1    
    22   21   22 1    
    23   22   23 1    
    24   22   31 1    
    25   23   24 2    
    26   24   25 1    
    27   25   26 ar   
    28   25   31 ar   
    29   26   27 1    
    30   26   28 ar   
    31   28   29 ar   
    32   29   30 ar   
    33   30   31 ar   
@<TRIPOS>SUBSTRUCTURE
     1 AGS401      1 GROUP   
@<TRIPOS>SET

