#    Name: 5ykg_12_AGS_CAVITY_N1_4
#    Modification time : Fri May 22 19:32:43 2020

@<TRIPOS>MOLECULE
5ykg_12_AGS_CAVITY_N1_4
   27     0     6     0     0
SMALL
NO_CHARGES


@<TRIPOS>ATOM
      1 OG        240.7800  131.4400  134.7500 O.3       1 SER1        0.0000 
      2 OG        239.7400  132.5200  134.6500 O.3       1 SER1        0.0000 
      3 N         236.3100  129.2400  134.8200 N.am      2 ALA2        0.0000 
      4 N         235.9400  129.0200  136.2500 N.am      2 ALA2        0.0000 
      5 NZ        235.2800  130.3200  134.7200 N.4       3 LYS4        0.0000 
      6 CZ        239.3700  132.3000  136.0900 C.ar      4 PHE5        0.0000 
      7 CZ        238.6200  131.8500  138.9600 C.ar      4 PHE5        0.0000 
      8 CZ        237.5800  132.9300  138.8600 C.ar      4 PHE5        0.0000 
      9 CZ        241.4200  132.2300  136.6100 C.ar      4 PHE5        0.0000 
     10 CZ        238.2300  133.7200  140.7100 C.ar      4 PHE5        0.0000 
     11 CA        237.3300  130.2600  135.2400 C.3       5 GLY6        0.0000 
     12 CA        236.3000  131.3400  135.1400 C.3       5 GLY6        0.0000 
     13 CA        238.7200  131.5000  134.2300 C.3       5 GLY6        0.0000 
     14 CA        238.3500  131.2800  135.6600 C.3       5 GLY6        0.0000 
     15 CA        236.9400  132.1300  137.0000 C.3       5 GLY6        0.0000 
     16 CA        236.5700  131.9100  138.4300 C.3       5 GLY6        0.0000 
     17 CA        236.1900  131.6900  139.8700 C.3       5 GLY6        0.0000 
     18 CA        235.8200  131.4600  141.3000 C.3       5 GLY6        0.0000 
     19 CA        235.4500  131.2400  142.7400 C.3       5 GLY6        0.0000 
     20 CA        238.3300  133.3700  135.9900 C.3       5 GLY6        0.0000 
     21 CA        237.9600  133.1500  137.4200 C.3       5 GLY6        0.0000 
     22 CA        237.2100  132.7000  140.2900 C.3       5 GLY6        0.0000 
     23 CA        236.1700  133.7800  140.1900 C.3       5 GLY6        0.0000 
     24 CA        237.5000  131.1800  143.2600 C.3       5 GLY6        0.0000 
     25 DU        236.9600  130.0400  136.6800 H         6 CUB7        0.0000 
     26 DU        237.9800  131.0500  137.1000 H         6 CUB7        0.0000 
     27 DU        237.6000  130.8300  138.5300 H         6 CUB7        0.0000 
@<TRIPOS>BOND
@<TRIPOS>SUBSTRUCTURE
     1 SER1        1 GROUP   
     2 ALA2        3 GROUP   
     3 LYS4        5 GROUP   
     4 PHE5        6 GROUP   
     5 GLY6       11 GROUP   
     6 CUB7       25 GROUP   
@<TRIPOS>SET

