#    Name: 5ykg_2_GBM_CAVITY_N1_4
#    Modification time : Fri May 22 19:31:02 2020

@<TRIPOS>MOLECULE
5ykg_2_GBM_CAVITY_N1_4
   38     0     6     0     0
SMALL
NO_CHARGES


@<TRIPOS>ATOM
      1 OG        200.6100  218.6400  186.4800 O.3       1 SER1        0.0000 
      2 OG        199.5700  219.7200  186.3800 O.3       1 SER1        0.0000 
      3 OG        200.2300  218.4200  187.9200 O.3       1 SER1        0.0000 
      4 OG        198.8200  219.2700  189.2500 O.3       1 SER1        0.0000 
      5 OG        200.5900  220.7400  186.8100 O.3       1 SER1        0.0000 
      6 OG        200.2200  220.5100  188.2400 O.3       1 SER1        0.0000 
      7 OG        199.8400  220.2900  189.6800 O.3       1 SER1        0.0000 
      8 OG        198.8000  221.3700  189.5800 O.3       1 SER1        0.0000 
      9 OG        197.7700  222.4500  189.4700 O.3       1 SER1        0.0000 
     10 O         202.6600  218.5800  187.0100 O.2       2 ALA2        0.0000 
     11 O         203.6800  219.6000  187.4300 O.2       2 ALA2        0.0000 
     12 OD1       198.9500  216.8300  184.2000 O.co2     3 ASP3        0.0000 
     13 OD1       201.3700  216.9900  183.2900 O.co2     3 ASP3        0.0000 
     14 OD1       200.3400  218.0700  183.1900 O.co2     3 ASP3        0.0000 
     15 OD1       202.7600  218.2300  182.2800 O.co2     3 ASP3        0.0000 
     16 OD1       202.3900  218.0100  183.7200 O.co2     3 ASP3        0.0000 
     17 OD1       198.7900  223.4600  189.9000 O.co2     3 ASP3        0.0000 
     18 CZ        199.9600  217.8500  184.6300 C.ar      4 PHE5        0.0000 
     19 CZ        198.9300  218.9200  184.5200 C.ar      4 PHE5        0.0000 
     20 CZ        199.5900  217.6200  186.0600 C.ar      4 PHE5        0.0000 
     21 CA        198.4300  221.1400  191.0100 C.3       5 GLY6        0.0000 
     22 CA        202.2700  220.4500  188.7700 C.3       5 GLY6        0.0000 
     23 CA        201.2300  221.5300  188.6700 C.3       5 GLY6        0.0000 
     24 CA        200.2000  222.6100  188.5600 C.3       5 GLY6        0.0000 
     25 CA        200.8600  221.3100  190.1000 C.3       5 GLY6        0.0000 
     26 CA        199.8200  222.3900  190.0000 C.3       5 GLY6        0.0000 
     27 CA        199.4500  222.1600  191.4300 C.3       5 GLY6        0.0000 
     28 CA        202.6200  222.7700  187.6500 C.3       5 GLY6        0.0000 
     29 CA        202.2500  222.5500  189.0900 C.3       5 GLY6        0.0000 
     30 DU        201.3500  219.0900  183.6100 H         6 CUB7        0.0000 
     31 DU        202.0200  217.7800  185.1500 H         6 CUB7        0.0000 
     32 DU        200.9800  218.8600  185.0500 H         6 CUB7        0.0000 
     33 DU        203.4100  219.0300  184.1400 H         6 CUB7        0.0000 
     34 DU        203.0400  218.8000  185.5700 H         6 CUB7        0.0000 
     35 DU        201.6300  219.6600  186.9100 H         6 CUB7        0.0000 
     36 DU        201.2500  219.4300  188.3400 H         6 CUB7        0.0000 
     37 DU        202.6400  220.6700  187.3300 H         6 CUB7        0.0000 
     38 DU        203.6600  221.6900  187.7500 H         6 CUB7        0.0000 
@<TRIPOS>BOND
@<TRIPOS>SUBSTRUCTURE
     1 SER1        1 GROUP   
     2 ALA2       10 GROUP   
     3 ASP3       12 GROUP   
     4 PHE5       18 GROUP   
     5 GLY6       21 GROUP   
     6 CUB7       30 GROUP   
@<TRIPOS>SET

