#    Name: 5ykg_3_AGS_CAVITY_N1_8
#    Modification time : Fri May 22 19:31:11 2020

@<TRIPOS>MOLECULE
5ykg_3_AGS_CAVITY_N1_8
   66     0     6     0     0
SMALL
NO_CHARGES


@<TRIPOS>ATOM
      1 OG        197.4500  233.8200  136.3000 O.3       1 SER1        0.0000 
      2 OG        197.0800  233.6000  137.7400 O.3       1 SER1        0.0000 
      3 OG        197.7400  232.3000  139.2800 O.3       1 SER1        0.0000 
      4 OG        196.7100  233.3700  139.1800 O.3       1 SER1        0.0000 
      5 OG        199.2200  235.2900  133.8600 O.3       1 SER1        0.0000 
      6 OG        199.5100  233.7600  136.8300 O.3       1 SER1        0.0000 
      7 OG        198.4700  234.8400  136.7300 O.3       1 SER1        0.0000 
      8 OG        200.1700  232.4600  138.3700 O.3       1 SER1        0.0000 
      9 OG        199.1300  233.5400  138.2600 O.3       1 SER1        0.0000 
     10 OG        198.1000  234.6200  138.1600 O.3       1 SER1        0.0000 
     11 OG        199.8000  232.2300  139.8000 O.3       1 SER1        0.0000 
     12 OG        198.7600  233.3100  139.7000 O.3       1 SER1        0.0000 
     13 N         199.4200  232.0100  141.2400 N.am      2 ALA2        0.0000 
     14 N         198.3900  233.0900  141.1400 N.am      2 ALA2        0.0000 
     15 N         198.0100  232.8700  142.5700 N.am      2 ALA2        0.0000 
     16 N         200.9000  235.0000  135.8200 N.am      2 ALA2        0.0000 
     17 N         199.8600  236.0800  135.7200 N.am      2 ALA2        0.0000 
     18 N         200.0700  232.8000  143.1000 N.am      2 ALA2        0.0000 
     19 N         199.0300  233.8800  142.9900 N.am      2 ALA2        0.0000 
     20 N         199.6900  232.5800  144.5300 N.am      2 ALA2        0.0000 
     21 N         198.6600  233.6600  144.4300 N.am      2 ALA2        0.0000 
     22 NZ        197.8300  234.0500  134.8700 N.4       3 LYS4        0.0000 
     23 NZ        196.7900  235.1200  134.7700 N.4       3 LYS4        0.0000 
     24 NZ        200.7100  233.6000  144.9500 N.4       3 LYS4        0.0000 
     25 CZ        197.4100  238.0200  136.9500 C.ar      4 PHE5        0.0000 
     26 CZ        197.0400  237.7900  138.3800 C.ar      4 PHE5        0.0000 
     27 CA        196.4200  234.9000  136.2000 C.3       5 GLY6        0.0000 
     28 CA        196.0400  234.6800  137.6400 C.3       5 GLY6        0.0000 
     29 CA        195.6700  234.4500  139.0700 C.3       5 GLY6        0.0000 
     30 CA        199.8800  233.9800  135.3900 C.3       5 GLY6        0.0000 
     31 CA        198.8400  235.0600  135.2900 C.3       5 GLY6        0.0000 
     32 CA        197.8100  236.1400  135.1900 C.3       5 GLY6        0.0000 
     33 CA        196.7700  237.2200  135.0900 C.3       5 GLY6        0.0000 
     34 CA        197.4300  235.9200  136.6300 C.3       5 GLY6        0.0000 
     35 CA        196.4000  237.0000  136.5200 C.3       5 GLY6        0.0000 
     36 CA        197.0600  235.6900  138.0600 C.3       5 GLY6        0.0000 
     37 CA        197.7200  234.3900  139.6000 C.3       5 GLY6        0.0000 
     38 CA        196.6900  235.4700  139.5000 C.3       5 GLY6        0.0000 
     39 CA        195.6500  236.5500  139.4000 C.3       5 GLY6        0.0000 
     40 CA        197.3500  234.1700  141.0300 C.3       5 GLY6        0.0000 
     41 CA        196.3100  235.2500  140.9300 C.3       5 GLY6        0.0000 
     42 CA        196.9800  233.9400  142.4700 C.3       5 GLY6        0.0000 
     43 CA        199.2000  237.3800  134.1800 C.3       5 GLY6        0.0000 
     44 CA        198.8200  237.1600  135.6100 C.3       5 GLY6        0.0000 
     45 CA        197.7900  238.2400  135.5100 C.3       5 GLY6        0.0000 
     46 CA        201.5600  233.7000  137.3500 C.3       5 GLY6        0.0000 
     47 CA        200.8100  233.2500  140.2300 C.3       5 GLY6        0.0000 
     48 CA        197.7000  236.4900  139.9200 C.3       5 GLY6        0.0000 
     49 CA        196.6700  237.5700  139.8200 C.3       5 GLY6        0.0000 
     50 CA        200.4400  233.0300  141.6600 C.3       5 GLY6        0.0000 
     51 CA        198.3700  235.1900  141.4600 C.3       5 GLY6        0.0000 
     52 CA        197.9900  234.9600  142.8900 C.3       5 GLY6        0.0000 
     53 CA        197.6200  234.7400  144.3300 C.3       5 GLY6        0.0000 
     54 CA        199.0100  235.9800  143.3200 C.3       5 GLY6        0.0000 
     55 DU        200.5200  234.7800  137.2500 H         6 CUB7        0.0000 
     56 DU        199.4900  235.8600  137.1500 H         6 CUB7        0.0000 
     57 DU        198.4500  236.9400  137.0500 H         6 CUB7        0.0000 
     58 DU        200.1500  234.5500  138.6900 H         6 CUB7        0.0000 
     59 DU        199.1100  235.6300  138.5900 H         6 CUB7        0.0000 
     60 DU        198.0800  236.7100  138.4900 H         6 CUB7        0.0000 
     61 DU        199.7800  234.3300  140.1200 H         6 CUB7        0.0000 
     62 DU        198.7400  235.4100  140.0200 H         6 CUB7        0.0000 
     63 DU        199.4000  234.1100  141.5600 H         6 CUB7        0.0000 
     64 DU        200.4200  235.1200  141.9800 H         6 CUB7        0.0000 
     65 DU        200.0500  234.9000  143.4200 H         6 CUB7        0.0000 
     66 DU        199.6800  234.6800  144.8500 H         6 CUB7        0.0000 
@<TRIPOS>BOND
@<TRIPOS>SUBSTRUCTURE
     1 SER1        1 GROUP   
     2 ALA2       13 GROUP   
     3 LYS4       22 GROUP   
     4 PHE5       25 GROUP   
     5 GLY6       27 GROUP   
     6 CUB7       55 GROUP   
@<TRIPOS>SET

