#    Name: 5ykg_6_AGS
#    Modification time : Fri May 22 19:31:44 2020

@<TRIPOS>MOLECULE
5ykg_6_AGS
   31    33     1     0     0
SMALL
NO_CHARGES


@<TRIPOS>ATOM
      1 PG         90.6670  200.9510  130.8470 P.3       1 AGS2002     0.0000 
      2 S1G        91.5330  200.5960  132.6990 S.2       1 AGS2002     0.0000 
      3 O2G        91.8140  201.2930  129.7690 O.3       1 AGS2002     0.0000 
      4 O3G        89.7340  202.0970  130.9410 O.3       1 AGS2002     0.0000 
      5 PB         88.2720  199.6080  130.2750 P.3       1 AGS2002     0.0000 
      6 O1B        87.8350  200.7390  129.3750 O.co2     1 AGS2002     0.0000 
      7 O2B        87.8380  198.2840  129.6920 O.co2     1 AGS2002     0.0000 
      8 O3B        89.8790  199.6270  130.3810 O.3       1 AGS2002     0.0000 
      9 PA         87.9820  198.8440  132.9730 P.3       1 AGS2002     0.0000 
     10 O1A        88.0080  197.4070  132.5080 O.co2     1 AGS2002     0.0000 
     11 O2A        89.3400  199.2400  133.5040 O.co2     1 AGS2002     0.0000 
     12 O3A        87.6040  199.8020  131.7320 O.3       1 AGS2002     0.0000 
     13 O5'        86.8920  199.0110  134.1510 O.3       1 AGS2002     0.0000 
     14 C5'        85.5220  198.6540  133.9510 C.3       1 AGS2002     0.0000 
     15 C4'        84.7290  198.8880  135.2320 C.3       1 AGS2002     0.0000 
     16 O4'        85.2440  198.0730  136.2880 O.3       1 AGS2002     0.0000 
     17 C3'        84.8170  200.3340  135.6910 C.3       1 AGS2002     0.0000 
     18 O3'        83.5360  200.9610  135.5870 O.3       1 AGS2002     0.0000 
     19 C2'        85.2520  200.2840  137.1420 C.3       1 AGS2002     0.0000 
     20 O2'        84.2850  200.9420  137.9640 O.3       1 AGS2002     0.0000 
     21 C1'        85.3360  198.8120  137.5080 C.3       1 AGS2002     0.0000 
     22 N9         86.6480  198.5350  138.1400 N.pl3     1 AGS2002     0.0000 
     23 C8         87.8370  198.6020  137.5140 C.2       1 AGS2002     0.0000 
     24 N7         88.8540  198.2920  138.3560 N.2       1 AGS2002     0.0000 
     25 C5         88.3110  198.0120  139.5550 C.ar      1 AGS2002     0.0000 
     26 C6         88.8210  197.6110  140.8870 C.ar      1 AGS2002     0.0000 
     27 N6         90.1470  197.4410  141.1050 N.pl3     1 AGS2002     0.0000 
     28 N1         87.9190  197.4190  141.8750 N.ar      1 AGS2002     0.0000 
     29 C2         86.5990  197.5840  141.6680 C.ar      1 AGS2002     0.0000 
     30 N3         86.0680  197.9480  140.4860 N.ar      1 AGS2002     0.0000 
     31 C4         86.8570  198.1730  139.4080 C.ar      1 AGS2002     0.0000 
@<TRIPOS>BOND
     1    1    2 2    
     2    1    3 1    
     3    1    4 1    
     4    1    8 1    
     5    5    6 ar   
     6    5    7 ar   
     7    5    8 1    
     8    5   12 1    
     9    9   10 ar   
    10    9   11 ar   
    11    9   12 1    
    12    9   13 1    
    13   13   14 1    
    14   14   15 1    
    15   15   16 1    
    16   15   17 1    
    17   16   21 1    
    18   17   18 1    
    19   17   19 1    
    20   19   20 1    
    21   19   21 1    
    22   21   22 1    
    23   22   23 1    
    24   22   31 1    
    25   23   24 2    
    26   24   25 1    
    27   25   26 ar   
    28   25   31 ar   
    29   26   27 1    
    30   26   28 ar   
    31   28   29 ar   
    32   29   30 ar   
    33   30   31 ar   
@<TRIPOS>SUBSTRUCTURE
     1 AGS2002     1 GROUP   
@<TRIPOS>SET

