#    Name: 5ykg_12_AGS_CAVITY_N1_8
#    Modification time : Fri May 22 19:32:43 2020

@<TRIPOS>MOLECULE
5ykg_12_AGS_CAVITY_N1_8
   66     0     6     0     0
SMALL
NO_CHARGES


@<TRIPOS>ATOM
      1 OG        233.5100  128.8600  137.1600 O.3       1 SER1        0.0000 
      2 OG        231.7300  129.4900  139.9300 O.3       1 SER1        0.0000 
      3 OG        234.9000  130.1000  136.1500 O.3       1 SER1        0.0000 
      4 OG        233.8700  131.1800  136.0500 O.3       1 SER1        0.0000 
      5 OG        234.5300  129.8700  137.5900 O.3       1 SER1        0.0000 
      6 OG        234.1600  129.6500  139.0200 O.3       1 SER1        0.0000 
      7 OG        232.7500  130.5100  140.3600 O.3       1 SER1        0.0000 
      8 OG        234.1400  131.7500  139.3400 O.3       1 SER1        0.0000 
      9 OG        232.3500  132.3800  142.1100 O.3       1 SER1        0.0000 
     10 OG        240.7800  131.4400  134.7500 O.3       1 SER1        0.0000 
     11 OG        239.7400  132.5200  134.6500 O.3       1 SER1        0.0000 
     12 N         234.9200  128.0000  135.8300 N.am      2 ALA2        0.0000 
     13 N         236.3100  129.2400  134.8200 N.am      2 ALA2        0.0000 
     14 N         235.9400  129.0200  136.2500 N.am      2 ALA2        0.0000 
     15 N         233.4100  129.2000  141.8900 N.am      2 ALA2        0.0000 
     16 N         232.3700  130.2800  141.7900 N.am      2 ALA2        0.0000 
     17 N         233.0400  128.9800  143.3300 N.am      2 ALA2        0.0000 
     18 N         233.3900  131.3000  142.2100 N.am      2 ALA2        0.0000 
     19 N         234.0600  130.0000  143.7500 N.am      2 ALA2        0.0000 
     20 N         233.0200  131.0800  143.6500 N.am      2 ALA2        0.0000 
     21 N         236.1100  129.9400  144.2800 N.am      2 ALA2        0.0000 
     22 NZ        235.2800  130.3200  134.7200 N.4       3 LYS4        0.0000 
     23 CZ        239.3700  132.3000  136.0900 C.ar      4 PHE5        0.0000 
     24 CZ        238.6200  131.8500  138.9600 C.ar      4 PHE5        0.0000 
     25 CZ        237.5800  132.9300  138.8600 C.ar      4 PHE5        0.0000 
     26 CZ        241.4200  132.2300  136.6100 C.ar      4 PHE5        0.0000 
     27 CZ        238.2300  133.7200  140.7100 C.ar      4 PHE5        0.0000 
     28 CA        233.5300  126.7600  136.8400 C.3       5 GLY6        0.0000 
     29 CA        233.8900  129.0800  135.7300 C.3       5 GLY6        0.0000 
     30 CA        234.5500  127.7800  137.2600 C.3       5 GLY6        0.0000 
     31 CA        232.7700  128.4100  140.0300 C.3       5 GLY6        0.0000 
     32 CA        232.3900  128.1900  141.4700 C.3       5 GLY6        0.0000 
     33 CA        237.3300  130.2600  135.2400 C.3       5 GLY6        0.0000 
     34 CA        236.3000  131.3400  135.1400 C.3       5 GLY6        0.0000 
     35 CA        234.8900  132.2000  136.4700 C.3       5 GLY6        0.0000 
     36 CA        234.5100  131.9700  137.9100 C.3       5 GLY6        0.0000 
     37 CA        233.7700  131.5200  140.7800 C.3       5 GLY6        0.0000 
     38 CA        238.7200  131.5000  134.2300 C.3       5 GLY6        0.0000 
     39 CA        238.3500  131.2800  135.6600 C.3       5 GLY6        0.0000 
     40 CA        237.3100  132.3600  135.5600 C.3       5 GLY6        0.0000 
     41 CA        236.9400  132.1300  137.0000 C.3       5 GLY6        0.0000 
     42 CA        236.5700  131.9100  138.4300 C.3       5 GLY6        0.0000 
     43 CA        235.5300  132.9900  138.3300 C.3       5 GLY6        0.0000 
     44 CA        236.1900  131.6900  139.8700 C.3       5 GLY6        0.0000 
     45 CA        235.1600  132.7700  139.7700 C.3       5 GLY6        0.0000 
     46 CA        235.8200  131.4600  141.3000 C.3       5 GLY6        0.0000 
     47 CA        234.7800  132.5400  141.2000 C.3       5 GLY6        0.0000 
     48 CA        235.4500  131.2400  142.7400 C.3       5 GLY6        0.0000 
     49 CA        234.4100  132.3200  142.6400 C.3       5 GLY6        0.0000 
     50 CA        235.0700  131.0200  144.1700 C.3       5 GLY6        0.0000 
     51 CA        234.0400  132.0900  144.0700 C.3       5 GLY6        0.0000 
     52 CA        238.3300  133.3700  135.9900 C.3       5 GLY6        0.0000 
     53 CA        237.9600  133.1500  137.4200 C.3       5 GLY6        0.0000 
     54 CA        237.2100  132.7000  140.2900 C.3       5 GLY6        0.0000 
     55 CA        236.1700  133.7800  140.1900 C.3       5 GLY6        0.0000 
     56 CA        237.5000  131.1800  143.2600 C.3       5 GLY6        0.0000 
     57 DU        235.5700  128.8000  137.6900 H         6 CUB7        0.0000 
     58 DU        233.7800  129.4300  140.4600 H         6 CUB7        0.0000 
     59 DU        236.9600  130.0400  136.6800 H         6 CUB7        0.0000 
     60 DU        235.9200  131.1200  136.5700 H         6 CUB7        0.0000 
     61 DU        235.5500  130.8900  138.0100 H         6 CUB7        0.0000 
     62 DU        235.1800  130.6700  139.4500 H         6 CUB7        0.0000 
     63 DU        234.8000  130.4500  140.8800 H         6 CUB7        0.0000 
     64 DU        234.4300  130.2200  142.3200 H         6 CUB7        0.0000 
     65 DU        237.9800  131.0500  137.1000 H         6 CUB7        0.0000 
     66 DU        237.6000  130.8300  138.5300 H         6 CUB7        0.0000 
@<TRIPOS>BOND
@<TRIPOS>SUBSTRUCTURE
     1 SER1        1 GROUP   
     2 ALA2       12 GROUP   
     3 LYS4       22 GROUP   
     4 PHE5       23 GROUP   
     5 GLY6       28 GROUP   
     6 CUB7       57 GROUP   
@<TRIPOS>SET

