#    Name: 5ykg_8_GBM
#    Modification time : Fri May 22 19:32:08 2020

@<TRIPOS>MOLECULE
5ykg_8_GBM
   33    35     1     0     0
SMALL
NO_CHARGES


@<TRIPOS>ATOM
      1 O3        131.1140  112.6730  178.4610           1 GBM2001     0.0000 
      2 O4        129.3620  111.8890  180.4540           1 GBM2001     0.0000 
      3 O5        127.6860  110.5060  179.6300           1 GBM2001     0.0000 
      4 O6        129.7180  107.0030  182.7000           1 GBM2001     0.0000 
      5 CL1       132.0930  104.4260  187.9680           1 GBM2001     0.0000 
      6 S2        129.0710  110.8700  179.4800           1 GBM2001     0.0000 
      7 O7        128.5020  108.0720  184.8790           1 GBM2001     0.0000 
      8 N8        130.5790  112.4220  176.3410           1 GBM2001     0.0000 
      9 N9        129.3220  111.4150  177.9810           1 GBM2001     0.0000 
     10 N10       131.4540  105.5990  182.8580           1 GBM2001     0.0000 
     11 C11       129.8910  111.7300  175.2750           1 GBM2001     0.0000 
     12 C12       130.6080  110.4140  175.0140           1 GBM2001     0.0000 
     13 C13       129.9500  112.6080  174.0340           1 GBM2001     0.0000 
     14 C14       130.0490  109.7060  173.7900           1 GBM2001     0.0000 
     15 C15       129.4220  111.8960  172.7960           1 GBM2001     0.0000 
     16 C16       130.1790  110.5980  172.5640           1 GBM2001     0.0000 
     17 C17       130.3620  112.1840  177.6320           1 GBM2001     0.0000 
     18 C18       129.9790  109.5830  179.7800           1 GBM2001     0.0000 
     19 C19       131.5670  107.3660  180.3300           1 GBM2001     0.0000 
     20 C20       132.4300  106.1720  180.6560           1 GBM2001     0.0000 
     21 C21       129.8270  108.4110  179.0430           1 GBM2001     0.0000 
     22 C22       130.9250  109.6360  180.7980           1 GBM2001     0.0000 
     23 C23       130.6190  107.3010  179.3170           1 GBM2001     0.0000 
     24 C24       131.7160  108.5310  181.0720           1 GBM2001     0.0000 
     25 C25       132.6160  106.1360  182.1700           1 GBM2001     0.0000 
     26 C26       130.4870  106.3530  183.3860           1 GBM2001     0.0000 
     27 C27       130.3300  106.3630  184.8760           1 GBM2001     0.0000 
     28 C28       129.3350  107.2290  185.5680           1 GBM2001     0.0000 
     29 C29       131.1410  105.5320  185.6340           1 GBM2001     0.0000 
     30 C30       129.2540  107.1720  186.9530           1 GBM2001     0.0000 
     31 C31       131.0240  105.5120  187.0180           1 GBM2001     0.0000 
     32 C32       130.0940  106.3220  187.6670           1 GBM2001     0.0000 
     33 C33       127.1500  107.7000  184.6120           1 GBM2001     0.0000 
@<TRIPOS>BOND
     1    1   17 du   
     2    2    6 du   
     3    3    6 du   
     4    4   26 du   
     5    5   31 du   
     6    6    9 du   
     7    6   18 du   
     8    7   28 du   
     9    7   33 du   
    10    8   11 du   
    11    8   17 du   
    12    9   17 du   
    13   10   25 du   
    14   10   26 du   
    15   11   12 du   
    16   11   13 du   
    17   12   14 du   
    18   13   15 du   
    19   14   16 du   
    20   15   16 du   
    21   18   21 du   
    22   18   22 du   
    23   19   20 du   
    24   19   23 du   
    25   19   24 du   
    26   20   25 du   
    27   21   23 du   
    28   22   24 du   
    29   26   27 du   
    30   27   28 du   
    31   27   29 du   
    32   28   30 du   
    33   29   31 du   
    34   30   32 du   
    35   31   32 du   
@<TRIPOS>SUBSTRUCTURE
     1 GBM2001     1 GROUP   
@<TRIPOS>SET

