#    Name: 5ykg_6_AGS_CAVITY_N1_6
#    Modification time : Fri May 22 19:31:45 2020

@<TRIPOS>MOLECULE
5ykg_6_AGS_CAVITY_N1_6
   45     0     6     0     0
SMALL
NO_CHARGES


@<TRIPOS>ATOM
      1 OG         94.4000  197.3900  136.7400 O.3       1 SER1        0.0000 
      2 OG         94.3800  199.4900  137.0600 O.3       1 SER1        0.0000 
      3 OG         95.0400  198.1900  138.6000 O.3       1 SER1        0.0000 
      4 OG         95.7100  196.8800  140.1400 O.3       1 SER1        0.0000 
      5 N          92.7000  199.7700  135.1000 N.am      2 ALA2        0.0000 
      6 N          92.5100  198.3700  144.2400 N.am      2 ALA2        0.0000 
      7 N          93.1800  197.0700  145.7800 N.am      2 ALA2        0.0000 
      8 N          92.1200  200.2400  146.0000 N.am      2 ALA2        0.0000 
      9 NZ         94.7700  197.6200  135.3000 N.4       3 LYS4        0.0000 
     10 CZ         90.9500  196.2100  137.2300 C.ar      4 PHE5        0.0000 
     11 CZ         91.6000  197.0100  139.0900 C.ar      4 PHE5        0.0000 
     12 CA         91.3300  196.4400  135.7900 C.3       5 GLY6        0.0000 
     13 CA         93.7500  196.6000  134.8800 C.3       5 GLY6        0.0000 
     14 CA         92.7200  197.6800  134.7800 C.3       5 GLY6        0.0000 
     15 CA         91.6800  198.7600  134.6800 C.3       5 GLY6        0.0000 
     16 CA         93.3800  196.3700  136.3200 C.3       5 GLY6        0.0000 
     17 CA         92.3400  197.4500  136.2100 C.3       5 GLY6        0.0000 
     18 CA         91.9700  197.2300  137.6500 C.3       5 GLY6        0.0000 
     19 CA         92.6300  195.9300  139.1900 C.3       5 GLY6        0.0000 
     20 CA         93.7300  198.6900  135.2000 C.3       5 GLY6        0.0000 
     21 CA         95.0600  196.0900  138.2800 C.3       5 GLY6        0.0000 
     22 CA         94.0200  197.1700  138.1800 C.3       5 GLY6        0.0000 
     23 CA         93.6500  196.9400  139.6100 C.3       5 GLY6        0.0000 
     24 CA         94.7500  199.7100  135.6300 C.3       5 GLY6        0.0000 
     25 CA         95.3300  196.6600  141.5700 C.3       5 GLY6        0.0000 
     26 CA         94.3000  197.7400  141.4700 C.3       5 GLY6        0.0000 
     27 CA         94.9600  196.4400  143.0100 C.3       5 GLY6        0.0000 
     28 CA         94.5900  196.2100  144.4400 C.3       5 GLY6        0.0000 
     29 CA         94.9400  198.5300  143.3300 C.3       5 GLY6        0.0000 
     30 CA         94.5700  198.3100  144.7600 C.3       5 GLY6        0.0000 
     31 DU         90.2900  197.5100  135.6900 H         6 CUB7        0.0000 
     32 DU         91.3100  198.5300  136.1100 H         6 CUB7        0.0000 
     33 DU         90.9300  198.3100  137.5500 H         6 CUB7        0.0000 
     34 DU         93.3600  198.4700  136.6400 H         6 CUB7        0.0000 
     35 DU         92.3200  199.5500  136.5400 H         6 CUB7        0.0000 
     36 DU         92.9900  198.2500  138.0700 H         6 CUB7        0.0000 
     37 DU         92.6100  198.0200  139.5100 H         6 CUB7        0.0000 
     38 DU         94.0100  199.2600  138.5000 H         6 CUB7        0.0000 
     39 DU         94.6700  197.9600  140.0300 H         6 CUB7        0.0000 
     40 DU         93.6300  199.0400  139.9300 H         6 CUB7        0.0000 
     41 DU         95.6900  198.9800  140.4600 H         6 CUB7        0.0000 
     42 DU         94.6500  200.0600  140.3600 H         6 CUB7        0.0000 
     43 DU         95.3100  198.7600  141.8900 H         6 CUB7        0.0000 
     44 DU         93.5300  199.3900  144.6600 H         6 CUB7        0.0000 
     45 DU         92.4900  200.4700  144.5600 H         6 CUB7        0.0000 
@<TRIPOS>BOND
@<TRIPOS>SUBSTRUCTURE
     1 SER1        1 GROUP   
     2 ALA2        5 GROUP   
     3 LYS4        9 GROUP   
     4 PHE5       10 GROUP   
     5 GLY6       12 GROUP   
     6 CUB7       31 GROUP   
@<TRIPOS>SET

