#    Name: 5ykg_2_GBM_CAVITY_N1_ALL
#    Modification time : Fri May 22 19:31:02 2020

@<TRIPOS>MOLECULE
5ykg_2_GBM_CAVITY_N1_ALL
   91     0     7     0     0
SMALL
NO_CHARGES


@<TRIPOS>ATOM
      1 OG        200.6100  218.6400  186.4800 O.3       1 SER1        0.0000 
      2 OG        199.5700  219.7200  186.3800 O.3       1 SER1        0.0000 
      3 OG        200.2300  218.4200  187.9200 O.3       1 SER1        0.0000 
      4 OG        199.8600  218.1900  189.3600 O.3       1 SER1        0.0000 
      5 OG        198.8200  219.2700  189.2500 O.3       1 SER1        0.0000 
      6 OG        200.5900  220.7400  186.8100 O.3       1 SER1        0.0000 
      7 OG        200.2200  220.5100  188.2400 O.3       1 SER1        0.0000 
      8 OG        199.8400  220.2900  189.6800 O.3       1 SER1        0.0000 
      9 OG        198.8000  221.3700  189.5800 O.3       1 SER1        0.0000 
     10 OG        197.7700  222.4500  189.4700 O.3       1 SER1        0.0000 
     11 OG        203.5800  219.9400  192.1600 O.3       1 SER1        0.0000 
     12 OG        204.9700  221.1800  191.1500 O.3       1 SER1        0.0000 
     13 OG        205.9900  222.2000  191.5700 O.3       1 SER1        0.0000 
     14 N         198.5700  216.6000  185.6400 N.am      2 ALA2        0.0000 
     15 O         201.6600  215.4600  186.2600 O.2       2 ALA2        0.0000 
     16 O         203.0500  216.7000  185.2500 O.2       2 ALA2        0.0000 
     17 O         202.6800  216.4800  186.6900 O.2       2 ALA2        0.0000 
     18 O         201.9300  216.0300  189.5600 O.2       2 ALA2        0.0000 
     19 O         200.9000  217.1100  189.4600 O.2       2 ALA2        0.0000 
     20 O         202.6600  218.5800  187.0100 O.2       2 ALA2        0.0000 
     21 O         203.3300  217.2800  188.5500 O.2       2 ALA2        0.0000 
     22 O         202.2900  218.3500  188.4400 O.2       2 ALA2        0.0000 
     23 O         201.9200  218.1300  189.8800 O.2       2 ALA2        0.0000 
     24 O         200.8800  219.2100  189.7800 O.2       2 ALA2        0.0000 
     25 O         200.5100  218.9900  191.2100 O.2       2 ALA2        0.0000 
     26 O         203.6800  219.6000  187.4300 O.2       2 ALA2        0.0000 
     27 O         203.3100  219.3700  188.8700 O.2       2 ALA2        0.0000 
     28 O         202.9300  219.1500  190.3000 O.2       2 ALA2        0.0000 
     29 O         202.5600  218.9200  191.7400 O.2       2 ALA2        0.0000 
     30 O         204.7000  220.6100  187.8600 O.2       2 ALA2        0.0000 
     31 O         204.3200  220.3900  189.2900 O.2       2 ALA2        0.0000 
     32 O         204.9900  219.0900  190.8300 O.2       2 ALA2        0.0000 
     33 N         205.7000  223.7300  188.6000 N.am      2 ALA2        0.0000 
     34 N         204.6600  224.8100  188.5000 N.am      2 ALA2        0.0000 
     35 N         205.3200  223.5000  190.0400 N.am      2 ALA2        0.0000 
     36 OD1       199.9800  215.7500  184.3000 O.co2     3 ASP3        0.0000 
     37 OD1       198.9500  216.8300  184.2000 O.co2     3 ASP3        0.0000 
     38 OD1       201.3700  216.9900  183.2900 O.co2     3 ASP3        0.0000 
     39 OD1       200.3400  218.0700  183.1900 O.co2     3 ASP3        0.0000 
     40 OD1       201.0000  216.7700  184.7300 O.co2     3 ASP3        0.0000 
     41 OD1       202.7600  218.2300  182.2800 O.co2     3 ASP3        0.0000 
     42 OD1       202.3900  218.0100  183.7200 O.co2     3 ASP3        0.0000 
     43 OD1       199.4900  217.9700  190.7900 O.co2     3 ASP3        0.0000 
     44 OD1       204.4500  217.9500  184.2400 O.co2     3 ASP3        0.0000 
     45 OD1       199.4700  220.0700  191.1100 O.co2     3 ASP3        0.0000 
     46 OD1       198.7900  223.4600  189.9000 O.co2     3 ASP3        0.0000 
     47 NZ        200.6300  216.5400  186.1600 N.4       4 LYS4        0.0000 
     48 NZ        201.2900  215.2400  187.7000 N.4       4 LYS4        0.0000 
     49 NZ        200.2500  216.3200  187.6000 N.4       4 LYS4        0.0000 
     50 NZ        199.8800  216.1000  189.0300 N.4       4 LYS4        0.0000 
     51 CZ        199.9600  217.8500  184.6300 C.ar      5 PHE5        0.0000 
     52 CZ        198.9300  218.9200  184.5200 C.ar      5 PHE5        0.0000 
     53 CZ        199.5900  217.6200  186.0600 C.ar      5 PHE5        0.0000 
     54 CZ        199.2200  217.4000  187.5000 C.ar      5 PHE5        0.0000 
     55 CZ        205.1100  216.6400  185.7800 C.ar      5 PHE5        0.0000 
     56 CZ        204.0700  217.7200  185.6800 C.ar      5 PHE5        0.0000 
     57 CZ        203.7000  217.5000  187.1100 C.ar      5 PHE5        0.0000 
     58 CZ        206.0900  221.8500  186.8400 C.ar      5 PHE5        0.0000 
     59 CZ        204.6800  222.7100  188.1800 C.ar      5 PHE5        0.0000 
     60 CA        198.8400  217.1700  188.9300 C.3       6 GLY6        0.0000 
     61 CA        202.3100  216.2600  188.1200 C.3       6 GLY6        0.0000 
     62 CA        202.9500  217.0500  189.9800 C.3       6 GLY6        0.0000 
     63 CA        198.4300  221.1400  191.0100 C.3       6 GLY6        0.0000 
     64 CA        202.2700  220.4500  188.7700 C.3       6 GLY6        0.0000 
     65 CA        201.2300  221.5300  188.6700 C.3       6 GLY6        0.0000 
     66 CA        200.2000  222.6100  188.5600 C.3       6 GLY6        0.0000 
     67 CA        203.9700  218.0700  190.4100 C.3       6 GLY6        0.0000 
     68 CA        201.9000  220.2300  190.2000 C.3       6 GLY6        0.0000 
     69 CA        200.8600  221.3100  190.1000 C.3       6 GLY6        0.0000 
     70 CA        199.8200  222.3900  190.0000 C.3       6 GLY6        0.0000 
     71 CA        201.5200  220.0000  191.6400 C.3       6 GLY6        0.0000 
     72 CA        200.4900  221.0800  191.5400 C.3       6 GLY6        0.0000 
     73 CA        199.4500  222.1600  191.4300 C.3       6 GLY6        0.0000 
     74 CA        202.6200  222.7700  187.6500 C.3       6 GLY6        0.0000 
     75 CA        203.2900  221.4700  189.1900 C.3       6 GLY6        0.0000 
     76 CA        202.2500  222.5500  189.0900 C.3       6 GLY6        0.0000 
     77 CA        203.9500  220.1700  190.7300 C.3       6 GLY6        0.0000 
     78 CA        204.6100  218.8600  192.2600 C.3       6 GLY6        0.0000 
     79 CA        203.6400  223.7900  188.0800 C.3       6 GLY6        0.0000 
     80 CA        204.3000  222.4900  189.6100 C.3       6 GLY6        0.0000 
     81 DU        201.3500  219.0900  183.6100 H         7 CUB7        0.0000 
     82 DU        202.0200  217.7800  185.1500 H         7 CUB7        0.0000 
     83 DU        200.9800  218.8600  185.0500 H         7 CUB7        0.0000 
     84 DU        201.6400  217.5600  186.5900 H         7 CUB7        0.0000 
     85 DU        201.2700  217.3400  188.0200 H         7 CUB7        0.0000 
     86 DU        203.4100  219.0300  184.1400 H         7 CUB7        0.0000 
     87 DU        203.0400  218.8000  185.5700 H         7 CUB7        0.0000 
     88 DU        201.6300  219.6600  186.9100 H         7 CUB7        0.0000 
     89 DU        201.2500  219.4300  188.3400 H         7 CUB7        0.0000 
     90 DU        202.6400  220.6700  187.3300 H         7 CUB7        0.0000 
     91 DU        203.6600  221.6900  187.7500 H         7 CUB7        0.0000 
@<TRIPOS>BOND
@<TRIPOS>SUBSTRUCTURE
     1 SER1        1 GROUP   
     2 ALA2       14 GROUP   
     3 ASP3       36 GROUP   
     4 LYS4       47 GROUP   
     5 PHE5       51 GROUP   
     6 GLY6       60 GROUP   
     7 CUB7       81 GROUP   
@<TRIPOS>SET

