#    Name: 5ykg_2_GBM
#    Modification time : Fri May 22 19:31:01 2020

@<TRIPOS>MOLECULE
5ykg_2_GBM
   33    35     1     0     0
SMALL
NO_CHARGES


@<TRIPOS>ATOM
      1 O3        198.0460  216.4870  178.4610           1 GBM2001     0.0000 
      2 O4        199.7980  217.2710  180.4540           1 GBM2001     0.0000 
      3 O5        201.4740  218.6540  179.6300           1 GBM2001     0.0000 
      4 O6        199.4420  222.1570  182.7000           1 GBM2001     0.0000 
      5 CL1       197.0670  224.7340  187.9680           1 GBM2001     0.0000 
      6 S2        200.0890  218.2900  179.4800           1 GBM2001     0.0000 
      7 O7        200.6580  221.0880  184.8790           1 GBM2001     0.0000 
      8 N8        198.5810  216.7380  176.3410           1 GBM2001     0.0000 
      9 N9        199.8380  217.7450  177.9810           1 GBM2001     0.0000 
     10 N10       197.7060  223.5610  182.8580           1 GBM2001     0.0000 
     11 C11       199.2690  217.4300  175.2750           1 GBM2001     0.0000 
     12 C12       198.5520  218.7460  175.0140           1 GBM2001     0.0000 
     13 C13       199.2100  216.5520  174.0340           1 GBM2001     0.0000 
     14 C14       199.1110  219.4540  173.7900           1 GBM2001     0.0000 
     15 C15       199.7380  217.2640  172.7960           1 GBM2001     0.0000 
     16 C16       198.9810  218.5620  172.5640           1 GBM2001     0.0000 
     17 C17       198.7980  216.9760  177.6320           1 GBM2001     0.0000 
     18 C18       199.1810  219.5770  179.7800           1 GBM2001     0.0000 
     19 C19       197.5930  221.7940  180.3300           1 GBM2001     0.0000 
     20 C20       196.7300  222.9880  180.6560           1 GBM2001     0.0000 
     21 C21       199.3330  220.7490  179.0430           1 GBM2001     0.0000 
     22 C22       198.2350  219.5240  180.7980           1 GBM2001     0.0000 
     23 C23       198.5410  221.8590  179.3170           1 GBM2001     0.0000 
     24 C24       197.4440  220.6290  181.0720           1 GBM2001     0.0000 
     25 C25       196.5440  223.0240  182.1700           1 GBM2001     0.0000 
     26 C26       198.6730  222.8070  183.3860           1 GBM2001     0.0000 
     27 C27       198.8300  222.7970  184.8760           1 GBM2001     0.0000 
     28 C28       199.8250  221.9310  185.5680           1 GBM2001     0.0000 
     29 C29       198.0190  223.6280  185.6340           1 GBM2001     0.0000 
     30 C30       199.9060  221.9880  186.9530           1 GBM2001     0.0000 
     31 C31       198.1360  223.6480  187.0180           1 GBM2001     0.0000 
     32 C32       199.0660  222.8380  187.6670           1 GBM2001     0.0000 
     33 C33       202.0100  221.4600  184.6120           1 GBM2001     0.0000 
@<TRIPOS>BOND
     1    1   17 du   
     2    2    6 du   
     3    3    6 du   
     4    4   26 du   
     5    5   31 du   
     6    6    9 du   
     7    6   18 du   
     8    7   28 du   
     9    7   33 du   
    10    8   11 du   
    11    8   17 du   
    12    9   17 du   
    13   10   25 du   
    14   10   26 du   
    15   11   12 du   
    16   11   13 du   
    17   12   14 du   
    18   13   15 du   
    19   14   16 du   
    20   15   16 du   
    21   18   21 du   
    22   18   22 du   
    23   19   20 du   
    24   19   23 du   
    25   19   24 du   
    26   20   25 du   
    27   21   23 du   
    28   22   24 du   
    29   26   27 du   
    30   27   28 du   
    31   27   29 du   
    32   28   30 du   
    33   29   31 du   
    34   30   32 du   
    35   31   32 du   
@<TRIPOS>SUBSTRUCTURE
     1 GBM2001     1 GROUP   
@<TRIPOS>SET

