#    Name: 5ykg_11_GBM
#    Modification time : Fri May 22 19:32:33 2020

@<TRIPOS>MOLECULE
5ykg_11_GBM
   33    35     1     0     0
SMALL
NO_CHARGES


@<TRIPOS>ATOM
      1 O3        216.4870  131.1140  178.4610           1 GBM2001     0.0000 
      2 O4        217.2710  129.3620  180.4540           1 GBM2001     0.0000 
      3 O5        218.6540  127.6860  179.6300           1 GBM2001     0.0000 
      4 O6        222.1570  129.7180  182.7000           1 GBM2001     0.0000 
      5 CL1       224.7340  132.0930  187.9680           1 GBM2001     0.0000 
      6 S2        218.2900  129.0710  179.4800           1 GBM2001     0.0000 
      7 O7        221.0880  128.5020  184.8790           1 GBM2001     0.0000 
      8 N8        216.7380  130.5790  176.3410           1 GBM2001     0.0000 
      9 N9        217.7450  129.3220  177.9810           1 GBM2001     0.0000 
     10 N10       223.5610  131.4540  182.8580           1 GBM2001     0.0000 
     11 C11       217.4300  129.8910  175.2750           1 GBM2001     0.0000 
     12 C12       218.7460  130.6080  175.0140           1 GBM2001     0.0000 
     13 C13       216.5520  129.9500  174.0340           1 GBM2001     0.0000 
     14 C14       219.4540  130.0490  173.7900           1 GBM2001     0.0000 
     15 C15       217.2640  129.4220  172.7960           1 GBM2001     0.0000 
     16 C16       218.5620  130.1790  172.5640           1 GBM2001     0.0000 
     17 C17       216.9760  130.3620  177.6320           1 GBM2001     0.0000 
     18 C18       219.5770  129.9790  179.7800           1 GBM2001     0.0000 
     19 C19       221.7940  131.5670  180.3300           1 GBM2001     0.0000 
     20 C20       222.9880  132.4300  180.6560           1 GBM2001     0.0000 
     21 C21       220.7490  129.8270  179.0430           1 GBM2001     0.0000 
     22 C22       219.5240  130.9250  180.7980           1 GBM2001     0.0000 
     23 C23       221.8590  130.6190  179.3170           1 GBM2001     0.0000 
     24 C24       220.6290  131.7160  181.0720           1 GBM2001     0.0000 
     25 C25       223.0240  132.6160  182.1700           1 GBM2001     0.0000 
     26 C26       222.8070  130.4870  183.3860           1 GBM2001     0.0000 
     27 C27       222.7970  130.3300  184.8760           1 GBM2001     0.0000 
     28 C28       221.9310  129.3350  185.5680           1 GBM2001     0.0000 
     29 C29       223.6280  131.1410  185.6340           1 GBM2001     0.0000 
     30 C30       221.9880  129.2540  186.9530           1 GBM2001     0.0000 
     31 C31       223.6480  131.0240  187.0180           1 GBM2001     0.0000 
     32 C32       222.8380  130.0940  187.6670           1 GBM2001     0.0000 
     33 C33       221.4600  127.1500  184.6120           1 GBM2001     0.0000 
@<TRIPOS>BOND
     1    1   17 du   
     2    2    6 du   
     3    3    6 du   
     4    4   26 du   
     5    5   31 du   
     6    6    9 du   
     7    6   18 du   
     8    7   28 du   
     9    7   33 du   
    10    8   11 du   
    11    8   17 du   
    12    9   17 du   
    13   10   25 du   
    14   10   26 du   
    15   11   12 du   
    16   11   13 du   
    17   12   14 du   
    18   13   15 du   
    19   14   16 du   
    20   15   16 du   
    21   18   21 du   
    22   18   22 du   
    23   19   20 du   
    24   19   23 du   
    25   19   24 du   
    26   20   25 du   
    27   21   23 du   
    28   22   24 du   
    29   26   27 du   
    30   27   28 du   
    31   27   29 du   
    32   28   30 du   
    33   29   31 du   
    34   30   32 du   
    35   31   32 du   
@<TRIPOS>SUBSTRUCTURE
     1 GBM2001     1 GROUP   
@<TRIPOS>SET

