#    Name: 5ykg_4_AGS_CAVITY_N1_ALL
#    Modification time : Fri May 22 19:31:18 2020

@<TRIPOS>MOLECULE
5ykg_4_AGS_CAVITY_N1_ALL
   72     0     5     0     0
SMALL
NO_CHARGES


@<TRIPOS>ATOM
      1 N         158.6700  192.4300  158.9500 N.am      1 ALA2        0.0000 
      2 O         159.3900  194.9700  156.4000 O.2       1 ALA2        0.0000 
      3 N         160.0600  193.6700  157.9400 N.am      1 ALA2        0.0000 
      4 O         159.0200  194.7500  157.8400 O.2       1 ALA2        0.0000 
      5 N         160.7200  192.3700  159.4800 N.am      1 ALA2        0.0000 
      6 N         159.6800  193.4500  159.3800 N.am      1 ALA2        0.0000 
      7 O         162.4700  195.9300  157.3500 O.2       1 ALA2        0.0000 
      8 O         161.4300  197.0100  157.2500 O.2       1 ALA2        0.0000 
      9 O         162.4500  198.0300  157.6700 O.2       1 ALA2        0.0000 
     10 N         165.1800  194.5700  159.4100 N.am      1 ALA2        0.0000 
     11 N         164.1500  195.6400  159.3100 N.am      1 ALA2        0.0000 
     12 N         163.1100  196.7200  159.2100 N.am      1 ALA2        0.0000 
     13 N         163.7700  195.4200  160.7500 N.am      1 ALA2        0.0000 
     14 N         164.7900  196.4400  161.1700 N.am      1 ALA2        0.0000 
     15 N         163.7500  197.5200  161.0700 N.am      1 ALA2        0.0000 
     16 O         165.4600  195.1400  162.7100 O.2       1 ALA2        0.0000 
     17 N         164.7700  198.5400  161.4900 N.am      1 ALA2        0.0000 
     18 OD1       160.3300  194.2400  161.2300 O.co2     2 ASP3        0.0000 
     19 OD1       161.7200  195.4800  160.2200 O.co2     2 ASP3        0.0000 
     20 OD1       160.6800  196.5600  160.1200 O.co2     2 ASP3        0.0000 
     21 OD1       162.3800  194.1800  161.7600 O.co2     2 ASP3        0.0000 
     22 OD1       161.3500  195.2600  161.6600 O.co2     2 ASP3        0.0000 
     23 OD1       163.0500  192.8800  163.3000 O.co2     2 ASP3        0.0000 
     24 OD1       162.0100  193.9600  163.1900 O.co2     2 ASP3        0.0000 
     25 OD1       162.6700  192.6500  164.7300 O.co2     2 ASP3        0.0000 
     26 OD1       162.7400  196.5000  160.6500 O.co2     2 ASP3        0.0000 
     27 OD1       161.7000  197.5800  160.5400 O.co2     2 ASP3        0.0000 
     28 OD1       163.4000  195.2000  162.1800 O.co2     2 ASP3        0.0000 
     29 OD1       163.3800  197.2900  162.5000 O.co2     2 ASP3        0.0000 
     30 OD1       164.4000  198.3100  162.9300 O.co2     2 ASP3        0.0000 
     31 CZ        161.0900  192.5900  158.0400 C.ar      3 PHE5        0.0000 
     32 CZ        161.4500  194.9100  156.9300 C.ar      3 PHE5        0.0000 
     33 CZ        161.0800  194.6900  158.3600 C.ar      3 PHE5        0.0000 
     34 CZ        161.7400  193.3900  159.9000 C.ar      3 PHE5        0.0000 
     35 CZ        165.2000  192.4700  159.0900 C.ar      3 PHE5        0.0000 
     36 CZ        164.1700  193.5500  158.9900 C.ar      3 PHE5        0.0000 
     37 CZ        163.1300  194.6300  158.8900 C.ar      3 PHE5        0.0000 
     38 CZ        162.0900  195.7100  158.7900 C.ar      3 PHE5        0.0000 
     39 CZ        162.7600  194.4000  160.3200 C.ar      3 PHE5        0.0000 
     40 CZ        165.8500  193.2600  160.9500 C.ar      3 PHE5        0.0000 
     41 CZ        165.4700  193.0400  162.3900 C.ar      3 PHE5        0.0000 
     42 CZ        166.4900  194.0600  162.8100 C.ar      3 PHE5        0.0000 
     43 CA        158.3600  196.0500  156.3000 C.3       4 GLY6        0.0000 
     44 CA        160.3500  192.1400  160.9100 C.3       4 GLY6        0.0000 
     45 CA        159.7500  197.2900  155.2900 C.3       4 GLY6        0.0000 
     46 CA        160.4100  195.9900  156.8300 C.3       4 GLY6        0.0000 
     47 CA        162.7800  192.3100  160.0000 C.3       4 GLY6        0.0000 
     48 CA        162.4000  192.0800  161.4400 C.3       4 GLY6        0.0000 
     49 CA        161.3700  193.1600  161.3400 C.3       4 GLY6        0.0000 
     50 CA        162.0300  191.8600  162.8700 C.3       4 GLY6        0.0000 
     51 CA        160.9900  192.9400  162.7700 C.3       4 GLY6        0.0000 
     52 CA        161.6600  191.6400  164.3100 C.3       4 GLY6        0.0000 
     53 CA        164.8300  192.2500  160.5300 C.3       4 GLY6        0.0000 
     54 CA        163.7900  193.3200  160.4200 C.3       4 GLY6        0.0000 
     55 CA        164.4600  192.0200  161.9600 C.3       4 GLY6        0.0000 
     56 CA        164.0800  191.8000  163.4000 C.3       4 GLY6        0.0000 
     57 CA        163.4800  196.9500  157.7700 C.3       4 GLY6        0.0000 
     58 CA        164.8100  194.3400  160.8500 C.3       4 GLY6        0.0000 
     59 CA        166.5100  191.9600  162.4900 C.3       4 GLY6        0.0000 
     60 CA        165.1000  192.8200  163.8200 C.3       4 GLY6        0.0000 
     61 CA        164.0600  193.8900  163.7200 C.3       4 GLY6        0.0000 
     62 CA        164.7300  192.5900  165.2600 C.3       4 GLY6        0.0000 
     63 CA        165.3900  191.2900  166.7900 C.3       4 GLY6        0.0000 
     64 CA        164.3500  192.3700  166.6900 C.3       4 GLY6        0.0000 
     65 CA        164.4200  196.2100  162.6100 C.3       4 GLY6        0.0000 
     66 DU        160.0400  195.7700  158.2600 H         5 CUB7        0.0000 
     67 DU        160.7000  194.4700  159.8000 H         5 CUB7        0.0000 
     68 DU        159.6700  195.5400  159.7000 H         5 CUB7        0.0000 
     69 DU        161.0600  196.7900  158.6800 H         5 CUB7        0.0000 
     70 DU        163.4200  193.1000  161.8600 H         5 CUB7        0.0000 
     71 DU        162.0700  197.8000  159.1100 H         5 CUB7        0.0000 
     72 DU        164.4400  194.1200  162.2800 H         5 CUB7        0.0000 
@<TRIPOS>BOND
@<TRIPOS>SUBSTRUCTURE
     1 ALA2        1 GROUP   
     2 ASP3       18 GROUP   
     3 PHE5       31 GROUP   
     4 GLY6       43 GROUP   
     5 CUB7       66 GROUP   
@<TRIPOS>SET

