#    Name: 5ykg_11_GBM_CAVITY_N1_6
#    Modification time : Fri May 22 19:32:33 2020

@<TRIPOS>MOLECULE
5ykg_11_GBM_CAVITY_N1_6
   87     0     7     0     0
SMALL
NO_CHARGES


@<TRIPOS>ATOM
      1 OG        220.1000  128.8400  185.4000 O.3       1 SER1        0.0000 
      2 OG        219.7200  128.6200  186.8300 O.3       1 SER1        0.0000 
      3 OG        219.3500  128.4000  188.2700 O.3       1 SER1        0.0000 
      4 OG        218.3100  129.4800  188.1700 O.3       1 SER1        0.0000 
      5 OG        222.1500  128.7800  185.9200 O.3       1 SER1        0.0000 
      6 OG        221.7800  128.5600  187.3600 O.3       1 SER1        0.0000 
      7 OG        220.3700  129.4100  188.6900 O.3       1 SER1        0.0000 
      8 OG        220.0000  129.1900  190.1300 O.3       1 SER1        0.0000 
      9 OG        221.0100  130.2100  190.5500 O.3       1 SER1        0.0000 
     10 OG        222.4000  131.4500  189.5400 O.3       1 SER1        0.0000 
     11 OG        222.0300  131.2300  190.9700 O.3       1 SER1        0.0000 
     12 O         216.3000  125.3400  187.0000 O.2       2 ALA2        0.0000 
     13 O         218.7300  125.5100  186.0900 O.2       2 ALA2        0.0000 
     14 O         216.6500  127.6600  185.8800 O.2       2 ALA2        0.0000 
     15 O         218.3500  125.2800  187.5200 O.2       2 ALA2        0.0000 
     16 O         216.2800  127.4400  187.3200 O.2       2 ALA2        0.0000 
     17 O         220.7800  125.4400  186.6100 O.2       2 ALA2        0.0000 
     18 N         216.6300  129.7600  186.2100 N.am      2 ALA2        0.0000 
     19 O         220.4100  125.2200  188.0500 O.2       2 ALA2        0.0000 
     20 O         219.3700  126.3000  187.9500 O.2       2 ALA2        0.0000 
     21 O         220.0300  125.0000  189.4800 O.2       2 ALA2        0.0000 
     22 O         219.0000  126.0800  189.3800 O.2       2 ALA2        0.0000 
     23 O         217.9600  127.1600  189.2800 O.2       2 ALA2        0.0000 
     24 O         218.9800  128.1700  189.7000 O.2       2 ALA2        0.0000 
     25 O         217.9400  129.2500  189.6000 O.2       2 ALA2        0.0000 
     26 O         218.6000  127.9500  191.1400 O.2       2 ALA2        0.0000 
     27 OD1       217.0500  125.7900  184.1300 O.co2     3 ASP3        0.0000 
     28 OD1       217.4000  128.1100  183.0100 O.co2     3 ASP3        0.0000 
     29 OD1       216.3600  129.1900  182.9100 O.co2     3 ASP3        0.0000 
     30 OD1       218.0600  126.8100  184.5500 O.co2     3 ASP3        0.0000 
     31 OD1       217.0300  127.8900  184.4500 O.co2     3 ASP3        0.0000 
     32 OD1       215.9900  128.9700  184.3500 O.co2     3 ASP3        0.0000 
     33 OD1       218.4200  129.1300  183.4400 O.co2     3 ASP3        0.0000 
     34 OD1       217.3800  130.2100  183.3400 O.co2     3 ASP3        0.0000 
     35 OD1       219.6200  128.9700  191.5600 O.co2     3 ASP3        0.0000 
     36 OD1       220.6400  129.9800  191.9900 O.co2     3 ASP3        0.0000 
     37 OD1       224.0900  131.1600  191.5000 O.co2     3 ASP3        0.0000 
     38 OD1       223.0500  132.2400  191.4000 O.co2     3 ASP3        0.0000 
     39 OD1       222.6700  132.0200  192.8300 O.co2     3 ASP3        0.0000 
     40 NZ        217.3000  128.4600  187.7400 N.4       4 LYS4        0.0000 
     41 NZ        216.2600  129.5400  187.6400 N.4       4 LYS4        0.0000 
     42 NZ        216.9200  128.2300  189.1800 N.4       4 LYS4        0.0000 
     43 CZ        217.7100  124.4900  185.6600 C.ar      5 PHE5        0.0000 
     44 CZ        217.3200  126.3600  187.4200 C.ar      5 PHE5        0.0000 
     45 CZ        218.0400  128.9100  184.8700 C.ar      5 PHE5        0.0000 
     46 CZ        217.0100  129.9800  184.7700 C.ar      5 PHE5        0.0000 
     47 CZ        217.6700  128.6800  186.3100 C.ar      5 PHE5        0.0000 
     48 CZ        221.4400  124.1400  188.1500 C.ar      5 PHE5        0.0000 
     49 CZ        219.4300  130.1500  183.8600 C.ar      5 PHE5        0.0000 
     50 CZ        219.0600  129.9200  185.3000 C.ar      5 PHE5        0.0000 
     51 CZ        218.6900  129.7000  186.7300 C.ar      5 PHE5        0.0000 
     52 CZ        217.2800  130.5600  188.0700 C.ar      5 PHE5        0.0000 
     53 CA        215.6200  128.7400  185.7800 C.3       6 GLY6        0.0000 
     54 CA        221.8000  126.4600  187.0400 C.3       6 GLY6        0.0000 
     55 CA        222.4600  125.1600  188.5700 C.3       6 GLY6        0.0000 
     56 CA        221.4300  126.2400  188.4700 C.3       6 GLY6        0.0000 
     57 CA        221.0500  126.0100  189.9100 C.3       6 GLY6        0.0000 
     58 CA        220.0100  127.0900  189.8100 C.3       6 GLY6        0.0000 
     59 CA        216.9000  130.3300  189.5000 C.3       6 GLY6        0.0000 
     60 CA        219.6400  126.8700  191.2400 C.3       6 GLY6        0.0000 
     61 CA        222.8200  127.4800  187.4600 C.3       6 GLY6        0.0000 
     62 CA        222.4400  127.2600  188.8900 C.3       6 GLY6        0.0000 
     63 CA        221.4100  128.3400  188.7900 C.3       6 GLY6        0.0000 
     64 CA        221.0300  128.1100  190.2300 C.3       6 GLY6        0.0000 
     65 CA        218.9600  130.2700  190.0300 C.3       6 GLY6        0.0000 
     66 CA        222.8000  129.5800  187.7800 C.3       6 GLY6        0.0000 
     67 CA        222.4200  129.3500  189.2200 C.3       6 GLY6        0.0000 
     68 CA        222.0500  129.1300  190.6500 C.3       6 GLY6        0.0000 
     69 CA        221.6800  128.9100  192.0900 C.3       6 GLY6        0.0000 
     70 CA        223.4400  130.3700  189.6400 C.3       6 GLY6        0.0000 
     71 CA        224.1000  129.0700  191.1800 C.3       6 GLY6        0.0000 
     72 CA        223.0700  130.1500  191.0700 C.3       6 GLY6        0.0000 
     73 CA        220.9900  132.3000  190.8700 C.3       6 GLY6        0.0000 
     74 CA        222.6900  129.9200  192.5100 C.3       6 GLY6        0.0000 
     75 CA        220.6200  132.0800  192.3100 C.3       6 GLY6        0.0000 
     76 CA        222.0100  133.3200  191.3000 C.3       6 GLY6        0.0000 
     77 CA        223.7100  130.9400  192.9300 C.3       6 GLY6        0.0000 
     78 CA        221.6400  133.1000  192.7300 C.3       6 GLY6        0.0000 
     79 DU        217.6900  126.5900  185.9900 H         7 CUB7        0.0000 
     80 DU        219.0800  127.8300  184.9700 H         7 CUB7        0.0000 
     81 DU        219.7400  126.5200  186.5100 H         7 CUB7        0.0000 
     82 DU        218.7100  127.6000  186.4100 H         7 CUB7        0.0000 
     83 DU        218.3300  127.3800  187.8400 H         7 CUB7        0.0000 
     84 DU        221.1300  127.7700  185.5000 H         7 CUB7        0.0000 
     85 DU        220.7600  127.5400  186.9300 H         7 CUB7        0.0000 
     86 DU        220.3900  127.3200  188.3700 H         7 CUB7        0.0000 
     87 DU        221.6600  131.0000  192.4100 H         7 CUB7        0.0000 
@<TRIPOS>BOND
@<TRIPOS>SUBSTRUCTURE
     1 SER1        1 GROUP   
     2 ALA2       12 GROUP   
     3 ASP3       27 GROUP   
     4 LYS4       40 GROUP   
     5 PHE5       43 GROUP   
     6 GLY6       53 GROUP   
     7 CUB7       79 GROUP   
@<TRIPOS>SET

