#    Name: 6or7_1_1RY
#    Modification time : Fri May 22 19:29:45 2020

@<TRIPOS>MOLECULE
6or7_1_1RY
   28    29     1     0     0
SMALL
NO_CHARGES


@<TRIPOS>ATOM
      1 OAC        47.1240   -3.3990  -23.8200           1 1RY601      0.0000 
      2 PAZ        48.1630   -2.5640  -24.4910           1 1RY601      0.0000 
      3 OAF        49.4870   -2.5390  -23.7210           1 1RY601      0.0000 
      4 OAG        48.4450   -3.0050  -25.9300           1 1RY601      0.0000 
      5 OAQ        47.7010   -1.0430  -24.6070           1 1RY601      0.0000 
      6 PBB        46.7160   -0.2770  -25.5960           1 1RY601      0.0000 
      7 OAI        46.4480    1.1090  -25.1500           1 1RY601      0.0000 
      8 OAE        47.2910   -0.4030  -27.0090           1 1RY601      0.0000 
      9 OAR        45.4230   -1.2040  -25.5260           1 1RY601      0.0000 
     10 PBA        44.4390   -1.5870  -24.3350           1 1RY601      0.0000 
     11 OAH        43.7840   -2.9210  -24.7030           1 1RY601      0.0000 
     12 OAD        45.1260   -1.5440  -23.0280           1 1RY601      0.0000 
     13 OAO        43.2970   -0.4790  -24.3870           1 1RY601      0.0000 
     14 CAL        43.4200    0.9300  -24.0950           1 1RY601      0.0000 
     15 CAW        42.0510    1.5420  -24.2470           1 1RY601      0.0000 
     16 OAP        41.5470    1.2670  -25.5600           1 1RY601      0.0000 
     17 SAS        42.0430    3.3410  -24.0660           1 1RY601      0.0000 
     18 CAM        40.5050    3.3820  -25.0210           1 1RY601      0.0000 
     19 CAX        40.6210    2.2390  -26.0200           1 1RY601      0.0000 
     20 NAY        41.0640    2.6930  -27.3500           1 1RY601      0.0000 
     21 CAK        42.3750    3.0290  -27.5790           1 1RY601      0.0000 
     22 CAU        42.7500    3.4330  -28.7850           1 1RY601      0.0000 
     23 FAJ        44.0230    3.7920  -29.0440           1 1RY601      0.0000 
     24 CAV        40.1170    2.7720  -28.3760           1 1RY601      0.0000 
     25 OAB        38.9460    2.4770  -28.1320           1 1RY601      0.0000 
     26 NAN        40.5220    3.1820  -29.6090           1 1RY601      0.0000 
     27 CAT        41.7970    3.5090  -29.8390           1 1RY601      0.0000 
     28 NAA        42.1630    3.9000  -31.0660           1 1RY601      0.0000 
@<TRIPOS>BOND
     1    1    2 du   
     2    2    3 du   
     3    2    4 du   
     4    2    5 du   
     5    5    6 du   
     6    6    7 du   
     7    6    8 du   
     8    6    9 du   
     9    9   10 du   
    10   10   11 du   
    11   10   12 du   
    12   10   13 du   
    13   13   14 du   
    14   14   15 du   
    15   15   16 du   
    16   15   17 du   
    17   16   19 du   
    18   17   18 du   
    19   18   19 du   
    20   19   20 du   
    21   20   21 du   
    22   20   24 du   
    23   21   22 du   
    24   22   23 du   
    25   22   27 du   
    26   24   25 du   
    27   24   26 du   
    28   26   27 du   
    29   27   28 du   
@<TRIPOS>SUBSTRUCTURE
     1 1RY601      1 GROUP   
@<TRIPOS>SET

