#    Name: 6or7_1_1RY_CAVITY_N1_12
#    Modification time : Fri May 22 19:29:47 2020

@<TRIPOS>MOLECULE
6or7_1_1RY_CAVITY_N1_12
   92     0     7     0     0
SMALL
NO_CHARGES


@<TRIPOS>ATOM
      1 OG         39.4000    3.0600  -26.1800 O.3       1 SER1        0.0000 
      2 OG         40.8300    3.4600  -24.6600 O.3       1 SER1        0.0000 
      3 N          46.2300   -8.0100  -28.2000 N.am      2 ALA2        0.0000 
      4 N          44.2700   -7.2100  -28.0500 N.am      2 ALA2        0.0000 
      5 N          45.9100   -5.9300  -28.4500 N.am      2 ALA2        0.0000 
      6 O          43.4100   -3.9400  -26.6300 O.2       2 ALA2        0.0000 
      7 O          42.8800   -2.7400  -24.9600 O.2       2 ALA2        0.0000 
      8 O          43.9700   -2.6900  -25.9900 O.2       2 ALA2        0.0000 
      9 O          48.2300   -3.9300  -23.7400 O.2       2 ALA2        0.0000 
     10 O          47.3500   -3.0900  -24.6200 O.2       2 ALA2        0.0000 
     11 O          44.3100   -2.3400  -23.4400 O.2       2 ALA2        0.0000 
     12 O          45.3900   -2.2900  -24.4700 O.2       2 ALA2        0.0000 
     13 O          42.3500   -1.5400  -23.2900 O.2       2 ALA2        0.0000 
     14 O          43.4300   -1.5000  -24.3200 O.2       2 ALA2        0.0000 
     15 O          41.4700   -0.7000  -24.1700 O.2       2 ALA2        0.0000 
     16 O          42.5600   -0.6600  -25.2000 O.2       2 ALA2        0.0000 
     17 N          41.6800    0.1800  -26.0900 N.am      2 ALA2        0.0000 
     18 N          39.7200    0.9800  -25.9400 N.am      2 ALA2        0.0000 
     19 N          39.9400    1.8700  -27.8500 N.am      2 ALA2        0.0000 
     20 N          42.2400    1.4300  -25.4500 N.am      2 ALA2        0.0000 
     21 N          41.3600    2.2700  -26.3300 N.am      2 ALA2        0.0000 
     22 N          40.4900    3.1100  -27.2200 N.am      2 ALA2        0.0000 
     23 N          39.6100    3.9500  -28.1000 N.am      2 ALA2        0.0000 
     24 N          41.9100    3.5100  -25.7000 N.am      2 ALA2        0.0000 
     25 OD1        48.4400   -3.0400  -25.6600 O.co2     3 ASP3        0.0000 
     26 OD1        49.5300   -3.0000  -26.6900 O.co2     3 ASP3        0.0000 
     27 OD1        46.4800   -2.2500  -25.5100 O.co2     3 ASP3        0.0000 
     28 OD1        45.6000   -1.4100  -26.3900 O.co2     3 ASP3        0.0000 
     29 OD1        43.6400   -0.6100  -26.2400 O.co2     3 ASP3        0.0000 
     30 OD1        49.8700   -2.6400  -24.1400 O.co2     3 ASP3        0.0000 
     31 OD1        47.9100   -1.8500  -23.9900 O.co2     3 ASP3        0.0000 
     32 OD1        47.0300   -1.0100  -24.8700 O.co2     3 ASP3        0.0000 
     33 OD1        48.1200   -0.9600  -25.9000 O.co2     3 ASP3        0.0000 
     34 OD1        45.0700   -0.2100  -24.7200 O.co2     3 ASP3        0.0000 
     35 OD1        46.1600   -0.1700  -25.7500 O.co2     3 ASP3        0.0000 
     36 OD1        47.2400   -0.1200  -26.7900 O.co2     3 ASP3        0.0000 
     37 OD1        48.3300   -0.0800  -27.8200 O.co2     3 ASP3        0.0000 
     38 OD1        44.2000    0.6300  -25.6000 O.co2     3 ASP3        0.0000 
     39 OD1        43.3200    1.4700  -26.4800 O.co2     3 ASP3        0.0000 
     40 OD1        42.4500    2.3100  -27.3700 O.co2     3 ASP3        0.0000 
     41 OD1        46.7100    1.0700  -25.1200 O.co2     3 ASP3        0.0000 
     42 OD1        47.8000    1.1200  -26.1500 O.co2     3 ASP3        0.0000 
     43 OD1        45.8400    1.9200  -26.0000 O.co2     3 ASP3        0.0000 
     44 OD1        46.9200    1.9600  -27.0300 O.co2     3 ASP3        0.0000 
     45 OD1        44.9600    2.7600  -26.8800 O.co2     3 ASP3        0.0000 
     46 NZ         44.0600   -8.1000  -26.1300 N.4       4 LYS4        0.0000 
     47 NZ         45.1400   -8.0500  -27.1700 N.4       4 LYS4        0.0000 
     48 NZ         45.7000   -6.8100  -26.5300 N.4       4 LYS4        0.0000 
     49 NZ         46.7800   -6.7700  -27.5600 N.4       4 LYS4        0.0000 
     50 NZ         43.7300   -6.0200  -26.3800 N.4       4 LYS4        0.0000 
     51 NZ         44.8200   -5.9700  -27.4100 N.4       4 LYS4        0.0000 
     52 NZ         47.3300   -5.5300  -26.9300 N.4       4 LYS4        0.0000 
     53 NZ         45.3700   -4.7300  -26.7800 N.4       4 LYS4        0.0000 
     54 NZ         46.8000   -4.3300  -25.2600 N.4       4 LYS4        0.0000 
     55 NZ         44.8400   -3.5400  -25.1100 N.4       4 LYS4        0.0000 
     56 NZ         45.9300   -3.4900  -26.1400 N.4       4 LYS4        0.0000 
     57 NZ         43.9800   -0.2600  -23.6900 N.4       4 LYS4        0.0000 
     58 NZ         43.1100    0.5800  -24.5700 N.4       4 LYS4        0.0000 
     59 NZ         42.5800    1.7800  -22.9000 N.4       4 LYS4        0.0000 
     60 NZ         43.6600    1.8300  -23.9300 N.4       4 LYS4        0.0000 
     61 NZ         44.7500    1.8700  -24.9700 N.4       4 LYS4        0.0000 
     62 CZ         43.1800   -7.2600  -27.0200 C.ar      5 PHE5        0.0000 
     63 CZ         41.1500    1.3800  -24.4200 C.ar      5 PHE5        0.0000 
     64 CZ         40.2800    2.2200  -25.3000 C.ar      5 PHE5        0.0000 
     65 CZ         41.7000    2.6200  -23.7800 C.ar      5 PHE5        0.0000 
     66 CA         44.5900   -9.3000  -27.8000 C.3       6 GLY6        0.0000 
     67 CA         45.6800   -9.2500  -28.8400 C.3       6 GLY6        0.0000 
     68 CA         42.6300   -8.5000  -27.6500 C.3       6 GLY6        0.0000 
     69 CA         43.7200   -8.4500  -28.6800 C.3       6 GLY6        0.0000 
     70 CA         44.8000   -8.4100  -29.7200 C.3       6 GLY6        0.0000 
     71 CA         46.4600   -4.6900  -27.8100 C.3       6 GLY6        0.0000 
     72 CA         44.5000   -3.8900  -27.6600 C.3       6 GLY6        0.0000 
     73 CA         47.8900   -4.2900  -26.2900 C.3       6 GLY6        0.0000 
     74 CA         48.9700   -4.2400  -27.3300 C.3       6 GLY6        0.0000 
     75 CA         47.0100   -3.4400  -27.1700 C.3       6 GLY6        0.0000 
     76 CA         45.0500   -2.6500  -27.0200 C.3       6 GLY6        0.0000 
     77 CA         49.9800   -5.6100  -21.9800 C.3       6 GLY6        0.0000 
     78 CA         49.1000   -4.7700  -22.8600 C.3       6 GLY6        0.0000 
     79 CA         47.5700   -2.2000  -26.5400 C.3       6 GLY6        0.0000 
     80 CA         48.6500   -2.1600  -27.5700 C.3       6 GLY6        0.0000 
     81 CA         46.6900   -1.3600  -27.4200 C.3       6 GLY6        0.0000 
     82 CA         49.6500   -3.5300  -22.2200 C.3       6 GLY6        0.0000 
     83 CA         50.7400   -3.4800  -23.2600 C.3       6 GLY6        0.0000 
     84 CA         48.7800   -2.6900  -23.1100 C.3       6 GLY6        0.0000 
     85 CA         42.0200    0.5400  -23.5400 C.3       6 GLY6        0.0000 
     86 CA         42.7900    2.6700  -24.8200 C.3       6 GLY6        0.0000 
     87 CA         43.8800    2.7100  -25.8500 C.3       6 GLY6        0.0000 
     88 CA         45.3000    3.1100  -24.3300 C.3       6 GLY6        0.0000 
     89 CA         46.3900    3.1600  -25.3600 C.3       6 GLY6        0.0000 
     90 DU         50.1900   -4.7300  -23.8900 H         7 CUB7        0.0000 
     91 DU         49.3100   -3.8900  -24.7700 H         7 CUB7        0.0000 
     92 DU         44.5200   -1.4500  -25.3600 H         7 CUB7        0.0000 
@<TRIPOS>BOND
@<TRIPOS>SUBSTRUCTURE
     1 SER1        1 GROUP   
     2 ALA2        3 GROUP   
     3 ASP3       25 GROUP   
     4 LYS4       46 GROUP   
     5 PHE5       62 GROUP   
     6 GLY6       66 GROUP   
     7 CUB7       90 GROUP   
@<TRIPOS>SET

