#    Name: 6f30_2_UD1
#    Modification time : Fri May 22 19:31:56 2020

@<TRIPOS>MOLECULE
6f30_2_UD1
   39    41     1     0     0
SMALL
NO_CHARGES


@<TRIPOS>ATOM
      1 C1'        11.3640  -19.3470    9.8450 C.3       1 UD11001     0.0000 
      2 C2'        11.6780  -19.7410   11.2920 C.3       1 UD11001     0.0000 
      3 C3'        11.1660  -21.1450   11.6190 C.3       1 UD11001     0.0000 
      4 C4'         9.7080  -21.3020   11.1960 C.3       1 UD11001     0.0000 
      5 C5'         9.5480  -20.9250    9.7230 C.3       1 UD11001     0.0000 
      6 C6'         8.1210  -20.9930    9.2270 C.3       1 UD11001     0.0000 
      7 C7'        13.6240  -18.9450   12.5910 C.2       1 UD11001     0.0000 
      8 C8'        15.1180  -18.9770   12.7110 C.3       1 UD11001     0.0000 
      9 N2'        13.1040  -19.6410   11.5660 N.am      1 UD11001     0.0000 
     10 O1'        12.2140  -19.9640    8.9000 O.3       1 UD11001     0.0000 
     11 O3'        11.2940  -21.3850   13.0160 O.3       1 UD11001     0.0000 
     12 O4'         9.2930  -22.6490   11.4030 O.3       1 UD11001     0.0000 
     13 O5'        10.0020  -19.5740    9.5070 O.3       1 UD11001     0.0000 
     14 O6'         7.7040  -22.3400    9.0470 O.3       1 UD11001     0.0000 
     15 O7'        12.9220  -18.3210   13.3830 O.2       1 UD11001     0.0000 
     16 N1         20.3880  -17.8870    7.6850 N.am      1 UD11001     0.0000 
     17 C2         21.5230  -18.5850    7.3070 C.2       1 UD11001     0.0000 
     18 N3         22.3890  -17.8890    6.4940 N.am      1 UD11001     0.0000 
     19 C4         22.2460  -16.5870    6.0440 C.2       1 UD11001     0.0000 
     20 C5         21.0590  -15.9210    6.4930 C.2       1 UD11001     0.0000 
     21 C6         20.1860  -16.5740    7.2820 C.2       1 UD11001     0.0000 
     22 O2         21.7590  -19.7290    7.6720 O.2       1 UD11001     0.0000 
     23 O4         23.1190  -16.0920    5.3160 O.2       1 UD11001     0.0000 
     24 C1B        19.3640  -18.6170    8.4770 C.3       1 UD11001     0.0000 
     25 C2B        19.4500  -18.4160    9.9940 C.3       1 UD11001     0.0000 
     26 O2'        19.1730  -19.6290   10.6880 O.3       1 UD11001     0.0000 
     27 C3B        18.4070  -17.3210   10.2380 C.3       1 UD11001     0.0000 
     28 C4B        17.3560  -17.6060    9.1690 C.3       1 UD11001     0.0000 
     29 O4B        18.0740  -18.2020    8.0660 O.3       1 UD11001     0.0000 
     30 O3B        17.8480  -17.3750   11.5460 O.3       1 UD11001     0.0000 
     31 C5B        16.6270  -16.3870    8.6650 C.3       1 UD11001     0.0000 
     32 O5B        15.4030  -16.1970    9.4020 O.3       1 UD11001     0.0000 
     33 PA         13.9450  -16.6500    9.0000 P.3       1 UD11001     0.0000 
     34 O1A        13.2950  -15.8330    7.9520 O.co2     1 UD11001     0.0000 
     35 O2A        13.1090  -16.6800   10.2530 O.co2     1 UD11001     0.0000 
     36 O3A        14.0930  -18.1590    8.5210 O.3       1 UD11001     0.0000 
     37 PB         13.1590  -19.2360    7.8130 P.3       1 UD11001     0.0000 
     38 O1B        14.1330  -20.2700    7.3020 O.co2     1 UD11001     0.0000 
     39 O2B        12.4370  -18.6150    6.6800 O.co2     1 UD11001     0.0000 
@<TRIPOS>BOND
     1    1    2 1    
     2    1   10 1    
     3    1   13 1    
     4    2    3 1    
     5    2    9 1    
     6    3    4 1    
     7    3   11 1    
     8    4    5 1    
     9    4   12 1    
    10    5    6 1    
    11    5   13 1    
    12    6   14 1    
    13    7    8 1    
    14    7    9 am   
    15    7   15 2    
    16   10   37 1    
    17   16   17 1    
    18   16   21 1    
    19   16   24 1    
    20   17   18 1    
    21   17   22 2    
    22   18   19 1    
    23   19   20 1    
    24   19   23 2    
    25   20   21 2    
    26   24   25 1    
    27   24   29 1    
    28   25   26 1    
    29   25   27 1    
    30   27   28 1    
    31   27   30 1    
    32   28   29 1    
    33   28   31 1    
    34   31   32 1    
    35   32   33 1    
    36   33   34 ar   
    37   33   35 ar   
    38   33   36 1    
    39   36   37 1    
    40   37   38 ar   
    41   37   39 ar   
@<TRIPOS>SUBSTRUCTURE
     1 UD11001     1 GROUP   
@<TRIPOS>SET

