#    Name: 6f30_2_UD1_CAVITY_N1_4
#    Modification time : Fri May 22 19:31:57 2020

@<TRIPOS>MOLECULE
6f30_2_UD1_CAVITY_N1_4
   73     0     6     0     0
SMALL
NO_CHARGES


@<TRIPOS>ATOM
      1 OG          8.7600  -20.2500    9.7100 O.3       1 SER1        0.0000 
      2 OG          8.0300  -21.9400   10.7600 O.3       1 SER1        0.0000 
      3 OG          7.7700  -25.0300   12.0300 O.3       1 SER1        0.0000 
      4 OG          7.3000  -23.6300   11.8200 O.3       1 SER1        0.0000 
      5 OG          6.8200  -22.2200   11.6100 O.3       1 SER1        0.0000 
      6 OG          5.6100  -22.5000   12.4500 O.3       1 SER1        0.0000 
      7 OG          8.7800  -21.5000   11.9900 O.3       1 SER1        0.0000 
      8 OG          8.0500  -23.1900   13.0400 O.3       1 SER1        0.0000 
      9 OG          7.5700  -21.7800   12.8300 O.3       1 SER1        0.0000 
     10 OG          6.8400  -23.4700   13.8800 O.3       1 SER1        0.0000 
     11 OG         11.4700  -19.0900   11.3100 O.3       1 SER1        0.0000 
     12 OG          7.8400  -19.9400   13.8400 O.3       1 SER1        0.0000 
     13 OG          9.8000  -19.2200   14.2200 O.3       1 SER1        0.0000 
     14 OG          8.5900  -19.5000   15.0600 O.3       1 SER1        0.0000 
     15 N           7.0100  -24.2200    8.5300 N.am      2 ALA2        0.0000 
     16 N          11.3800  -22.9400    7.2200 N.am      2 ALA2        0.0000 
     17 N          10.6500  -24.6200    8.2800 N.am      2 ALA2        0.0000 
     18 N           8.0100  -20.6900    8.4900 N.am      2 ALA2        0.0000 
     19 N           8.2300  -25.1900    9.9600 N.am      2 ALA2        0.0000 
     20 N           7.7600  -23.7800    9.7500 N.am      2 ALA2        0.0000 
     21 N           7.0200  -25.4700   10.8100 N.am      2 ALA2        0.0000 
     22 N          12.3900  -19.4000    7.1800 N.am      2 ALA2        0.0000 
     23 N          12.6100  -23.9000    8.6600 N.am      2 ALA2        0.0000 
     24 N          12.1300  -22.5000    8.4500 N.am      2 ALA2        0.0000 
     25 N          11.6500  -21.0900    8.2400 N.am      2 ALA2        0.0000 
     26 N          11.4000  -24.1900    9.5000 N.am      2 ALA2        0.0000 
     27 N          10.6700  -25.8800   10.5600 N.am      2 ALA2        0.0000 
     28 N          13.6100  -20.3700    8.6200 N.am      2 ALA2        0.0000 
     29 N          13.3600  -23.4700    9.8800 N.am      2 ALA2        0.0000 
     30 N           6.3600  -22.0700   13.6700 N.am      2 ALA2        0.0000 
     31 OD1         8.6900  -25.3500    7.9000 O.co2     3 ASP3        0.0000 
     32 OD1        10.1700  -23.2200    8.0700 O.co2     3 ASP3        0.0000 
     33 OD1         9.7000  -21.8100    7.8600 O.co2     3 ASP3        0.0000 
     34 OD1         9.4400  -24.9100    9.1200 O.co2     3 ASP3        0.0000 
     35 OD1         8.9600  -23.5000    8.9100 O.co2     3 ASP3        0.0000 
     36 OD1         8.4900  -22.0900    8.7000 O.co2     3 ASP3        0.0000 
     37 OD1        13.8900  -18.5200    9.6300 O.co2     3 ASP3        0.0000 
     38 OD1        13.4100  -17.1200    9.4200 O.co2     3 ASP3        0.0000 
     39 OD1        12.6800  -18.8100   10.4700 O.co2     3 ASP3        0.0000 
     40 OD1        13.4300  -18.3700   11.6900 O.co2     3 ASP3        0.0000 
     41 CZ         11.1800  -19.6800    8.0200 C.ar      4 PHE5        0.0000 
     42 CZ          9.9700  -19.9700    8.8700 C.ar      4 PHE5        0.0000 
     43 CZ         13.1400  -18.9600    8.4000 C.ar      4 PHE5        0.0000 
     44 CZ         12.6600  -17.5600    8.1900 C.ar      4 PHE5        0.0000 
     45 CZ         11.9300  -19.2500    9.2500 C.ar      4 PHE5        0.0000 
     46 CZ         10.7200  -19.5300   10.0900 C.ar      4 PHE5        0.0000 
     47 CZ          9.5100  -19.8100   10.9300 C.ar      4 PHE5        0.0000 
     48 CA          9.2200  -20.4100    7.6400 C.3       5 GLY6        0.0000 
     49 CA          7.2800  -22.3800    9.5400 C.3       5 GLY6        0.0000 
     50 CA          6.5500  -24.0700   10.6000 C.3       5 GLY6        0.0000 
     51 CA          6.0700  -22.6600   10.3800 C.3       5 GLY6        0.0000 
     52 CA         14.8200  -20.0900    7.7700 C.3       5 GLY6        0.0000 
     53 CA         14.3400  -18.6800    7.5600 C.3       5 GLY6        0.0000 
     54 CA         14.0900  -21.7800    8.8300 C.3       5 GLY6        0.0000 
     55 CA         15.5700  -19.6500    9.0000 C.3       5 GLY6        0.0000 
     56 CA         15.0900  -18.2400    8.7800 C.3       5 GLY6        0.0000 
     57 CA         14.6200  -16.8400    8.5700 C.3       5 GLY6        0.0000 
     58 CA         14.3600  -19.9300    9.8400 C.3       5 GLY6        0.0000 
     59 DU         10.9200  -22.7800    9.2900 H         6 CUB7        0.0000 
     60 DU         10.4500  -21.3700    9.0800 H         6 CUB7        0.0000 
     61 DU         10.1900  -24.4700   10.3400 H         6 CUB7        0.0000 
     62 DU          9.7100  -23.0600   10.1300 H         6 CUB7        0.0000 
     63 DU          9.2400  -21.6600    9.9200 H         6 CUB7        0.0000 
     64 DU          9.4600  -26.1600   11.4000 H         6 CUB7        0.0000 
     65 DU          8.9800  -24.7500   11.1900 H         6 CUB7        0.0000 
     66 DU          8.5100  -23.3500   10.9800 H         6 CUB7        0.0000 
     67 DU         12.8800  -22.0600    9.6700 H         6 CUB7        0.0000 
     68 DU         12.4000  -20.6500    9.4600 H         6 CUB7        0.0000 
     69 DU         11.2000  -20.9400   10.3000 H         6 CUB7        0.0000 
     70 DU          9.9900  -21.2200   11.1400 H         6 CUB7        0.0000 
     71 DU         13.1500  -20.2100   10.6800 H         6 CUB7        0.0000 
     72 DU          8.3200  -21.3500   14.0500 H         6 CUB7        0.0000 
     73 DU         15.1100  -19.4900   11.0600 H         6 CUB7        0.0000 
@<TRIPOS>BOND
@<TRIPOS>SUBSTRUCTURE
     1 SER1        1 GROUP   
     2 ALA2       15 GROUP   
     3 ASP3       31 GROUP   
     4 PHE5       41 GROUP   
     5 GLY6       48 GROUP   
     6 CUB7       59 GROUP   
@<TRIPOS>SET

