#    Name: 6f30_1_UD1_CAVITY_N1_8
#    Modification time : Fri May 22 19:31:48 2020

@<TRIPOS>MOLECULE
6f30_1_UD1_CAVITY_N1_8
   76     0     7     0     0
SMALL
NO_CHARGES


@<TRIPOS>ATOM
      1 OG         -7.0100   18.1500   24.0200 O.3       1 SER1        0.0000 
      2 OG         -6.9900   16.9000   26.3000 O.3       1 SER1        0.0000 
      3 OG         -7.4700   18.3100   26.0900 O.3       1 SER1        0.0000 
      4 OG         -7.9400   19.7100   25.8800 O.3       1 SER1        0.0000 
      5 OG         -8.2000   16.6200   27.1400 O.3       1 SER1        0.0000 
      6 OG         -8.6700   18.0200   26.9300 O.3       1 SER1        0.0000 
      7 OG         -9.8800   17.7400   27.7700 O.3       1 SER1        0.0000 
      8 OG         -6.7200   18.7500   27.3100 O.3       1 SER1        0.0000 
      9 OG         -7.9200   18.4600   28.1500 O.3       1 SER1        0.0000 
     10 OG         -8.4000   19.8700   27.9400 O.3       1 SER1        0.0000 
     11 OG         -9.1300   18.1800   29.0000 O.3       1 SER1        0.0000 
     12 OG         -8.3800   18.6200   30.2200 O.3       1 SER1        0.0000 
     13 O         -15.3000   15.4200   24.5700 O.2       2 ALA2        0.0000 
     14 O         -14.0700   14.4600   26.0000 O.2       2 ALA2        0.0000 
     15 O         -14.5500   15.8600   25.7900 O.2       2 ALA2        0.0000 
     16 O         -15.0300   17.2700   25.5800 O.2       2 ALA2        0.0000 
     17 OD1       -12.4100   14.5800   23.0900 O.co2     3 ASP3        0.0000 
     18 OD1       -10.4500   15.3000   23.4700 O.co2     3 ASP3        0.0000 
     19 OD1       -11.6600   15.0200   24.3200 O.co2     3 ASP3        0.0000 
     20 OD1       -10.9100   15.4600   25.5400 O.co2     3 ASP3        0.0000 
     21 NZ         -9.7000   15.7400   24.7000 N.4       4 LYS4        0.0000 
     22 NZ         -7.7400   16.4600   25.0800 N.4       4 LYS4        0.0000 
     23 NZ         -8.9500   16.1800   25.9200 N.4       4 LYS4        0.0000 
     24 NZ         -9.4100   16.3400   27.9800 N.4       4 LYS4        0.0000 
     25 CZ        -13.1600   14.1400   21.8700 C.ar      5 PHE5        0.0000 
     26 CZ        -14.3700   13.8600   22.7100 C.ar      5 PHE5        0.0000 
     27 CZ        -13.6200   14.3000   23.9400 C.ar      5 PHE5        0.0000 
     28 CZ        -12.8600   14.7400   25.1600 C.ar      5 PHE5        0.0000 
     29 CZ         -7.6700   21.5600   26.8900 C.ar      5 PHE5        0.0000 
     30 CZ         -8.8800   21.2800   27.7300 C.ar      5 PHE5        0.0000 
     31 CZ         -9.3500   22.6800   27.5200 C.ar      5 PHE5        0.0000 
     32 CZ        -10.0900   20.9900   28.5700 C.ar      5 PHE5        0.0000 
     33 CZ        -10.5600   22.4000   28.3600 C.ar      5 PHE5        0.0000 
     34 CZ        -10.3400   17.9000   29.8400 C.ar      5 PHE5        0.0000 
     35 CZ        -10.8200   19.3000   29.6300 C.ar      5 PHE5        0.0000 
     36 CZ        -11.2900   20.7100   29.4200 C.ar      5 PHE5        0.0000 
     37 CZ         -8.8600   20.0200   30.0100 C.ar      5 PHE5        0.0000 
     38 CZ         -9.3400   21.4300   29.8000 C.ar      5 PHE5        0.0000 
     39 CZ         -9.8100   22.8400   29.5800 C.ar      5 PHE5        0.0000 
     40 CZ        -10.0700   19.7400   30.8500 C.ar      5 PHE5        0.0000 
     41 CZ        -10.5400   21.1500   30.6400 C.ar      5 PHE5        0.0000 
     42 CZ         -7.6300   19.0600   31.4400 C.ar      5 PHE5        0.0000 
     43 CZ         -8.1100   20.4600   31.2300 C.ar      5 PHE5        0.0000 
     44 CA        -16.0500   14.9900   23.3400 C.3       6 GLY6        0.0000 
     45 CA        -14.8200   14.0200   24.7800 C.3       6 GLY6        0.0000 
     46 CA        -12.1100   15.1800   26.3800 C.3       6 GLY6        0.0000 
     47 CA        -12.5900   16.5800   26.1700 C.3       6 GLY6        0.0000 
     48 CA        -13.8000   16.3000   27.0100 C.3       6 GLY6        0.0000 
     49 CA        -10.1600   15.9000   26.7600 C.3       6 GLY6        0.0000 
     50 CA        -11.1100   18.7100   26.3400 C.3       6 GLY6        0.0000 
     51 CA        -11.8400   17.0200   27.3900 C.3       6 GLY6        0.0000 
     52 CA         -5.7800   17.1800   25.4600 C.3       6 GLY6        0.0000 
     53 CA         -6.2600   18.5900   25.2500 C.3       6 GLY6        0.0000 
     54 CA        -10.3600   19.1500   27.5600 C.3       6 GLY6        0.0000 
     55 CA        -10.8400   20.5500   27.3500 C.3       6 GLY6        0.0000 
     56 CA        -11.3100   21.9600   27.1400 C.3       6 GLY6        0.0000 
     57 CA        -11.0900   17.4600   28.6200 C.3       6 GLY6        0.0000 
     58 CA        -11.5700   18.8700   28.4000 C.3       6 GLY6        0.0000 
     59 CA        -11.7700   22.1200   29.2000 C.3       6 GLY6        0.0000 
     60 CA         -9.5900   18.3400   31.0600 C.3       6 GLY6        0.0000 
     61 CA         -8.8400   18.7700   32.2800 C.3       6 GLY6        0.0000 
     62 CA         -9.3200   20.1800   32.0700 C.3       6 GLY6        0.0000 
     63 DU        -14.8400   15.2700   22.5000 H         7 CUB7        0.0000 
     64 DU        -12.8800   15.9900   22.8800 H         7 CUB7        0.0000 
     65 DU        -14.0900   15.7100   23.7200 H         7 CUB7        0.0000 
     66 DU        -13.3400   16.1400   24.9500 H         7 CUB7        0.0000 
     67 DU         -8.9700   17.4300   23.6400 H         7 CUB7        0.0000 
     68 DU        -10.1800   17.1500   24.4800 H         7 CUB7        0.0000 
     69 DU        -11.3800   16.8700   25.3300 H         7 CUB7        0.0000 
     70 DU         -8.2200   17.8700   24.8700 H         7 CUB7        0.0000 
     71 DU         -9.4200   17.5900   25.7100 H         7 CUB7        0.0000 
     72 DU         -9.9000   18.9900   25.5000 H         7 CUB7        0.0000 
     73 DU        -10.6300   17.3000   26.5500 H         7 CUB7        0.0000 
     74 DU         -9.1500   19.4300   26.7200 H         7 CUB7        0.0000 
     75 DU         -9.6300   20.8400   26.5100 H         7 CUB7        0.0000 
     76 DU         -9.6100   19.5900   28.7800 H         7 CUB7        0.0000 
@<TRIPOS>BOND
@<TRIPOS>SUBSTRUCTURE
     1 SER1        1 GROUP   
     2 ALA2       13 GROUP   
     3 ASP3       17 GROUP   
     4 LYS4       21 GROUP   
     5 PHE5       25 GROUP   
     6 GLY6       44 GROUP   
     7 CUB7       63 GROUP   
@<TRIPOS>SET

