#    Name: 6f30_1_UD1
#    Modification time : Fri May 22 19:31:47 2020

@<TRIPOS>MOLECULE
6f30_1_UD1
   39    41     1     0     0
SMALL
NO_CHARGES


@<TRIPOS>ATOM
      1 C1'       -13.3820   14.6000   23.1130 C.3       1 UD11001     0.0000 
      2 C2'       -12.7350   15.4450   22.0140 C.3       1 UD11001     0.0000 
      3 C3'       -13.7970   16.0770   21.1150 C.3       1 UD11001     0.0000 
      4 C4'       -14.7470   15.0080   20.5860 C.3       1 UD11001     0.0000 
      5 C5'       -15.3510   14.2030   21.7390 C.3       1 UD11001     0.0000 
      6 C6'       -16.1800   13.0230   21.2740 C.3       1 UD11001     0.0000 
      7 C7'       -10.6130   16.7020   22.1080 C.2       1 UD11001     0.0000 
      8 C8'        -9.8760   17.8250   22.7730 C.3       1 UD11001     0.0000 
      9 N2'       -11.8540   16.4630   22.5650 N.am      1 UD11001     0.0000 
     10 O1'       -13.9660   15.3820   24.1480 O.3       1 UD11001     0.0000 
     11 O3'       -13.1670   16.7430   20.0260 O.3       1 UD11001     0.0000 
     12 O4'       -15.7840   15.6350   19.8390 O.3       1 UD11001     0.0000 
     13 O5'       -14.3140   13.6620   22.5880 O.3       1 UD11001     0.0000 
     14 O6'       -17.3780   13.4310   20.6230 O.3       1 UD11001     0.0000 
     15 O7'       -10.1100   16.0450   21.2000 O.2       1 UD11001     0.0000 
     16 N1         -9.5610   20.0080   29.8870 N.am      1 UD11001     0.0000 
     17 C2         -9.9530   21.1220   30.6060 C.2       1 UD11001     0.0000 
     18 N3         -9.5610   21.1290   31.9270 N.am      1 UD11001     0.0000 
     19 C4         -8.8320   20.1530   32.5840 C.2       1 UD11001     0.0000 
     20 C5         -8.4630   19.0290   31.7750 C.2       1 UD11001     0.0000 
     21 C6         -8.8260   18.9920   30.4790 C.2       1 UD11001     0.0000 
     22 O2        -10.6090   22.0360   30.1230 O.2       1 UD11001     0.0000 
     23 O4         -8.5380   20.3100   33.7790 O.2       1 UD11001     0.0000 
     24 C1B       -10.0130   19.9030   28.4830 C.3       1 UD11001     0.0000 
     25 C2B        -8.8920   19.9640   27.4380 C.3       1 UD11001     0.0000 
     26 O2'        -8.6750   21.2930   26.9780 O.3       1 UD11001     0.0000 
     27 C3B        -9.4600   19.0830   26.3240 C.3       1 UD11001     0.0000 
     28 C4B       -10.2380   18.0230   27.0960 C.3       1 UD11001     0.0000 
     29 O4B       -10.6650   18.6570   28.3210 O.3       1 UD11001     0.0000 
     30 O3B       -10.3290   19.7920   25.4440 O.3       1 UD11001     0.0000 
     31 C5B        -9.4950   16.7470   27.4090 C.3       1 UD11001     0.0000 
     32 O5B        -9.5460   15.8890   26.2530 O.3       1 UD11001     0.0000 
     33 PA        -10.7050   14.9110   25.8430 P.3       1 UD11001     0.0000 
     34 O1A       -10.5600   14.4360   24.4540 O.co2     1 UD11001     0.0000 
     35 O2A       -10.6900   13.7330   26.8020 O.co2     1 UD11001     0.0000 
     36 O3A       -12.0940   15.6730   25.9990 O.3       1 UD11001     0.0000 
     37 PB        -13.6280   15.3250   25.7450 P.3       1 UD11001     0.0000 
     38 O1B       -14.4030   16.4370   26.4410 O.co2     1 UD11001     0.0000 
     39 O2B       -13.9630   14.0330   26.3840 O.co2     1 UD11001     0.0000 
@<TRIPOS>BOND
     1    1    2 1    
     2    1   10 1    
     3    1   13 1    
     4    2    3 1    
     5    2    9 1    
     6    3    4 1    
     7    3   11 1    
     8    4    5 1    
     9    4   12 1    
    10    5    6 1    
    11    5   13 1    
    12    6   14 1    
    13    7    8 1    
    14    7    9 am   
    15    7   15 2    
    16   10   37 1    
    17   16   17 1    
    18   16   21 1    
    19   16   24 1    
    20   17   18 1    
    21   17   22 2    
    22   18   19 1    
    23   19   20 1    
    24   19   23 2    
    25   20   21 2    
    26   24   25 1    
    27   24   29 1    
    28   25   26 1    
    29   25   27 1    
    30   27   28 1    
    31   27   30 1    
    32   28   29 1    
    33   28   31 1    
    34   31   32 1    
    35   32   33 1    
    36   33   34 ar   
    37   33   35 ar   
    38   33   36 1    
    39   36   37 1    
    40   37   38 ar   
    41   37   39 ar   
@<TRIPOS>SUBSTRUCTURE
     1 UD11001     1 GROUP   
@<TRIPOS>SET

