#    Name: 5zq8_1_SAH
#    Modification time : Fri May 22 19:26:59 2020

@<TRIPOS>MOLECULE
5zq8_1_SAH
   26    28     1     0     0
SMALL
NO_CHARGES


@<TRIPOS>ATOM
      1 N          16.2250   23.6660   77.4070 N.4       1 SAH501      0.0000 
      2 CA         14.7770   23.2890   77.4060 C.3       1 SAH501      0.0000 
      3 CB         14.5360   22.1790   76.3840 C.3       1 SAH501      0.0000 
      4 CG         14.4750   22.7550   74.9820 C.3       1 SAH501      0.0000 
      5 SD         12.8880   22.5910   74.2270 S.3       1 SAH501      0.0000 
      6 C          14.4060   22.8140   78.7810 C.2       1 SAH501      0.0000 
      7 O          14.8510   21.7340   79.1910 O.co2     1 SAH501      0.0000 
      8 OXT        13.6760   23.4960   79.5160 O.co2     1 SAH501      0.0000 
      9 C5'        13.3090   22.7370   72.5240 C.3       1 SAH501      0.0000 
     10 C4'        13.9040   24.1270   72.2990 C.3       1 SAH501      0.0000 
     11 O4'        14.7210   24.0930   71.1380 O.3       1 SAH501      0.0000 
     12 C3'        12.8220   25.1790   72.0980 C.3       1 SAH501      0.0000 
     13 O3'        13.1700   26.3330   72.8710 O.3       1 SAH501      0.0000 
     14 C2'        12.8240   25.3960   70.5930 C.3       1 SAH501      0.0000 
     15 O2'        12.3940   26.7050   70.2110 O.3       1 SAH501      0.0000 
     16 C1'        14.2920   25.1160   70.2490 C.3       1 SAH501      0.0000 
     17 N9         14.5900   24.6350   68.8790 N.pl3     1 SAH501      0.0000 
     18 C8         13.7330   24.0740   68.0270 C.2       1 SAH501      0.0000 
     19 N7         14.3400   23.7860   66.8770 N.2       1 SAH501      0.0000 
     20 C5         15.6140   24.1550   66.9840 C.ar      1 SAH501      0.0000 
     21 C6         16.7930   24.0850   66.0990 C.ar      1 SAH501      0.0000 
     22 N6         16.6230   23.5440   64.8630 N.pl3     1 SAH501      0.0000 
     23 N1         17.9760   24.5720   66.5740 N.ar      1 SAH501      0.0000 
     24 C2         18.0830   25.1110   67.8210 C.ar      1 SAH501      0.0000 
     25 N3         17.0330   25.1990   68.6820 N.ar      1 SAH501      0.0000 
     26 C4         15.7930   24.7320   68.3160 C.ar      1 SAH501      0.0000 
@<TRIPOS>BOND
     1    1    2 1    
     2    2    3 1    
     3    2    6 1    
     4    3    4 1    
     5    4    5 1    
     6    5    9 1    
     7    6    7 ar   
     8    6    8 ar   
     9    9   10 1    
    10   10   11 1    
    11   10   12 1    
    12   11   16 1    
    13   12   13 1    
    14   12   14 1    
    15   14   15 1    
    16   14   16 1    
    17   16   17 1    
    18   17   18 1    
    19   17   26 1    
    20   18   19 2    
    21   19   20 1    
    22   20   21 ar   
    23   20   26 ar   
    24   21   22 1    
    25   21   23 ar   
    26   23   24 ar   
    27   24   25 ar   
    28   25   26 ar   
@<TRIPOS>SUBSTRUCTURE
     1 SAH501      1 GROUP   
@<TRIPOS>SET

