#    Name: 5zq8_2_SAH
#    Modification time : Fri May 22 19:27:06 2020

@<TRIPOS>MOLECULE
5zq8_2_SAH
   26    28     1     0     0
SMALL
NO_CHARGES


@<TRIPOS>ATOM
      1 N          10.2860   29.2570   35.1620 N.4       1 SAH501      0.0000 
      2 CA         11.6530   28.7280   35.4760 C.3       1 SAH501      0.0000 
      3 CB         11.7890   28.1860   36.9250 C.3       1 SAH501      0.0000 
      4 CG         10.6370   28.3900   37.9280 C.3       1 SAH501      0.0000 
      5 SD         10.3400   26.9190   38.9010 S.3       1 SAH501      0.0000 
      6 C          12.0490   27.7010   34.4030 C.2       1 SAH501      0.0000 
      7 O          11.3560   27.4880   33.3840 O.co2     1 SAH501      0.0000 
      8 OXT        13.1110   27.0530   34.4740 O.co2     1 SAH501      0.0000 
      9 C5'        10.5760   27.3560   40.5990 C.3       1 SAH501      0.0000 
     10 C4'        12.0530   27.1870   40.9830 C.3       1 SAH501      0.0000 
     11 O4'        12.3070   27.9600   42.1600 O.3       1 SAH501      0.0000 
     12 C3'        12.4330   25.7370   41.2990 C.3       1 SAH501      0.0000 
     13 O3'        13.5870   25.3220   40.5530 O.3       1 SAH501      0.0000 
     14 C2'        12.6740   25.7270   42.8060 C.3       1 SAH501      0.0000 
     15 O2'        13.6850   24.7900   43.2070 O.3       1 SAH501      0.0000 
     16 C1'        13.0530   27.1890   43.1030 C.3       1 SAH501      0.0000 
     17 N9         12.7820   27.6850   44.4820 N.pl3     1 SAH501      0.0000 
     18 C8         11.8610   27.2120   45.3470 C.2       1 SAH501      0.0000 
     19 N7         11.8930   27.8890   46.5110 N.2       1 SAH501      0.0000 
     20 C5         12.8400   28.8260   46.3990 C.ar      1 SAH501      0.0000 
     21 C6         13.3620   29.8830   47.2870 C.ar      1 SAH501      0.0000 
     22 N6         12.8150   30.0090   48.5230 N.pl3     1 SAH501      0.0000 
     23 N1         14.3700   30.6730   46.8190 N.ar      1 SAH501      0.0000 
     24 C2         14.8840   30.4970   45.5710 C.ar      1 SAH501      0.0000 
     25 N3         14.4500   29.5450   44.7040 N.ar      1 SAH501      0.0000 
     26 C4         13.4440   28.6910   45.0640 C.ar      1 SAH501      0.0000 
@<TRIPOS>BOND
     1    1    2 1    
     2    2    3 1    
     3    2    6 1    
     4    3    4 1    
     5    4    5 1    
     6    5    9 1    
     7    6    7 ar   
     8    6    8 ar   
     9    9   10 1    
    10   10   11 1    
    11   10   12 1    
    12   11   16 1    
    13   12   13 1    
    14   12   14 1    
    15   14   15 1    
    16   14   16 1    
    17   16   17 1    
    18   17   18 1    
    19   17   26 1    
    20   18   19 2    
    21   19   20 1    
    22   20   21 ar   
    23   20   26 ar   
    24   21   22 1    
    25   21   23 ar   
    26   23   24 ar   
    27   24   25 ar   
    28   25   26 ar   
@<TRIPOS>SUBSTRUCTURE
     1 SAH501      1 GROUP   
@<TRIPOS>SET

