#    Name: 5oal_6_SY9_CAVITY_N1_4
#    Modification time : Fri May 22 19:13:56 2020

@<TRIPOS>MOLECULE
5oal_6_SY9_CAVITY_N1_4
  147     0     7     0     0
SMALL
NO_CHARGES


@<TRIPOS>ATOM
      1 OG         32.1300  -55.5800   -2.0300 O.3       1 SER1        0.0000 
      2 OG         33.1600  -56.6300   -1.7500 O.3       1 SER1        0.0000 
      3 OG         32.5500  -55.5400   -3.4700 O.3       1 SER1        0.0000 
      4 OG         32.7000  -54.5400   -0.2700 O.3       1 SER1        0.0000 
      5 OG         33.1200  -54.5100   -1.7100 O.3       1 SER1        0.0000 
      6 OG         34.1600  -55.5500   -1.4300 O.3       1 SER1        0.0000 
      7 OG         27.3400  -48.1800   -4.8200 O.3       1 SER1        0.0000 
      8 OG         33.5500  -54.4700   -3.1400 O.3       1 SER1        0.0000 
      9 OG         34.5900  -55.5100   -2.8600 O.3       1 SER1        0.0000 
     10 OG         27.3000  -46.0500   -4.7700 O.3       1 SER1        0.0000 
     11 OG         28.3300  -47.1000   -4.4900 O.3       1 SER1        0.0000 
     12 OG         34.5500  -53.3900   -2.8200 O.3       1 SER1        0.0000 
     13 OG         35.5800  -54.4400   -2.5400 O.3       1 SER1        0.0000 
     14 OG         29.8000  -48.1100   -5.6500 O.3       1 SER1        0.0000 
     15 OG         33.9400  -52.3100   -4.5300 O.3       1 SER1        0.0000 
     16 OG         34.9700  -53.3500   -4.2600 O.3       1 SER1        0.0000 
     17 OG         36.0100  -54.4000   -3.9800 O.3       1 SER1        0.0000 
     18 OG         30.2200  -48.0700   -7.0900 O.3       1 SER1        0.0000 
     19 OG         35.4000  -53.3200   -5.6900 O.3       1 SER1        0.0000 
     20 OG         29.7600  -45.9900   -5.6000 O.3       1 SER1        0.0000 
     21 OG         30.7900  -47.0400   -5.3300 O.3       1 SER1        0.0000 
     22 OG         35.9700  -52.2800   -3.9300 O.3       1 SER1        0.0000 
     23 OG         37.0100  -53.3300   -3.6500 O.3       1 SER1        0.0000 
     24 OG         36.4000  -52.2400   -5.3700 O.3       1 SER1        0.0000 
     25 OG         30.5100  -46.0900   -0.6900 O.3       1 SER1        0.0000 
     26 OG         30.9400  -46.0500   -2.1300 O.3       1 SER1        0.0000 
     27 OG         31.9700  -47.1000   -1.8500 O.3       1 SER1        0.0000 
     28 OG         33.0100  -48.1400   -1.5700 O.3       1 SER1        0.0000 
     29 N          27.5600  -51.4200   -1.7100 N.am      2 ALA2        0.0000 
     30 N          27.9800  -51.3800   -3.1500 N.am      2 ALA2        0.0000 
     31 O          27.3700  -50.3000   -4.8600 O.2       2 ALA2        0.0000 
     32 N          27.8000  -50.2600   -6.3000 N.am      2 ALA2        0.0000 
     33 N          28.1300  -50.3900    0.0500 N.am      2 ALA2        0.0000 
     34 N          29.1600  -51.4400    0.3300 N.am      2 ALA2        0.0000 
     35 N          28.5500  -50.3500   -1.3800 N.am      2 ALA2        0.0000 
     36 N          28.9800  -50.3100   -2.8200 N.am      2 ALA2        0.0000 
     37 N          28.3700  -49.2200   -4.5400 N.am      2 ALA2        0.0000 
     38 N          28.0900  -48.2700    0.1000 N.am      2 ALA2        0.0000 
     39 N          27.4800  -47.1800   -1.6200 N.am      2 ALA2        0.0000 
     40 N          28.5200  -48.2300   -1.3400 N.am      2 ALA2        0.0000 
     41 N          29.5500  -49.2800   -1.0600 N.am      2 ALA2        0.0000 
     42 N          27.9100  -47.1400   -3.0500 N.am      2 ALA2        0.0000 
     43 N          28.9400  -48.1900   -2.7800 N.am      2 ALA2        0.0000 
     44 N          28.4800  -46.1100   -1.2900 N.am      2 ALA2        0.0000 
     45 OD1        32.2600  -48.0500   -6.4800 O.co2     3 ASP3        0.0000 
     46 OD1        32.6800  -48.0100   -7.9200 O.co2     3 ASP3        0.0000 
     47 OD1        33.2500  -46.9800   -6.1600 O.co2     3 ASP3        0.0000 
     48 OD1        34.2900  -48.0300   -5.8800 O.co2     3 ASP3        0.0000 
     49 NZ         28.1700  -52.5100    0.0100 N.4       4 LYS4        0.0000 
     50 NZ         28.5900  -52.4700   -1.4300 N.4       4 LYS4        0.0000 
     51 NZ         31.7000  -55.6200   -0.5900 N.4       4 LYS4        0.0000 
     52 NZ         29.0200  -52.4300   -2.8700 N.4       4 LYS4        0.0000 
     53 NZ         30.0500  -53.4800   -2.5900 N.4       4 LYS4        0.0000 
     54 NZ         31.0900  -54.5300   -2.3100 N.4       4 LYS4        0.0000 
     55 NZ         30.2000  -52.4900    0.6100 N.4       4 LYS4        0.0000 
     56 NZ         31.2300  -53.5300    0.8900 N.4       4 LYS4        0.0000 
     57 NZ         29.5900  -51.4000   -1.1100 N.4       4 LYS4        0.0000 
     58 NZ         30.6300  -52.4500   -0.8300 N.4       4 LYS4        0.0000 
     59 NZ         31.6600  -53.5000   -0.5500 N.4       4 LYS4        0.0000 
     60 CZ         28.4100  -51.3400   -4.5800 C.ar      5 PHE5        0.0000 
     61 CZ         29.4500  -52.3900   -4.3100 C.ar      5 PHE5        0.0000 
     62 CZ         30.4800  -53.4400   -4.0300 C.ar      5 PHE5        0.0000 
     63 CZ         31.5200  -54.4900   -3.7500 C.ar      5 PHE5        0.0000 
     64 CZ         28.8400  -51.3100   -6.0200 C.ar      5 PHE5        0.0000 
     65 CZ         31.4800  -52.3700   -3.7000 C.ar      5 PHE5        0.0000 
     66 CZ         32.5100  -53.4200   -3.4200 C.ar      5 PHE5        0.0000 
     67 CZ         30.8700  -51.2800   -5.4200 C.ar      5 PHE5        0.0000 
     68 CZ         31.9100  -52.3300   -5.1400 C.ar      5 PHE5        0.0000 
     69 CZ         32.9400  -53.3800   -4.8600 C.ar      5 PHE5        0.0000 
     70 CZ         31.3000  -51.2400   -6.8600 C.ar      5 PHE5        0.0000 
     71 CZ         33.3700  -53.3400   -6.3000 C.ar      5 PHE5        0.0000 
     72 CZ         31.7200  -51.2000   -8.2900 C.ar      5 PHE5        0.0000 
     73 CZ         29.1200  -49.3200    0.3800 C.ar      5 PHE5        0.0000 
     74 CZ         30.1600  -50.3700    0.6600 C.ar      5 PHE5        0.0000 
     75 CZ         31.2000  -51.4100    0.9400 C.ar      5 PHE5        0.0000 
     76 CZ         32.2300  -52.4600    1.2200 C.ar      5 PHE5        0.0000 
     77 CZ         32.6600  -52.4200   -0.2200 C.ar      5 PHE5        0.0000 
     78 CZ         34.1200  -53.4300   -1.3800 C.ar      5 PHE5        0.0000 
     79 CZ         35.1600  -54.4800   -1.1000 C.ar      5 PHE5        0.0000 
     80 CZ         32.2900  -50.1700   -6.5300 C.ar      5 PHE5        0.0000 
     81 CZ         33.3300  -51.2200   -6.2500 C.ar      5 PHE5        0.0000 
     82 CZ         34.3700  -52.2700   -5.9700 C.ar      5 PHE5        0.0000 
     83 CZ         31.6900  -49.0800   -8.2500 C.ar      5 PHE5        0.0000 
     84 CZ         32.7200  -50.1300   -7.9700 C.ar      5 PHE5        0.0000 
     85 CZ         29.0900  -47.2000    0.4200 C.ar      5 PHE5        0.0000 
     86 CZ         29.5100  -47.1600   -1.0100 C.ar      5 PHE5        0.0000 
     87 CZ         30.5500  -48.2100   -0.7300 C.ar      5 PHE5        0.0000 
     88 CZ         31.5800  -49.2500   -0.4600 C.ar      5 PHE5        0.0000 
     89 CZ         32.6200  -50.3000   -0.1800 C.ar      5 PHE5        0.0000 
     90 CZ         33.6600  -51.3500    0.1000 C.ar      5 PHE5        0.0000 
     91 CZ         34.0800  -51.3100   -1.3300 C.ar      5 PHE5        0.0000 
     92 CZ         35.5500  -52.3200   -2.4900 C.ar      5 PHE5        0.0000 
     93 CZ         33.2900  -49.1000   -6.2000 C.ar      5 PHE5        0.0000 
     94 CZ         34.3300  -50.1500   -5.9300 C.ar      5 PHE5        0.0000 
     95 CZ         35.3600  -51.2000   -5.6500 C.ar      5 PHE5        0.0000 
     96 CZ         32.5800  -48.1800   -0.1300 C.ar      5 PHE5        0.0000 
     97 CZ         33.6200  -49.2300    0.1500 C.ar      5 PHE5        0.0000 
     98 CZ         35.0800  -50.2400   -1.0100 C.ar      5 PHE5        0.0000 
     99 CZ         36.5400  -51.2500   -2.1700 C.ar      5 PHE5        0.0000 
    100 CZ         35.3200  -49.0700   -5.6000 C.ar      5 PHE5        0.0000 
    101 CZ         36.3600  -50.1200   -5.3200 C.ar      5 PHE5        0.0000 
    102 CA         32.7400  -56.6600   -0.3100 C.3       6 GLY6        0.0000 
    103 CA         29.2600  -51.2700   -7.4600 C.3       6 GLY6        0.0000 
    104 CA         28.8000  -49.1800   -5.9800 C.3       6 GLY6        0.0000 
    105 CA         29.8300  -50.2300   -5.7000 C.3       6 GLY6        0.0000 
    106 CA         30.2600  -50.1900   -7.1300 C.3       6 GLY6        0.0000 
    107 CA         30.6900  -50.1600   -8.5700 C.3       6 GLY6        0.0000 
    108 CA         31.2600  -49.1200   -6.8100 C.3       6 GLY6        0.0000 
    109 CA         29.3300  -46.0300   -4.1700 C.3       6 GLY6        0.0000 
    110 CA         31.2200  -47.0000   -6.7600 C.3       6 GLY6        0.0000 
    111 DU         30.0200  -51.3600   -2.5400 H         7 CUB7        0.0000 
    112 DU         31.0500  -52.4100   -2.2600 H         7 CUB7        0.0000 
    113 DU         32.0900  -53.4600   -1.9900 H         7 CUB7        0.0000 
    114 DU         29.4100  -50.2700   -4.2600 H         7 CUB7        0.0000 
    115 DU         30.4400  -51.3200   -3.9800 H         7 CUB7        0.0000 
    116 DU         30.5900  -50.3300   -0.7800 H         7 CUB7        0.0000 
    117 DU         31.6200  -51.3800   -0.5000 H         7 CUB7        0.0000 
    118 DU         29.9800  -49.2400   -2.5000 H         7 CUB7        0.0000 
    119 DU         33.0900  -52.3800   -1.6600 H         7 CUB7        0.0000 
    120 DU         29.3700  -48.1500   -4.2100 H         7 CUB7        0.0000 
    121 DU         32.4800  -51.3000   -3.3800 H         7 CUB7        0.0000 
    122 DU         33.5100  -52.3500   -3.1000 H         7 CUB7        0.0000 
    123 DU         30.8300  -49.1600   -5.3700 H         7 CUB7        0.0000 
    124 DU         31.8700  -50.2100   -5.0900 H         7 CUB7        0.0000 
    125 DU         32.9000  -51.2600   -4.8100 H         7 CUB7        0.0000 
    126 DU         28.9000  -46.0700   -2.7300 H         7 CUB7        0.0000 
    127 DU         29.9400  -47.1200   -2.4500 H         7 CUB7        0.0000 
    128 DU         30.9800  -48.1700   -2.1700 H         7 CUB7        0.0000 
    129 DU         32.0100  -49.2200   -1.8900 H         7 CUB7        0.0000 
    130 DU         33.0500  -50.2600   -1.6100 H         7 CUB7        0.0000 
    131 DU         30.3700  -47.0800   -3.8900 H         7 CUB7        0.0000 
    132 DU         34.5100  -51.2700   -2.7700 H         7 CUB7        0.0000 
    133 DU         31.8300  -48.0900   -5.0500 H         7 CUB7        0.0000 
    134 DU         32.8600  -49.1400   -4.7700 H         7 CUB7        0.0000 
    135 DU         33.9000  -50.1900   -4.4900 H         7 CUB7        0.0000 
    136 DU         34.9400  -51.2300   -4.2100 H         7 CUB7        0.0000 
    137 DU         34.0400  -49.1900   -1.2900 H         7 CUB7        0.0000 
    138 DU         31.3600  -46.0100   -3.5600 H         7 CUB7        0.0000 
    139 DU         32.4000  -47.0600   -3.2800 H         7 CUB7        0.0000 
    140 DU         33.4400  -48.1000   -3.0000 H         7 CUB7        0.0000 
    141 DU         34.4700  -49.1500   -2.7300 H         7 CUB7        0.0000 
    142 DU         35.5100  -50.2000   -2.4500 H         7 CUB7        0.0000 
    143 DU         32.8300  -47.0200   -4.7200 H         7 CUB7        0.0000 
    144 DU         33.8600  -48.0700   -4.4400 H         7 CUB7        0.0000 
    145 DU         34.9000  -49.1100   -4.1600 H         7 CUB7        0.0000 
    146 DU         35.9300  -50.1600   -3.8800 H         7 CUB7        0.0000 
    147 DU         36.9700  -51.2100   -3.6100 H         7 CUB7        0.0000 
@<TRIPOS>BOND
@<TRIPOS>SUBSTRUCTURE
     1 SER1        1 GROUP   
     2 ALA2       29 GROUP   
     3 ASP3       45 GROUP   
     4 LYS4       49 GROUP   
     5 PHE5       60 GROUP   
     6 GLY6      102 GROUP   
     7 CUB7      111 GROUP   
@<TRIPOS>SET

