#    Name: 5oal_10_SY9
#    Modification time : Fri May 22 19:14:26 2020

@<TRIPOS>MOLECULE
5oal_10_SY9
   25    31     1     0     0
SMALL
NO_CHARGES


@<TRIPOS>ATOM
      1 CAV         5.6630  -64.0250   11.1920 C.3       1 SY9401      0.0000 
      2 CAU         5.1870  -64.4950   12.5490 C.3       1 SY9401      0.0000 
      3 CAT         5.2120  -66.0370   12.5910 C.3       1 SY9401      0.0000 
      4 CAN         6.6860  -66.4290   12.5400 C.3       1 SY9401      0.0000 
      5 CAK         7.3360  -65.9880   11.2380 C.3       1 SY9401      0.0000 
      6 NAH         8.7920  -66.0330   11.4790 N.am      1 SY9401      0.0000 
      7 CAA         9.2380  -64.7410   11.7640 C.ar      1 SY9401      0.0000 
      8 CAF        10.3960  -64.3650   12.4100 C.ar      1 SY9401      0.0000 
      9 CAE        10.4670  -63.0800   12.9050 C.ar      1 SY9401      0.0000 
     10 CAD         9.4190  -62.1820   12.7320 C.ar      1 SY9401      0.0000 
     11 CAC         8.2970  -62.5380   12.0040 C.ar      1 SY9401      0.0000 
     12 CAB         8.2110  -63.8300   11.5110 C.ar      1 SY9401      0.0000 
     13 CAG         7.0660  -64.5260   10.8190 C.3       1 SY9401      0.0000 
     14 CAW         7.0020  -64.3900    9.2910 C.3       1 SY9401      0.0000 
     15 CAX         5.6160  -64.9570    8.9760 C.3       1 SY9401      0.0000 
     16 NAY         4.7740  -64.5110   10.1000 N.4       1 SY9401      0.0000 
     17 CAS         3.8050  -65.5370   10.5490 C.3       1 SY9401      0.0000 
     18 CAR         4.3780  -66.6010   11.4530 C.2       1 SY9401      0.0000 
     19 CAQ         4.2920  -67.8990   11.1870 C.2       1 SY9401      0.0000 
     20 CAP         5.1420  -68.9980   11.7610 C.3       1 SY9401      0.0000 
     21 OAO         6.5670  -68.7480   11.7200 O.3       1 SY9401      0.0000 
     22 CAM         7.0500  -67.8840   12.7540 C.3       1 SY9401      0.0000 
     23 CAL         8.5710  -68.0540   12.8000 C.3       1 SY9401      0.0000 
     24 CAI         9.3780  -67.2090   11.8520 C.2       1 SY9401      0.0000 
     25 OAJ        10.4140  -67.6120   11.3560 O.2       1 SY9401      0.0000 
@<TRIPOS>BOND
     1    1    2 1    
     2    1   13 1    
     3    1   16 1    
     4    2    3 1    
     5    3    4 1    
     6    3   18 1    
     7    4    5 1    
     8    4   22 1    
     9    5    6 1    
    10    5   13 1    
    11    6    7 1    
    12    6   24 am   
    13    7    8 ar   
    14    7   12 ar   
    15    8    9 ar   
    16    9   10 ar   
    17   10   11 ar   
    18   11   12 ar   
    19   12   13 1    
    20   13   14 1    
    21   14   15 1    
    22   15   16 1    
    23   16   17 1    
    24   17   18 1    
    25   18   19 2    
    26   19   20 1    
    27   20   21 1    
    28   21   22 1    
    29   22   23 1    
    30   23   24 1    
    31   24   25 2    
@<TRIPOS>SUBSTRUCTURE
     1 SY9401      1 GROUP   
@<TRIPOS>SET

