#    Name: 5oal_2_SY9_CAVITY_N1_6
#    Modification time : Fri May 22 19:13:27 2020

@<TRIPOS>MOLECULE
5oal_2_SY9_CAVITY_N1_6
  183     0     7     0     0
SMALL
NO_CHARGES


@<TRIPOS>ATOM
      1 OG        -74.3700  -55.2400   -8.6000 O.3       1 SER1        0.0000 
      2 OG        -73.3700  -54.1700   -8.2700 O.3       1 SER1        0.0000 
      3 OG        -65.7000  -61.4700   -7.7600 O.3       1 SER1        0.0000 
      4 OG        -74.2700  -52.1200   -5.3500 O.3       1 SER1        0.0000 
      5 OG        -72.8000  -53.1300   -6.5100 O.3       1 SER1        0.0000 
      6 OG        -72.3800  -53.0900   -7.9500 O.3       1 SER1        0.0000 
      7 OG        -65.3100  -59.3100   -9.1500 O.3       1 SER1        0.0000 
      8 OG        -64.2700  -60.3600   -8.8700 O.3       1 SER1        0.0000 
      9 OG        -73.7000  -51.0900   -3.5900 O.3       1 SER1        0.0000 
     10 OG        -72.2300  -52.1000   -4.7500 O.3       1 SER1        0.0000 
     11 OG        -70.7700  -53.1100   -5.9000 O.3       1 SER1        0.0000 
     12 OG        -71.3800  -52.0200   -7.6200 O.3       1 SER1        0.0000 
     13 OG        -66.2000  -57.2700   -6.2300 O.3       1 SER1        0.0000 
     14 OG        -65.7700  -57.2300   -7.6600 O.3       1 SER1        0.0000 
     15 OG        -64.7400  -58.2700   -7.3800 O.3       1 SER1        0.0000 
     16 OG        -63.7000  -59.3200   -7.1000 O.3       1 SER1        0.0000 
     17 OG        -71.6600  -51.0700   -2.9800 O.3       1 SER1        0.0000 
     18 OG        -70.2000  -52.0800   -4.1400 O.3       1 SER1        0.0000 
     19 OG        -70.3800  -50.9500   -7.2900 O.3       1 SER1        0.0000 
     20 OG        -64.1700  -57.2400   -5.6200 O.3       1 SER1        0.0000 
     21 OG        -63.7400  -57.2000   -7.0600 O.3       1 SER1        0.0000 
     22 OG        -65.3800  -55.0700   -9.0500 O.3       1 SER1        0.0000 
     23 OG        -64.9600  -55.0300  -10.4900 O.3       1 SER1        0.0000 
     24 OG        -69.2000  -51.0100   -3.8200 O.3       1 SER1        0.0000 
     25 OG        -64.3900  -53.9900   -8.7300 O.3       1 SER1        0.0000 
     26 OG        -63.3500  -55.0400   -8.4500 O.3       1 SER1        0.0000 
     27 OG        -62.3200  -56.0900   -8.1700 O.3       1 SER1        0.0000 
     28 OG        -65.0000  -52.9100  -10.4500 O.3       1 SER1        0.0000 
     29 OG        -62.3500  -53.9700   -8.1200 O.3       1 SER1        0.0000 
     30 OG        -61.3200  -55.0200   -7.8500 O.3       1 SER1        0.0000 
     31 OG        -60.8900  -54.9800   -9.2800 O.3       1 SER1        0.0000 
     32 O         -73.3400  -56.2900   -8.3200 O.2       2 ALA2        0.0000 
     33 N         -71.3000  -56.2600   -7.7100 N.am      2 ALA2        0.0000 
     34 N         -67.3400  -59.3300   -9.7500 N.am      2 ALA2        0.0000 
     35 N         -68.9900  -57.2000  -11.7500 N.am      2 ALA2        0.0000 
     36 N         -67.9500  -58.2400  -11.4700 N.am      2 ALA2        0.0000 
     37 N         -66.9100  -59.2900  -11.1900 N.am      2 ALA2        0.0000 
     38 N         -69.7000  -56.2800   -5.6700 N.am      2 ALA2        0.0000 
     39 N         -68.6600  -57.3300   -5.3900 N.am      2 ALA2        0.0000 
     40 N         -70.3000  -55.1900   -7.3900 N.am      2 ALA2        0.0000 
     41 N         -69.8800  -55.1500   -8.8200 N.am      2 ALA2        0.0000 
     42 N         -66.7700  -58.3000   -7.9900 N.am      2 ALA2        0.0000 
     43 N         -69.4500  -55.1100  -10.2600 N.am      2 ALA2        0.0000 
     44 N         -66.3400  -58.2600   -9.4300 N.am      2 ALA2        0.0000 
     45 N         -66.9500  -57.1700  -11.1400 N.am      2 ALA2        0.0000 
     46 N         -68.2700  -55.1700   -6.7800 N.am      2 ALA2        0.0000 
     47 N         -67.2400  -56.2200   -6.5000 N.am      2 ALA2        0.0000 
     48 N         -68.8800  -54.0800   -8.5000 N.am      2 ALA2        0.0000 
     49 N         -67.8400  -55.1300   -8.2200 N.am      2 ALA2        0.0000 
     50 N         -66.8100  -56.1800   -7.9400 N.am      2 ALA2        0.0000 
     51 N         -67.4200  -55.0900   -9.6600 N.am      2 ALA2        0.0000 
     52 N         -66.3800  -56.1400   -9.3800 N.am      2 ALA2        0.0000 
     53 N         -63.1300  -58.2900   -5.3400 N.am      2 ALA2        0.0000 
     54 N         -62.7000  -58.2500   -6.7800 N.am      2 ALA2        0.0000 
     55 N         -61.6700  -59.3000   -6.5000 N.am      2 ALA2        0.0000 
     56 N         -65.0600  -55.2000   -2.7000 N.am      2 ALA2        0.0000 
     57 N         -65.6700  -54.1100   -4.4200 N.am      2 ALA2        0.0000 
     58 N         -64.6300  -55.1600   -4.1400 N.am      2 ALA2        0.0000 
     59 N         -65.2400  -54.0700   -5.8500 N.am      2 ALA2        0.0000 
     60 N         -64.2000  -55.1200   -5.5700 N.am      2 ALA2        0.0000 
     61 N         -63.7800  -55.0800   -7.0100 N.am      2 ALA2        0.0000 
     62 N         -62.7400  -56.1300   -6.7300 N.am      2 ALA2        0.0000 
     63 N         -61.7100  -57.1800   -6.4500 N.am      2 ALA2        0.0000 
     64 N         -64.6700  -53.0400   -4.0900 N.am      2 ALA2        0.0000 
     65 N         -64.2400  -53.0000   -5.5300 N.am      2 ALA2        0.0000 
     66 N         -62.7800  -54.0100   -6.6900 N.am      2 ALA2        0.0000 
     67 OD1       -71.0600  -55.1000  -12.3000 O.co2     3 ASP3        0.0000 
     68 OD1       -69.0200  -55.0700  -11.7000 O.co2     3 ASP3        0.0000 
     69 OD1       -67.9900  -56.1200  -11.4200 O.co2     3 ASP3        0.0000 
     70 OD1       -62.6700  -60.3700   -6.8300 O.co2     3 ASP3        0.0000 
     71 OD1       -66.9900  -55.0500  -11.1000 O.co2     3 ASP3        0.0000 
     72 OD1       -65.9600  -56.1000  -10.8200 O.co2     3 ASP3        0.0000 
     73 OD1       -65.9900  -53.9800  -10.7700 O.co2     3 ASP3        0.0000 
     74 NZ        -73.9400  -55.2000  -10.0300 N.4       4 LYS4        0.0000 
     75 NZ        -72.9500  -54.1300   -9.7100 N.4       4 LYS4        0.0000 
     76 NZ        -69.5900  -53.1600   -2.4200 N.4       4 LYS4        0.0000 
     77 NZ        -68.5500  -54.2100   -2.1500 N.4       4 LYS4        0.0000 
     78 NZ        -67.5200  -55.2600   -1.8700 N.4       4 LYS4        0.0000 
     79 NZ        -69.1600  -53.1300   -3.8600 N.4       4 LYS4        0.0000 
     80 NZ        -68.1300  -54.1700   -3.5800 N.4       4 LYS4        0.0000 
     81 NZ        -67.0900  -55.2200   -3.3000 N.4       4 LYS4        0.0000 
     82 NZ        -69.6300  -51.0400   -2.3800 N.4       4 LYS4        0.0000 
     83 NZ        -68.1700  -52.0500   -3.5400 N.4       4 LYS4        0.0000 
     84 NZ        -67.1300  -53.1000   -3.2600 N.4       4 LYS4        0.0000 
     85 NZ        -66.0900  -54.1500   -2.9800 N.4       4 LYS4        0.0000 
     86 NZ        -66.7000  -53.0600   -4.7000 N.4       4 LYS4        0.0000 
     87 CZ        -74.8000  -55.2800   -7.1600 C.ar      5 PHE5        0.0000 
     88 CZ        -73.8000  -54.2100   -6.8300 C.ar      5 PHE5        0.0000 
     89 CZ        -72.7600  -55.2500   -6.5500 C.ar      5 PHE5        0.0000 
     90 CZ        -74.6900  -52.1600   -3.9100 C.ar      5 PHE5        0.0000 
     91 CZ        -73.2300  -53.1700   -5.0700 C.ar      5 PHE5        0.0000 
     92 CZ        -71.1600  -55.2700   -4.5100 C.ar      5 PHE5        0.0000 
     93 CZ        -70.1200  -56.3200   -4.2300 C.ar      5 PHE5        0.0000 
     94 CZ        -69.0900  -57.3700   -3.9500 C.ar      5 PHE5        0.0000 
     95 CZ        -71.7700  -54.1800   -6.2300 C.ar      5 PHE5        0.0000 
     96 CZ        -70.7300  -55.2300   -5.9500 C.ar      5 PHE5        0.0000 
     97 CZ        -70.9100  -54.1000   -9.1000 C.ar      5 PHE5        0.0000 
     98 CZ        -70.4900  -54.0700  -10.5400 C.ar      5 PHE5        0.0000 
     99 CZ        -72.6600  -52.1400   -3.3100 C.ar      5 PHE5        0.0000 
    100 CZ        -71.6200  -53.1900   -3.0300 C.ar      5 PHE5        0.0000 
    101 CZ        -70.5900  -54.2400   -2.7500 C.ar      5 PHE5        0.0000 
    102 CZ        -69.5500  -55.2900   -2.4700 C.ar      5 PHE5        0.0000 
    103 CZ        -71.2000  -53.1500   -4.4700 C.ar      5 PHE5        0.0000 
    104 CZ        -70.1600  -54.2000   -4.1900 C.ar      5 PHE5        0.0000 
    105 CZ        -69.1200  -55.2500   -3.9100 C.ar      5 PHE5        0.0000 
    106 CZ        -68.0900  -56.2900   -3.6300 C.ar      5 PHE5        0.0000 
    107 CZ        -67.6600  -56.2600   -5.0700 C.ar      5 PHE5        0.0000 
    108 CZ        -66.6300  -57.3000   -4.7900 C.ar      5 PHE5        0.0000 
    109 CZ        -70.9500  -51.9800   -9.0600 C.ar      5 PHE5        0.0000 
    110 CZ        -69.9200  -53.0300   -8.7800 C.ar      5 PHE5        0.0000 
    111 CZ        -68.4500  -54.0400   -9.9400 C.ar      5 PHE5        0.0000 
    112 CZ        -68.0300  -54.0000  -11.3700 C.ar      5 PHE5        0.0000 
    113 CZ        -66.4800  -56.3100   -1.5900 C.ar      5 PHE5        0.0000 
    114 CZ        -66.0600  -56.2700   -3.0200 C.ar      5 PHE5        0.0000 
    115 CZ        -69.7700  -52.0400   -5.5800 C.ar      5 PHE5        0.0000 
    116 CZ        -65.6300  -56.2300   -4.4600 C.ar      5 PHE5        0.0000 
    117 CZ        -64.5900  -57.2800   -4.1800 C.ar      5 PHE5        0.0000 
    118 CZ        -69.3500  -52.0000   -7.0200 C.ar      5 PHE5        0.0000 
    119 CZ        -69.9500  -50.9100   -8.7300 C.ar      5 PHE5        0.0000 
    120 CZ        -68.9200  -51.9600   -8.4500 C.ar      5 PHE5        0.0000 
    121 CZ        -68.4900  -51.9200   -9.8900 C.ar      5 PHE5        0.0000 
    122 CZ        -67.4600  -52.9700   -9.6100 C.ar      5 PHE5        0.0000 
    123 CZ        -67.0300  -52.9300  -11.0500 C.ar      5 PHE5        0.0000 
    124 CZ        -67.7400  -52.0100   -4.9700 C.ar      5 PHE5        0.0000 
    125 CZ        -67.3100  -51.9800   -6.4100 C.ar      5 PHE5        0.0000 
    126 CZ        -66.8900  -51.9400   -7.8500 C.ar      5 PHE5        0.0000 
    127 CZ        -67.4900  -50.8500   -9.5700 C.ar      5 PHE5        0.0000 
    128 CZ        -66.4600  -51.9000   -9.2900 C.ar      5 PHE5        0.0000 
    129 CZ        -66.7400  -50.9400   -4.6500 C.ar      5 PHE5        0.0000 
    130 CZ        -65.7100  -51.9900   -4.3700 C.ar      5 PHE5        0.0000 
    131 CZ        -66.3100  -50.9000   -6.0900 C.ar      5 PHE5        0.0000 
    132 CZ        -65.2800  -51.9500   -5.8100 C.ar      5 PHE5        0.0000 
    133 CZ        -65.8900  -50.8600   -7.5200 C.ar      5 PHE5        0.0000 
    134 CZ        -64.8500  -51.9100   -7.2400 C.ar      5 PHE5        0.0000 
    135 CA        -72.3400  -55.2200   -7.9900 C.3       6 GLY6        0.0000 
    136 CA        -71.9100  -55.1800   -9.4300 C.3       6 GLY6        0.0000 
    137 CA        -71.4800  -55.1400  -10.8700 C.3       6 GLY6        0.0000 
    138 CA        -66.3100  -60.3800   -9.4700 C.3       6 GLY6        0.0000 
    139 CA        -70.0200  -56.1500  -12.0300 C.3       6 GLY6        0.0000 
    140 CA        -65.9200  -58.2200  -10.8600 C.3       6 GLY6        0.0000 
    141 CA        -64.8800  -59.2700  -10.5800 C.3       6 GLY6        0.0000 
    142 CA        -65.4900  -58.1800  -12.3000 C.3       6 GLY6        0.0000 
    143 CA        -68.5200  -56.3300   -2.1900 C.3       6 GLY6        0.0000 
    144 CA        -64.9200  -57.1500  -10.5400 C.3       6 GLY6        0.0000 
    145 CA        -63.8800  -58.2000  -10.2600 C.3       6 GLY6        0.0000 
    146 CA        -62.2800  -58.2100   -8.2200 C.3       6 GLY6        0.0000 
    147 CA        -63.9200  -56.0800  -10.2100 C.3       6 GLY6        0.0000 
    148 CA        -62.8900  -57.1200   -9.9300 C.3       6 GLY6        0.0000 
    149 CA        -61.8500  -58.1700   -9.6500 C.3       6 GLY6        0.0000 
    150 CA        -65.4200  -52.9500   -9.0100 C.3       6 GLY6        0.0000 
    151 CA        -61.2800  -57.1400   -7.8900 C.3       6 GLY6        0.0000 
    152 CA        -66.0300  -51.8600  -10.7200 C.3       6 GLY6        0.0000 
    153 CA        -61.8900  -56.0500   -9.6100 C.3       6 GLY6        0.0000 
    154 CA        -60.8500  -57.1000   -9.3300 C.3       6 GLY6        0.0000 
    155 CA        -63.8200  -52.9600   -6.9700 C.3       6 GLY6        0.0000 
    156 CA        -65.4600  -50.8300   -8.9600 C.3       6 GLY6        0.0000 
    157 CA        -60.2800  -56.0700   -7.5700 C.3       6 GLY6        0.0000 
    158 CA        -60.3200  -53.9500   -7.5200 C.3       6 GLY6        0.0000 
    159 DU        -71.3400  -54.1400   -7.6700 H         7 CUB7        0.0000 
    160 DU        -69.7300  -54.1600   -5.6200 H         7 CUB7        0.0000 
    161 DU        -68.7000  -55.2100   -5.3500 H         7 CUB7        0.0000 
    162 DU        -70.3400  -53.0700   -7.3400 H         7 CUB7        0.0000 
    163 DU        -69.3100  -54.1200   -7.0600 H         7 CUB7        0.0000 
    164 DU        -65.3500  -57.1900   -9.1000 H         7 CUB7        0.0000 
    165 DU        -64.3100  -58.2400   -8.8200 H         7 CUB7        0.0000 
    166 DU        -63.2700  -59.2800   -8.5400 H         7 CUB7        0.0000 
    167 DU        -70.6300  -52.1200   -2.7000 H         7 CUB7        0.0000 
    168 DU        -68.7400  -53.0900   -5.3000 H         7 CUB7        0.0000 
    169 DU        -67.7000  -54.1400   -5.0200 H         7 CUB7        0.0000 
    170 DU        -66.6600  -55.1800   -4.7400 H         7 CUB7        0.0000 
    171 DU        -68.3100  -53.0500   -6.7400 H         7 CUB7        0.0000 
    172 DU        -66.2400  -55.1400   -6.1800 H         7 CUB7        0.0000 
    173 DU        -65.2000  -56.1900   -5.9000 H         7 CUB7        0.0000 
    174 DU        -67.8800  -53.0100   -8.1700 H         7 CUB7        0.0000 
    175 DU        -66.8500  -54.0600   -7.9000 H         7 CUB7        0.0000 
    176 DU        -65.8100  -55.1100   -7.6200 H         7 CUB7        0.0000 
    177 DU        -64.7800  -56.1500   -7.3400 H         7 CUB7        0.0000 
    178 DU        -66.4200  -54.0200   -9.3300 H         7 CUB7        0.0000 
    179 DU        -64.3500  -56.1100   -8.7700 H         7 CUB7        0.0000 
    180 DU        -63.3100  -57.1600   -8.5000 H         7 CUB7        0.0000 
    181 DU        -66.2800  -53.0200   -6.1300 H         7 CUB7        0.0000 
    182 DU        -65.8500  -52.9900   -7.5700 H         7 CUB7        0.0000 
    183 DU        -64.8100  -54.0300   -7.2900 H         7 CUB7        0.0000 
@<TRIPOS>BOND
@<TRIPOS>SUBSTRUCTURE
     1 SER1        1 GROUP   
     2 ALA2       32 GROUP   
     3 ASP3       67 GROUP   
     4 LYS4       74 GROUP   
     5 PHE5       87 GROUP   
     6 GLY6      135 GROUP   
     7 CUB7      159 GROUP   
@<TRIPOS>SET

