#    Name: 5oal_9_SY9
#    Modification time : Fri May 22 19:14:17 2020

@<TRIPOS>MOLECULE
5oal_9_SY9
   25    31     1     0     0
SMALL
NO_CHARGES


@<TRIPOS>ATOM
      1 CAV       -15.2000  -69.5190  -10.3540 C.3       1 SY9301      0.0000 
      2 CAU       -16.5810  -70.0980  -10.5600 C.3       1 SY9301      0.0000 
      3 CAT       -16.4880  -71.3230  -11.4880 C.3       1 SY9301      0.0000 
      4 CAN       -15.6890  -72.4150  -10.7590 C.3       1 SY9301      0.0000 
      5 CAK       -14.3010  -71.9420  -10.3290 C.3       1 SY9301      0.0000 
      6 NAH       -13.8820  -72.8240   -9.2080 N.am      1 SY9301      0.0000 
      7 CAA       -13.9240  -72.0890   -7.9850 C.ar      1 SY9301      0.0000 
      8 CAF       -13.7280  -72.5340   -6.6790 C.ar      1 SY9301      0.0000 
      9 CAE       -14.0080  -71.6540   -5.6410 C.ar      1 SY9301      0.0000 
     10 CAD       -14.4880  -70.3640   -5.9010 C.ar      1 SY9301      0.0000 
     11 CAC       -14.6440  -69.9180   -7.2060 C.ar      1 SY9301      0.0000 
     12 CAB       -14.3180  -70.7740   -8.2540 C.ar      1 SY9301      0.0000 
     13 CAG       -14.2040  -70.5060   -9.7410 C.3       1 SY9301      0.0000 
     14 CAW       -12.8920  -69.8470  -10.1790 C.3       1 SY9301      0.0000 
     15 CAX       -13.1980  -69.6220  -11.6470 C.3       1 SY9301      0.0000 
     16 NAY       -14.5680  -69.1090  -11.6320 N.4       1 SY9301      0.0000 
     17 CAS       -15.3420  -69.5010  -12.8270 C.3       1 SY9301      0.0000 
     18 CAR       -15.9110  -70.8980  -12.8140 C.2       1 SY9301      0.0000 
     19 CAQ       -15.8590  -71.7120  -13.8500 C.2       1 SY9301      0.0000 
     20 CAP       -16.1650  -73.1700  -13.6900 C.3       1 SY9301      0.0000 
     21 OAO       -15.2010  -73.8000  -12.8130 O.3       1 SY9301      0.0000 
     22 CAM       -15.5440  -73.8090  -11.4210 C.3       1 SY9301      0.0000 
     23 CAL       -14.4090  -74.6280  -10.7360 C.3       1 SY9301      0.0000 
     24 CAI       -13.9470  -74.1770   -9.3630 C.2       1 SY9301      0.0000 
     25 OAJ       -13.6040  -74.9560   -8.4870 O.2       1 SY9301      0.0000 
@<TRIPOS>BOND
     1    1    2 1    
     2    1   13 1    
     3    1   16 1    
     4    2    3 1    
     5    3    4 1    
     6    3   18 1    
     7    4    5 1    
     8    4   22 1    
     9    5    6 1    
    10    5   13 1    
    11    6    7 1    
    12    6   24 am   
    13    7    8 ar   
    14    7   12 ar   
    15    8    9 ar   
    16    9   10 ar   
    17   10   11 ar   
    18   11   12 ar   
    19   12   13 1    
    20   13   14 1    
    21   14   15 1    
    22   15   16 1    
    23   16   17 1    
    24   17   18 1    
    25   18   19 2    
    26   19   20 1    
    27   20   21 1    
    28   21   22 1    
    29   22   23 1    
    30   23   24 1    
    31   24   25 2    
@<TRIPOS>SUBSTRUCTURE
     1 SY9301      1 GROUP   
@<TRIPOS>SET

