#    Name: 5oal_5_SY9_CAVITY_N1_4
#    Modification time : Fri May 22 19:13:49 2020

@<TRIPOS>MOLECULE
5oal_5_SY9_CAVITY_N1_4
  135     0     7     0     0
SMALL
NO_CHARGES


@<TRIPOS>ATOM
      1 OG        -35.4800  -24.3800   19.4400 O.3       1 SER1        0.0000 
      2 OG        -35.0500  -24.3400   18.0000 O.3       1 SER1        0.0000 
      3 OG        -34.6300  -24.3000   16.5700 O.3       1 SER1        0.0000 
      4 OG        -33.5900  -25.3500   16.8500 O.3       1 SER1        0.0000 
      5 OG        -39.0500  -19.1500   20.0900 O.3       1 SER1        0.0000 
      6 OG        -38.4800  -18.1200   21.8500 O.3       1 SER1        0.0000 
      7 OG        -38.0500  -18.0800   20.4100 O.3       1 SER1        0.0000 
      8 OG        -37.6300  -18.0400   18.9800 O.3       1 SER1        0.0000 
      9 OG        -38.2400  -16.9500   17.2600 O.3       1 SER1        0.0000 
     10 OG        -37.4800  -17.0400   22.1800 O.3       1 SER1        0.0000 
     11 OG        -38.0900  -15.9600   20.4600 O.3       1 SER1        0.0000 
     12 OG        -37.6700  -15.9200   19.0200 O.3       1 SER1        0.0000 
     13 OG        -37.2400  -15.8800   17.5900 O.3       1 SER1        0.0000 
     14 OG        -36.2000  -16.9300   17.8600 O.3       1 SER1        0.0000 
     15 OG        -32.0600  -21.1200   18.9800 O.3       1 SER1        0.0000 
     16 OG        -31.0200  -22.1700   19.2600 O.3       1 SER1        0.0000 
     17 OG        -36.8100  -15.8400   16.1500 O.3       1 SER1        0.0000 
     18 OG        -35.7800  -16.8900   16.4300 O.3       1 SER1        0.0000 
     19 OG        -31.6300  -21.0800   17.5400 O.3       1 SER1        0.0000 
     20 OG        -30.6000  -22.1300   17.8200 O.3       1 SER1        0.0000 
     21 OG        -37.7000  -13.8000   19.0700 O.3       1 SER1        0.0000 
     22 OG        -34.7800  -15.8200   16.7500 O.3       1 SER1        0.0000 
     23 N         -35.2400  -23.2100   14.8500 N.am      2 ALA2        0.0000 
     24 N         -34.2000  -24.2600   15.1300 N.am      2 ALA2        0.0000 
     25 N         -34.6600  -22.1800   16.6100 N.am      2 ALA2        0.0000 
     26 N         -33.6300  -23.2300   16.8900 N.am      2 ALA2        0.0000 
     27 N         -35.2700  -21.0900   14.9000 N.am      2 ALA2        0.0000 
     28 N         -34.2400  -22.1400   15.1800 N.am      2 ALA2        0.0000 
     29 N         -33.2000  -23.1900   15.4500 N.am      2 ALA2        0.0000 
     30 N         -32.1700  -24.2300   15.7300 N.am      2 ALA2        0.0000 
     31 N         -34.2800  -20.0200   15.2200 N.am      2 ALA2        0.0000 
     32 N         -33.2400  -21.0700   15.5000 N.am      2 ALA2        0.0000 
     33 N         -32.2000  -22.1100   15.7800 N.am      2 ALA2        0.0000 
     34 N         -31.1700  -23.1600   16.0600 N.am      2 ALA2        0.0000 
     35 N         -33.8500  -19.9800   13.7800 N.am      2 ALA2        0.0000 
     36 N         -32.8500  -18.9100   14.1100 N.am      2 ALA2        0.0000 
     37 N         -31.4300  -17.7900   13.0000 N.am      2 ALA2        0.0000 
     38 OD1       -34.9100  -23.3400   21.2000 O.co2     3 ASP3        0.0000 
     39 OD1       -35.3700  -21.2600   22.6900 O.co2     3 ASP3        0.0000 
     40 OD1       -34.3400  -22.3100   22.9700 O.co2     3 ASP3        0.0000 
     41 OD1       -33.9100  -22.2700   21.5300 O.co2     3 ASP3        0.0000 
     42 NZ        -36.3100  -20.0400   14.6200 N.4       4 LYS4        0.0000 
     43 NZ        -37.8100  -16.9100   15.8200 N.4       4 LYS4        0.0000 
     44 NZ        -36.7700  -17.9600   16.1000 N.4       4 LYS4        0.0000 
     45 NZ        -35.3100  -18.9700   14.9400 N.4       4 LYS4        0.0000 
     46 NZ        -35.3500  -16.8500   14.9900 N.4       4 LYS4        0.0000 
     47 NZ        -34.3100  -17.9000   15.2700 N.4       4 LYS4        0.0000 
     48 NZ        -33.8900  -17.8600   13.8300 N.4       4 LYS4        0.0000 
     49 NZ        -34.3500  -15.7800   15.3100 N.4       4 LYS4        0.0000 
     50 CZ        -37.7000  -23.2700   15.6800 C.ar      5 PHE5        0.0000 
     51 CZ        -39.0100  -21.2700   20.0400 C.ar      5 PHE5        0.0000 
     52 CZ        -37.9800  -22.3200   20.3200 C.ar      5 PHE5        0.0000 
     53 CZ        -36.9400  -23.3700   20.6000 C.ar      5 PHE5        0.0000 
     54 CZ        -37.5500  -22.2800   18.8800 C.ar      5 PHE5        0.0000 
     55 CZ        -37.1200  -22.2400   17.4500 C.ar      5 PHE5        0.0000 
     56 CZ        -37.7300  -21.1500   15.7300 C.ar      5 PHE5        0.0000 
     57 CZ        -36.7000  -22.2000   16.0100 C.ar      5 PHE5        0.0000 
     58 CZ        -36.2700  -22.1600   14.5700 C.ar      5 PHE5        0.0000 
     59 CZ        -36.3700  -22.3300   22.3600 C.ar      5 PHE5        0.0000 
     60 CZ        -38.0200  -20.2000   20.3700 C.ar      5 PHE5        0.0000 
     61 CZ        -36.9800  -21.2500   20.6500 C.ar      5 PHE5        0.0000 
     62 CZ        -35.9400  -22.2900   20.9300 C.ar      5 PHE5        0.0000 
     63 CZ        -38.6300  -19.1100   18.6500 C.ar      5 PHE5        0.0000 
     64 CZ        -37.5900  -20.1600   18.9300 C.ar      5 PHE5        0.0000 
     65 CZ        -38.2000  -19.0700   17.2100 C.ar      5 PHE5        0.0000 
     66 CZ        -37.1600  -20.1200   17.4900 C.ar      5 PHE5        0.0000 
     67 CZ        -37.7700  -19.0300   15.7800 C.ar      5 PHE5        0.0000 
     68 CZ        -36.7400  -20.0800   16.0600 C.ar      5 PHE5        0.0000 
     69 CZ        -37.4500  -19.1600   22.1300 C.ar      5 PHE5        0.0000 
     70 CZ        -36.4100  -20.2100   22.4100 C.ar      5 PHE5        0.0000 
     71 CZ        -37.2000  -18.0000   17.5400 C.ar      5 PHE5        0.0000 
     72 CZ        -37.0600  -17.0000   20.7400 C.ar      5 PHE5        0.0000 
     73 CZ        -36.6300  -16.9700   19.3000 C.ar      5 PHE5        0.0000 
     74 CZ        -32.6700  -20.0300   17.2600 C.ar      5 PHE5        0.0000 
     75 CZ        -33.2800  -18.9500   15.5500 C.ar      5 PHE5        0.0000 
     76 CZ        -32.2400  -19.9900   15.8300 C.ar      5 PHE5        0.0000 
     77 CZ        -31.2100  -21.0400   16.1100 C.ar      5 PHE5        0.0000 
     78 CZ        -30.1700  -22.0900   16.3800 C.ar      5 PHE5        0.0000 
     79 CZ        -31.8200  -19.9500   14.3900 C.ar      5 PHE5        0.0000 
     80 CZ        -35.0200  -16.9800   21.3400 C.ar      5 PHE5        0.0000 
     81 CZ        -34.6000  -16.9400   19.9100 C.ar      5 PHE5        0.0000 
     82 CZ        -33.5600  -17.9900   20.1900 C.ar      5 PHE5        0.0000 
     83 CZ        -34.1700  -16.9000   18.4700 C.ar      5 PHE5        0.0000 
     84 CZ        -33.1300  -17.9500   18.7500 C.ar      5 PHE5        0.0000 
     85 CZ        -32.1000  -19.0000   19.0300 C.ar      5 PHE5        0.0000 
     86 CZ        -33.7400  -16.8600   17.0300 C.ar      5 PHE5        0.0000 
     87 CZ        -32.7100  -17.9100   17.3100 C.ar      5 PHE5        0.0000 
     88 CZ        -31.6700  -18.9600   17.5900 C.ar      5 PHE5        0.0000 
     89 CZ        -32.2800  -17.8700   15.8700 C.ar      5 PHE5        0.0000 
     90 CZ        -32.1400  -16.8800   19.0700 C.ar      5 PHE5        0.0000 
     91 CA        -38.5500  -23.3500   18.5600 C.3       6 GLY6        0.0000 
     92 CA        -37.5100  -24.4000   18.8400 C.3       6 GLY6        0.0000 
     93 CA        -38.1200  -23.3100   17.1200 C.3       6 GLY6        0.0000 
     94 CA        -36.6600  -24.3200   15.9600 C.3       6 GLY6        0.0000 
     95 CA        -35.9100  -24.4100   20.8800 C.3       6 GLY6        0.0000 
     96 CA        -36.5200  -23.3300   19.1600 C.3       6 GLY6        0.0000 
     97 CA        -36.0900  -23.2900   17.7300 C.3       6 GLY6        0.0000 
     98 CA        -35.6600  -23.2500   16.2900 C.3       6 GLY6        0.0000 
     99 CA        -33.4500  -24.3500   20.0500 C.3       6 GLY6        0.0000 
    100 CA        -33.0200  -24.3100   18.6100 C.3       6 GLY6        0.0000 
    101 CA        -32.4500  -23.2800   20.3700 C.3       6 GLY6        0.0000 
    102 CA        -33.3200  -16.8200   15.5900 C.3       6 GLY6        0.0000 
    103 CA        -32.8900  -16.7900   14.1600 C.3       6 GLY6        0.0000 
    104 CA        -32.4600  -16.7500   12.7200 C.3       6 GLY6        0.0000 
    105 DU        -36.5500  -21.2100   19.2100 H         7 CUB7        0.0000 
    106 DU        -34.4800  -23.3000   19.7700 H         7 CUB7        0.0000 
    107 DU        -36.1300  -21.1700   17.7700 H         7 CUB7        0.0000 
    108 DU        -35.0900  -22.2200   18.0500 H         7 CUB7        0.0000 
    109 DU        -34.0600  -23.2600   18.3300 H         7 CUB7        0.0000 
    110 DU        -35.7000  -21.1300   16.3300 H         7 CUB7        0.0000 
    111 DU        -32.5900  -24.2700   17.1700 H         7 CUB7        0.0000 
    112 DU        -37.0200  -19.1300   20.6900 H         7 CUB7        0.0000 
    113 DU        -35.9800  -20.1700   20.9700 H         7 CUB7        0.0000 
    114 DU        -34.9500  -21.2200   21.2500 H         7 CUB7        0.0000 
    115 DU        -36.5900  -19.0900   19.2600 H         7 CUB7        0.0000 
    116 DU        -33.4800  -22.2300   20.0900 H         7 CUB7        0.0000 
    117 DU        -36.1700  -19.0500   17.8200 H         7 CUB7        0.0000 
    118 DU        -33.0600  -22.1900   18.6600 H         7 CUB7        0.0000 
    119 DU        -32.0200  -23.2400   18.9300 H         7 CUB7        0.0000 
    120 DU        -35.7400  -19.0100   16.3800 H         7 CUB7        0.0000 
    121 DU        -34.7000  -20.0600   16.6600 H         7 CUB7        0.0000 
    122 DU        -33.6700  -21.1000   16.9400 H         7 CUB7        0.0000 
    123 DU        -32.6300  -22.1500   17.2200 H         7 CUB7        0.0000 
    124 DU        -31.6000  -23.2000   17.5000 H         7 CUB7        0.0000 
    125 DU        -36.4500  -18.0900   22.4600 H         7 CUB7        0.0000 
    126 DU        -36.0200  -18.0500   21.0200 H         7 CUB7        0.0000 
    127 DU        -34.9900  -19.1000   21.3000 H         7 CUB7        0.0000 
    128 DU        -35.5900  -18.0100   19.5800 H         7 CUB7        0.0000 
    129 DU        -33.5200  -20.1100   20.1400 H         7 CUB7        0.0000 
    130 DU        -32.4900  -21.1600   20.4200 H         7 CUB7        0.0000 
    131 DU        -35.1700  -17.9700   18.1400 H         7 CUB7        0.0000 
    132 DU        -33.1000  -20.0700   18.7000 H         7 CUB7        0.0000 
    133 DU        -34.7400  -17.9400   16.7100 H         7 CUB7        0.0000 
    134 DU        -33.7100  -18.9800   16.9800 H         7 CUB7        0.0000 
    135 DU        -32.5300  -19.0400   20.4600 H         7 CUB7        0.0000 
@<TRIPOS>BOND
@<TRIPOS>SUBSTRUCTURE
     1 SER1        1 GROUP   
     2 ALA2       23 GROUP   
     3 ASP3       38 GROUP   
     4 LYS4       42 GROUP   
     5 PHE5       50 GROUP   
     6 GLY6       91 GROUP   
     7 CUB7      105 GROUP   
@<TRIPOS>SET

