#    Name: 5oal_1_SY9_CAVITY_N1_4
#    Modification time : Fri May 22 19:13:19 2020

@<TRIPOS>MOLECULE
5oal_1_SY9_CAVITY_N1_4
  116     0     7     0     0
SMALL
NO_CHARGES


@<TRIPOS>ATOM
      1 OG        -54.0300  -49.1200   19.5200 O.3       1 SER1        0.0000 
      2 OG        -52.9900  -50.1700   19.8000 O.3       1 SER1        0.0000 
      3 OG        -57.4200  -45.0200   23.3200 O.3       1 SER1        0.0000 
      4 OG        -51.3900  -50.1800   21.8400 O.3       1 SER1        0.0000 
      5 OG        -53.0300  -48.0500   19.8500 O.3       1 SER1        0.0000 
      6 OG        -52.6000  -48.0100   18.4100 O.3       1 SER1        0.0000 
      7 OG        -51.5700  -49.0600   18.6900 O.3       1 SER1        0.0000 
      8 OG        -51.1400  -49.0200   17.2500 O.3       1 SER1        0.0000 
      9 OG        -50.1100  -50.0600   17.5300 O.3       1 SER1        0.0000 
     10 OG        -57.8800  -42.9400   24.8100 O.3       1 SER1        0.0000 
     11 OG        -51.4200  -48.0600   21.8900 O.3       1 SER1        0.0000 
     12 OG        -49.9600  -49.0700   20.7300 O.3       1 SER1        0.0000 
     13 OG        -56.4600  -41.8300   23.7000 O.3       1 SER1        0.0000 
     14 OG        -56.0300  -41.7900   22.2600 O.3       1 SER1        0.0000 
     15 OG        -48.9600  -48.0000   21.0600 O.3       1 SER1        0.0000 
     16 OG        -55.4600  -40.7500   24.0200 O.3       1 SER1        0.0000 
     17 OG        -54.4300  -41.8000   24.3000 O.3       1 SER1        0.0000 
     18 N         -57.3800  -47.1400   23.2800 N.am      2 ALA2        0.0000 
     19 N         -55.9200  -48.1500   22.1200 N.am      2 ALA2        0.0000 
     20 N         -55.4900  -48.1100   20.6800 N.am      2 ALA2        0.0000 
     21 N         -54.4600  -49.1600   20.9600 N.am      2 ALA2        0.0000 
     22 N         -53.4200  -50.2100   21.2400 N.am      2 ALA2        0.0000 
     23 N         -55.3500  -47.1100   23.8800 N.am      2 ALA2        0.0000 
     24 N         -54.9200  -47.0800   22.4400 N.am      2 ALA2        0.0000 
     25 N         -52.8500  -49.1700   23.0000 N.am      2 ALA2        0.0000 
     26 N         -53.4600  -48.0800   21.2900 N.am      2 ALA2        0.0000 
     27 N         -52.4200  -49.1300   21.5700 N.am      2 ALA2        0.0000 
     28 N         -53.3100  -47.0900   24.4900 N.am      2 ALA2        0.0000 
     29 N         -52.8900  -47.0500   23.0500 N.am      2 ALA2        0.0000 
     30 N         -52.0300  -46.9700   20.1700 N.am      2 ALA2        0.0000 
     31 N         -51.0000  -48.0200   20.4500 N.am      2 ALA2        0.0000 
     32 N         -51.6100  -46.9300   18.7400 N.am      2 ALA2        0.0000 
     33 N         -50.5700  -47.9800   19.0200 N.am      2 ALA2        0.0000 
     34 N         -49.5400  -49.0300   19.2900 N.am      2 ALA2        0.0000 
     35 O         -51.1800  -46.9000   17.3000 O.2       2 ALA2        0.0000 
     36 N         -50.1400  -47.9400   17.5800 N.am      2 ALA2        0.0000 
     37 N         -52.0700  -44.8500   20.2200 N.am      2 ALA2        0.0000 
     38 N         -51.0400  -45.9000   20.5000 N.am      2 ALA2        0.0000 
     39 N         -50.0000  -46.9500   20.7800 N.am      2 ALA2        0.0000 
     40 N         -51.6500  -44.8100   18.7800 N.am      2 ALA2        0.0000 
     41 N         -51.0700  -43.7800   20.5500 N.am      2 ALA2        0.0000 
     42 N         -49.4700  -43.8000   22.5900 N.am      2 ALA2        0.0000 
     43 OD1       -55.4500  -50.2300   20.6400 O.co2     3 ASP3        0.0000 
     44 OD1       -54.4200  -51.2800   20.9100 O.co2     3 ASP3        0.0000 
     45 OD1       -55.0300  -50.1900   19.2000 O.co2     3 ASP3        0.0000 
     46 NZ        -55.0000  -42.8300   22.5400 N.4       4 LYS4        0.0000 
     47 NZ        -53.9600  -43.8800   22.8200 N.4       4 LYS4        0.0000 
     48 NZ        -54.5700  -42.8000   21.1000 N.4       4 LYS4        0.0000 
     49 NZ        -53.5300  -43.8400   21.3800 N.4       4 LYS4        0.0000 
     50 NZ        -55.0400  -40.7100   22.5800 N.4       4 LYS4        0.0000 
     51 NZ        -52.9600  -42.8100   23.1400 N.4       4 LYS4        0.0000 
     52 NZ        -51.9300  -43.8600   23.4200 N.4       4 LYS4        0.0000 
     53 NZ        -51.5000  -43.8200   21.9800 N.4       4 LYS4        0.0000 
     54 NZ        -52.1100  -42.7300   20.2700 N.4       4 LYS4        0.0000 
     55 NZ        -50.9300  -42.7900   23.7500 N.4       4 LYS4        0.0000 
     56 NZ        -50.5000  -42.7500   22.3100 N.4       4 LYS4        0.0000 
     57 CZ        -57.5200  -48.1300   20.0800 C.ar      5 PHE5        0.0000 
     58 CZ        -56.4900  -49.1800   20.3600 C.ar      5 PHE5        0.0000 
     59 CZ        -57.1000  -48.0900   18.6400 C.ar      5 PHE5        0.0000 
     60 CZ        -58.4200  -46.0900   23.0000 C.ar      5 PHE5        0.0000 
     61 CZ        -57.9900  -46.0500   21.5600 C.ar      5 PHE5        0.0000 
     62 CZ        -56.9500  -47.1000   21.8400 C.ar      5 PHE5        0.0000 
     63 CZ        -57.5600  -46.0100   20.1200 C.ar      5 PHE5        0.0000 
     64 CZ        -56.5300  -47.0600   20.4000 C.ar      5 PHE5        0.0000 
     65 CZ        -56.1000  -47.0200   18.9700 C.ar      5 PHE5        0.0000 
     66 CZ        -57.8500  -45.0600   24.7600 C.ar      5 PHE5        0.0000 
     67 CZ        -56.9900  -44.9800   21.8900 C.ar      5 PHE5        0.0000 
     68 CZ        -55.5300  -45.9900   20.7300 C.ar      5 PHE5        0.0000 
     69 CZ        -55.1000  -45.9500   19.2900 C.ar      5 PHE5        0.0000 
     70 CZ        -56.4200  -43.9500   23.6500 C.ar      5 PHE5        0.0000 
     71 CZ        -55.3900  -44.9900   23.9300 C.ar      5 PHE5        0.0000 
     72 CZ        -54.3500  -46.0400   24.2100 C.ar      5 PHE5        0.0000 
     73 CZ        -55.9900  -43.9100   22.2100 C.ar      5 PHE5        0.0000 
     74 CZ        -51.8500  -48.1000   23.3300 C.ar      5 PHE5        0.0000 
     75 CZ        -54.5300  -44.9200   21.0500 C.ar      5 PHE5        0.0000 
     76 CZ        -54.1100  -44.8800   19.6200 C.ar      5 PHE5        0.0000 
     77 CZ        -53.6800  -44.8400   18.1800 C.ar      5 PHE5        0.0000 
     78 CZ        -52.6400  -45.8900   18.4600 C.ar      5 PHE5        0.0000 
     79 CZ        -56.8900  -41.8600   25.1300 C.ar      5 PHE5        0.0000 
     80 CZ        -55.4200  -42.8700   23.9700 C.ar      5 PHE5        0.0000 
     81 CZ        -54.3900  -43.9200   24.2500 C.ar      5 PHE5        0.0000 
     82 CZ        -52.3200  -46.0200   24.8100 C.ar      5 PHE5        0.0000 
     83 CZ        -52.9300  -44.9300   23.1000 C.ar      5 PHE5        0.0000 
     84 CZ        -51.8900  -45.9800   23.3700 C.ar      5 PHE5        0.0000 
     85 CZ        -51.4600  -45.9400   21.9400 C.ar      5 PHE5        0.0000 
     86 CZ        -50.4300  -46.9900   22.2200 C.ar      5 PHE5        0.0000 
     87 CZ        -53.1100  -43.8000   19.9400 C.ar      5 PHE5        0.0000 
     88 CZ        -50.8900  -44.9100   23.7000 C.ar      5 PHE5        0.0000 
     89 CZ        -50.4700  -44.8700   22.2600 C.ar      5 PHE5        0.0000 
     90 CA        -56.9200  -49.2200   21.7900 C.3       6 GLY6        0.0000 
     91 CA        -53.3800  -52.3300   21.1900 C.3       6 GLY6        0.0000 
     92 CA        -56.0600  -49.1400   18.9200 C.3       6 GLY6        0.0000 
     93 CA        -53.9900  -51.2400   19.4800 C.3       6 GLY6        0.0000 
     94 CA        -52.3800  -51.2500   21.5200 C.3       6 GLY6        0.0000 
     95 CA        -55.0600  -48.0700   19.2400 C.3       6 GLY6        0.0000 
     96 CA        -51.9600  -51.2100   20.0800 C.3       6 GLY6        0.0000 
     97 CA        -50.9200  -52.2600   20.3600 C.3       6 GLY6        0.0000 
     98 CA        -55.6700  -46.9800   17.5300 C.3       6 GLY6        0.0000 
     99 CA        -51.5300  -51.1800   18.6400 C.3       6 GLY6        0.0000 
    100 CA        -51.1000  -51.1400   17.2100 C.3       6 GLY6        0.0000 
    101 CA        -56.3800  -46.0700   23.6000 C.3       6 GLY6        0.0000 
    102 CA        -54.6800  -45.9100   17.8500 C.3       6 GLY6        0.0000 
    103 CA        -53.6400  -46.9600   18.1300 C.3       6 GLY6        0.0000 
    104 CA        -51.3600  -42.8300   25.1800 C.3       6 GLY6        0.0000 
    105 DU        -55.9600  -46.0300   22.1700 H         7 CUB7        0.0000 
    106 DU        -54.4900  -47.0400   21.0100 H         7 CUB7        0.0000 
    107 DU        -54.0700  -47.0000   19.5700 H         7 CUB7        0.0000 
    108 DU        -52.0000  -49.0900   20.1300 H         7 CUB7        0.0000 
    109 DU        -50.9600  -50.1400   20.4100 H         7 CUB7        0.0000 
    110 DU        -50.5300  -50.1000   18.9700 H         7 CUB7        0.0000 
    111 DU        -54.9600  -44.9600   22.4900 H         7 CUB7        0.0000 
    112 DU        -53.9200  -46.0000   22.7700 H         7 CUB7        0.0000 
    113 DU        -53.5000  -45.9600   21.3300 H         7 CUB7        0.0000 
    114 DU        -52.4600  -47.0100   21.6100 H         7 CUB7        0.0000 
    115 DU        -53.0700  -45.9300   19.8900 H         7 CUB7        0.0000 
    116 DU        -52.5000  -44.8900   21.6600 H         7 CUB7        0.0000 
@<TRIPOS>BOND
@<TRIPOS>SUBSTRUCTURE
     1 SER1        1 GROUP   
     2 ALA2       18 GROUP   
     3 ASP3       43 GROUP   
     4 LYS4       46 GROUP   
     5 PHE5       57 GROUP   
     6 GLY6       90 GROUP   
     7 CUB7      105 GROUP   
@<TRIPOS>SET

