#    Name: 5oal_15_SY9_CAVITY_N1_6
#    Modification time : Fri May 22 19:15:05 2020

@<TRIPOS>MOLECULE
5oal_15_SY9_CAVITY_N1_6
  119     0     7     0     0
SMALL
NO_CHARGES


@<TRIPOS>ATOM
      1 OG         -3.7500   10.2300  -32.8100 O.3       1 SER1        0.0000 
      2 OG         -2.7600   11.3000  -32.4800 O.3       1 SER1        0.0000 
      3 OG         -0.3000   11.3700  -33.3200 O.3       1 SER1        0.0000 
      4 OG         -5.1500   16.4800  -28.3600 O.3       1 SER1        0.0000 
      5 OG         -3.6900   15.4700  -29.5200 O.3       1 SER1        0.0000 
      6 OG         -3.7300   17.5900  -29.4700 O.3       1 SER1        0.0000 
      7 OG         -2.6900   16.5400  -29.1900 O.3       1 SER1        0.0000 
      8 OG         -2.7300   18.6600  -29.1400 O.3       1 SER1        0.0000 
      9 OG         -1.6900   17.6100  -28.8600 O.3       1 SER1        0.0000 
     10 OG         -3.3400   19.7500  -30.8600 O.3       1 SER1        0.0000 
     11 OG         -3.9500   20.8300  -32.5800 O.3       1 SER1        0.0000 
     12 OG         -1.8700   18.7400  -32.0200 O.3       1 SER1        0.0000 
     13 OG         -2.1600   19.6900  -27.3800 O.3       1 SER1        0.0000 
     14 OG         -1.1200   18.6400  -27.1000 O.3       1 SER1        0.0000 
     15 OG         -2.9500   21.9100  -32.2500 O.3       1 SER1        0.0000 
     16 OG         -1.9100   20.8600  -31.9700 O.3       1 SER1        0.0000 
     17 OG         -0.8800   19.8100  -31.6900 O.3       1 SER1        0.0000 
     18 N          -3.7900   12.3500  -32.7600 N.am      2 ALA2        0.0000 
     19 N          -8.4000   18.6300  -32.3900 N.am      2 ALA2        0.0000 
     20 N          -7.3700   17.5800  -32.1100 N.am      2 ALA2        0.0000 
     21 N          -4.2600   14.4300  -31.2800 N.am      2 ALA2        0.0000 
     22 N          -2.8000   13.4200  -32.4400 N.am      2 ALA2        0.0000 
     23 N          -6.3700   18.6500  -31.7900 N.am      2 ALA2        0.0000 
     24 N          -5.3300   17.6000  -31.5100 N.am      2 ALA2        0.0000 
     25 N          -4.3000   16.5500  -31.2300 N.am      2 ALA2        0.0000 
     26 N          -6.9800   19.7400  -33.5100 N.am      2 ALA2        0.0000 
     27 N          -2.8300   15.5500  -32.3900 N.am      2 ALA2        0.0000 
     28 N          -4.3300   18.6800  -31.1900 N.am      2 ALA2        0.0000 
     29 N          -3.3000   17.6300  -30.9100 N.am      2 ALA2        0.0000 
     30 N          -5.9800   20.8100  -33.1800 N.am      2 ALA2        0.0000 
     31 N          -2.8700   17.6700  -32.3400 N.am      2 ALA2        0.0000 
     32 N          -1.2700   17.6500  -30.3000 N.am      2 ALA2        0.0000 
     33 N          -0.2300   16.6000  -30.0200 N.am      2 ALA2        0.0000 
     34 N           0.8100   15.5500  -29.7400 N.am      2 ALA2        0.0000 
     35 N          -0.8400   17.6900  -31.7400 N.am      2 ALA2        0.0000 
     36 N           0.2000   16.6400  -31.4600 N.am      2 ALA2        0.0000 
     37 N          -1.7300   19.7300  -28.8200 N.am      2 ALA2        0.0000 
     38 N          -0.6900   18.6800  -28.5400 N.am      2 ALA2        0.0000 
     39 N          -1.3000   19.7700  -30.2600 N.am      2 ALA2        0.0000 
     40 N           0.1600   18.7600  -31.4100 N.am      2 ALA2        0.0000 
     41 N           2.2300   16.6600  -30.8600 N.am      2 ALA2        0.0000 
     42 N           2.6600   16.7000  -32.2900 N.am      2 ALA2        0.0000 
     43 N           3.0800   16.7400  -33.7300 N.am      2 ALA2        0.0000 
     44 N          -0.9200   21.9300  -31.6500 N.am      2 ALA2        0.0000 
     45 N           0.1200   20.8800  -31.3700 N.am      2 ALA2        0.0000 
     46 OD1        -5.7200   15.4400  -30.1200 O.co2     3 ASP3        0.0000 
     47 OD1        -5.7600   17.5600  -30.0700 O.co2     3 ASP3        0.0000 
     48 OD1        -4.7200   16.5200  -29.7900 O.co2     3 ASP3        0.0000 
     49 OD1        -1.9500   22.9800  -31.9300 O.co2     3 ASP3        0.0000 
     50 NZ          0.7000   12.4400  -32.9900 N.4       4 LYS4        0.0000 
     51 NZ          0.2400   14.5200  -31.5100 N.4       4 LYS4        0.0000 
     52 NZ          1.2700   13.4700  -31.2300 N.4       4 LYS4        0.0000 
     53 NZ          0.6600   14.5600  -32.9400 N.4       4 LYS4        0.0000 
     54 NZ          1.2300   15.5900  -31.1800 N.4       4 LYS4        0.0000 
     55 NZ          1.6600   15.6300  -32.6200 N.4       4 LYS4        0.0000 
     56 NZ          2.0900   15.6700  -34.0600 N.4       4 LYS4        0.0000 
     57 CZ         -4.7900   11.2800  -33.0900 C.ar      5 PHE5        0.0000 
     58 CZ         -4.6500   12.2700  -29.8900 C.ar      5 PHE5        0.0000 
     59 CZ         -5.2600   13.3600  -31.6000 C.ar      5 PHE5        0.0000 
     60 CZ         -4.2200   12.3100  -31.3200 C.ar      5 PHE5        0.0000 
     61 CZ         -3.1800   11.2700  -31.0500 C.ar      5 PHE5        0.0000 
     62 CZ         -2.3300   11.3400  -33.9200 C.ar      5 PHE5        0.0000 
     63 CZ         -4.6800   14.4000  -29.8400 C.ar      5 PHE5        0.0000 
     64 CZ         -3.6500   13.3500  -29.5600 C.ar      5 PHE5        0.0000 
     65 CZ         -3.2200   13.3900  -31.0000 C.ar      5 PHE5        0.0000 
     66 CZ         -2.1900   12.3400  -30.7200 C.ar      5 PHE5        0.0000 
     67 CZ         -1.7600   12.3800  -32.1600 C.ar      5 PHE5        0.0000 
     68 CZ         -0.7200   11.3300  -31.8800 C.ar      5 PHE5        0.0000 
     69 CZ         -2.3700   13.4600  -33.8700 C.ar      5 PHE5        0.0000 
     70 CZ         -1.3300   12.4200  -33.5900 C.ar      5 PHE5        0.0000 
     71 CZ          0.1300   11.4100  -34.7500 C.ar      5 PHE5        0.0000 
     72 CZ         -2.6500   14.4200  -29.2400 C.ar      5 PHE5        0.0000 
     73 CZ         -1.1900   13.4100  -30.3900 C.ar      5 PHE5        0.0000 
     74 CZ         -0.7600   13.4500  -31.8300 C.ar      5 PHE5        0.0000 
     75 CZ          0.2700   12.4000  -31.5500 C.ar      5 PHE5        0.0000 
     76 CZ         -0.9400   14.5800  -34.9900 C.ar      5 PHE5        0.0000 
     77 CZ          0.0900   13.5300  -34.7100 C.ar      5 PHE5        0.0000 
     78 CZ          1.1300   12.4800  -34.4300 C.ar      5 PHE5        0.0000 
     79 CZ         -0.6200   14.4400  -28.6300 C.ar      5 PHE5        0.0000 
     80 CZ         -0.1900   14.4800  -30.0700 C.ar      5 PHE5        0.0000 
     81 CZ          0.8400   13.4300  -29.7900 C.ar      5 PHE5        0.0000 
     82 CZ         -1.4100   16.6600  -33.5000 C.ar      5 PHE5        0.0000 
     83 CZ          0.0500   15.6500  -34.6600 C.ar      5 PHE5        0.0000 
     84 CZ          1.0900   14.6000  -34.3800 C.ar      5 PHE5        0.0000 
     85 CZ         -0.4100   17.7300  -33.1800 C.ar      5 PHE5        0.0000 
     86 CZ          0.6200   16.6800  -32.9000 C.ar      5 PHE5        0.0000 
     87 CZ          1.0500   16.7200  -34.3400 C.ar      5 PHE5        0.0000 
     88 CZ          1.6200   17.7500  -32.5700 C.ar      5 PHE5        0.0000 
     89 CA         -3.3700   12.3900  -34.2000 C.3       6 GLY6        0.0000 
     90 CA         -5.1100   14.3600  -28.4000 C.3       6 GLY6        0.0000 
     91 CA         -4.0800   13.3100  -28.1200 C.3       6 GLY6        0.0000 
     92 CA         -4.1100   15.4300  -28.0800 C.3       6 GLY6        0.0000 
     93 CA         -3.0800   14.3800  -27.8000 C.3       6 GLY6        0.0000 
     94 CA         -7.4000   19.7000  -32.0700 C.3       6 GLY6        0.0000 
     95 CA         -4.7600   18.6400  -29.7500 C.3       6 GLY6        0.0000 
     96 CA         -1.6500   15.4900  -28.9100 C.3       6 GLY6        0.0000 
     97 CA         -6.4100   20.7700  -31.7400 C.3       6 GLY6        0.0000 
     98 CA         -5.3700   19.7200  -31.4600 C.3       6 GLY6        0.0000 
     99 CA         -3.7600   19.7100  -29.4200 C.3       6 GLY6        0.0000 
    100 CA         -5.4100   21.8400  -31.4200 C.3       6 GLY6        0.0000 
    101 CA         -4.3700   20.8000  -31.1400 C.3       6 GLY6        0.0000 
    102 CA         -3.1900   20.7400  -27.6600 C.3       6 GLY6        0.0000 
    103 CA         -3.8000   21.8300  -29.3800 C.3       6 GLY6        0.0000 
    104 CA         -2.7700   20.7800  -29.1000 C.3       6 GLY6        0.0000 
    105 CA         -1.7700   21.8500  -28.7700 C.3       6 GLY6        0.0000 
    106 CA         -0.7300   20.8000  -28.4900 C.3       6 GLY6        0.0000 
    107 CA         -0.3100   20.8400  -29.9300 C.3       6 GLY6        0.0000 
    108 DU         -3.2600   15.5100  -30.9500 H         7 CUB7        0.0000 
    109 DU         -2.2200   14.4600  -30.6700 H         7 CUB7        0.0000 
    110 DU         -1.8000   14.5000  -32.1100 H         7 CUB7        0.0000 
    111 DU         -1.3700   14.5400  -33.5500 H         7 CUB7        0.0000 
    112 DU         -0.3300   13.4900  -33.2700 H         7 CUB7        0.0000 
    113 DU         -2.2600   16.5800  -30.6300 H         7 CUB7        0.0000 
    114 DU         -1.2300   15.5300  -30.3500 H         7 CUB7        0.0000 
    115 DU         -1.8400   16.6200  -32.0600 H         7 CUB7        0.0000 
    116 DU         -0.8000   15.5700  -31.7900 H         7 CUB7        0.0000 
    117 DU         -2.3000   18.7000  -30.5800 H         7 CUB7        0.0000 
    118 DU         -3.3800   21.8700  -30.8100 H         7 CUB7        0.0000 
    119 DU         -2.3400   20.8200  -30.5300 H         7 CUB7        0.0000 
@<TRIPOS>BOND
@<TRIPOS>SUBSTRUCTURE
     1 SER1        1 GROUP   
     2 ALA2       18 GROUP   
     3 ASP3       46 GROUP   
     4 LYS4       50 GROUP   
     5 PHE5       57 GROUP   
     6 GLY6       89 GROUP   
     7 CUB7      108 GROUP   
@<TRIPOS>SET

