#    Name: 5oal_7_SY9_CAVITY_N1_4
#    Modification time : Fri May 22 19:14:04 2020

@<TRIPOS>MOLECULE
5oal_7_SY9_CAVITY_N1_4
  124     0     7     0     0
SMALL
NO_CHARGES


@<TRIPOS>ATOM
      1 OG         18.7500  -47.6600  -35.5300 O.3       1 SER1        0.0000 
      2 OG         19.3200  -46.6300  -33.7600 O.3       1 SER1        0.0000 
      3 OG         18.7100  -45.5400  -35.4800 O.3       1 SER1        0.0000 
      4 OG         19.7500  -46.5900  -35.2000 O.3       1 SER1        0.0000 
      5 OG         24.3200  -50.7400  -35.5200 O.3       1 SER1        0.0000 
      6 OG         19.2800  -44.5100  -33.7200 O.3       1 SER1        0.0000 
      7 OG         26.3500  -50.7200  -34.9200 O.3       1 SER1        0.0000 
      8 OG         27.3900  -51.7700  -34.6400 O.3       1 SER1        0.0000 
      9 OG         26.7800  -50.6800  -36.3600 O.3       1 SER1        0.0000 
     10 OG         20.7100  -43.4000  -34.8300 O.3       1 SER1        0.0000 
     11 OG         21.7400  -44.4400  -34.5500 O.3       1 SER1        0.0000 
     12 OG         21.1300  -43.3600  -36.2700 O.3       1 SER1        0.0000 
     13 OG         22.1700  -44.4100  -35.9900 O.3       1 SER1        0.0000 
     14 OG         21.2800  -42.3600  -33.0700 O.3       1 SER1        0.0000 
     15 OG         22.3100  -43.4100  -32.7900 O.3       1 SER1        0.0000 
     16 N          18.9300  -48.7900  -32.3700 N.am      2 ALA2        0.0000 
     17 N          21.5400  -47.7300  -30.0100 N.am      2 ALA2        0.0000 
     18 N          18.8600  -44.5500  -32.2800 N.am      2 ALA2        0.0000 
     19 N          19.8900  -45.5900  -32.0000 N.am      2 ALA2        0.0000 
     20 N          20.9300  -46.6400  -31.7200 N.am      2 ALA2        0.0000 
     21 N          21.9600  -47.6900  -31.4400 N.am      2 ALA2        0.0000 
     22 N          19.8500  -43.4700  -31.9500 N.am      2 ALA2        0.0000 
     23 N          22.9600  -46.6200  -31.1200 N.am      2 ALA2        0.0000 
     24 N          22.3500  -45.5300  -32.8300 N.am      2 ALA2        0.0000 
     25 N          21.8900  -43.4500  -31.3500 N.am      2 ALA2        0.0000 
     26 N          22.9200  -44.5000  -31.0700 N.am      2 ALA2        0.0000 
     27 N          23.9600  -45.5500  -30.7900 N.am      2 ALA2        0.0000 
     28 N          29.3800  -49.6200  -33.9900 N.am      2 ALA2        0.0000 
     29 N          30.3800  -48.5500  -33.6600 N.am      2 ALA2        0.0000 
     30 N          28.7400  -46.4200  -35.6600 N.am      2 ALA2        0.0000 
     31 OD1        19.1800  -47.6200  -36.9600 O.co2     3 ASP3        0.0000 
     32 OD1        19.6000  -47.5800  -38.4000 O.co2     3 ASP3        0.0000 
     33 OD1        19.1400  -45.5000  -36.9200 O.co2     3 ASP3        0.0000 
     34 OD1        20.1800  -46.5500  -36.6400 O.co2     3 ASP3        0.0000 
     35 OD1        20.6000  -46.5100  -38.0800 O.co2     3 ASP3        0.0000 
     36 NZ         23.0000  -48.7400  -31.1600 N.4       4 LYS4        0.0000 
     37 NZ         23.4300  -48.7000  -32.6000 N.4       4 LYS4        0.0000 
     38 NZ         24.4600  -49.7500  -32.3200 N.4       4 LYS4        0.0000 
     39 NZ         25.5000  -50.8000  -32.0400 N.4       4 LYS4        0.0000 
     40 NZ         24.0000  -47.6700  -30.8400 N.4       4 LYS4        0.0000 
     41 NZ         24.4200  -47.6300  -32.2800 N.4       4 LYS4        0.0000 
     42 NZ         25.4600  -48.6800  -32.0000 N.4       4 LYS4        0.0000 
     43 NZ         26.9200  -49.6900  -33.1600 N.4       4 LYS4        0.0000 
     44 NZ         25.0000  -46.6000  -30.5100 N.4       4 LYS4        0.0000 
     45 NZ         26.4600  -47.6100  -31.6700 N.4       4 LYS4        0.0000 
     46 NZ         27.9200  -48.6100  -32.8300 N.4       4 LYS4        0.0000 
     47 NZ         27.0300  -46.5700  -29.9100 N.4       4 LYS4        0.0000 
     48 NZ         28.9200  -47.5400  -32.5100 N.4       4 LYS4        0.0000 
     49 CZ         19.2200  -49.7400  -37.0100 C.ar      5 PHE5        0.0000 
     50 CZ         20.2500  -50.7900  -36.7300 C.ar      5 PHE5        0.0000 
     51 CZ         20.4000  -49.8000  -33.5300 C.ar      5 PHE5        0.0000 
     52 CZ         20.8200  -49.7600  -34.9700 C.ar      5 PHE5        0.0000 
     53 CZ         20.2100  -48.6700  -36.6900 C.ar      5 PHE5        0.0000 
     54 CZ         21.2500  -49.7200  -36.4100 C.ar      5 PHE5        0.0000 
     55 CZ         22.2900  -50.7700  -36.1300 C.ar      5 PHE5        0.0000 
     56 CZ         20.6400  -48.6300  -38.1200 C.ar      5 PHE5        0.0000 
     57 CZ         22.7100  -50.7300  -37.5600 C.ar      5 PHE5        0.0000 
     58 CZ         19.9300  -47.7200  -32.0500 C.ar      5 PHE5        0.0000 
     59 CZ         20.9700  -48.7600  -31.7700 C.ar      5 PHE5        0.0000 
     60 CZ         22.0000  -49.8100  -31.4900 C.ar      5 PHE5        0.0000 
     61 CZ         22.4300  -49.7700  -32.9300 C.ar      5 PHE5        0.0000 
     62 CZ         23.4700  -50.8200  -32.6500 C.ar      5 PHE5        0.0000 
     63 CZ         22.8600  -49.7300  -34.3600 C.ar      5 PHE5        0.0000 
     64 CZ         23.8900  -50.7800  -34.0900 C.ar      5 PHE5        0.0000 
     65 CZ         23.2800  -49.6900  -35.8000 C.ar      5 PHE5        0.0000 
     66 CZ         22.6700  -48.6100  -37.5200 C.ar      5 PHE5        0.0000 
     67 CZ         24.8900  -49.7100  -33.7600 C.ar      5 PHE5        0.0000 
     68 CZ         23.3500  -44.4600  -32.5100 C.ar      5 PHE5        0.0000 
     69 CZ         24.3900  -45.5100  -32.2300 C.ar      5 PHE5        0.0000 
     70 CZ         25.4200  -46.5600  -31.9500 C.ar      5 PHE5        0.0000 
     71 CZ         24.8100  -45.4700  -33.6700 C.ar      5 PHE5        0.0000 
     72 CZ         25.8500  -46.5200  -33.3900 C.ar      5 PHE5        0.0000 
     73 CZ         24.2000  -44.3800  -35.3800 C.ar      5 PHE5        0.0000 
     74 CZ         25.2400  -45.4300  -35.1000 C.ar      5 PHE5        0.0000 
     75 CZ         26.2800  -46.4800  -34.8300 C.ar      5 PHE5        0.0000 
     76 CZ         25.9900  -45.5200  -30.1900 C.ar      5 PHE5        0.0000 
     77 CZ         26.4200  -45.4800  -31.6300 C.ar      5 PHE5        0.0000 
     78 CA         18.7900  -49.7800  -35.5700 C.3       6 GLY6        0.0000 
     79 CA         19.3600  -48.7500  -33.8100 C.3       6 GLY6        0.0000 
     80 CA         19.7900  -48.7100  -35.2500 C.3       6 GLY6        0.0000 
     81 CA         18.9000  -46.6700  -32.3300 C.3       6 GLY6        0.0000 
     82 CA         20.3600  -47.6800  -33.4800 C.3       6 GLY6        0.0000 
     83 CA         18.2500  -43.4600  -34.0000 C.3       6 GLY6        0.0000 
     84 CA         18.6700  -43.4200  -35.4300 C.3       6 GLY6        0.0000 
     85 CA         19.7100  -44.4700  -35.1600 C.3       6 GLY6        0.0000 
     86 CA         20.1400  -44.4300  -36.5900 C.3       6 GLY6        0.0000 
     87 CA         27.9600  -50.7400  -32.8800 C.3       6 GLY6        0.0000 
     88 CA         28.9600  -49.6600  -32.5500 C.3       6 GLY6        0.0000 
     89 CA         27.4600  -46.5300  -31.3500 C.3       6 GLY6        0.0000 
     90 CA         27.8800  -46.4900  -32.7800 C.3       6 GLY6        0.0000 
     91 CA         29.9500  -48.5900  -32.2300 C.3       6 GLY6        0.0000 
     92 CA         28.3100  -46.4600  -34.2200 C.3       6 GLY6        0.0000 
     93 CA         29.3400  -47.5000  -33.9400 C.3       6 GLY6        0.0000 
     94 CA         29.7700  -47.4600  -35.3800 C.3       6 GLY6        0.0000 
     95 CA         29.9200  -46.4700  -32.1800 C.3       6 GLY6        0.0000 
     96 DU         21.3900  -48.7200  -33.2100 H         7 CUB7        0.0000 
     97 DU         20.7800  -47.6400  -34.9200 H         7 CUB7        0.0000 
     98 DU         21.8200  -48.6900  -34.6400 H         7 CUB7        0.0000 
     99 DU         21.2100  -47.6000  -36.3600 H         7 CUB7        0.0000 
    100 DU         22.2500  -48.6500  -36.0800 H         7 CUB7        0.0000 
    101 DU         21.6400  -47.5600  -37.8000 H         7 CUB7        0.0000 
    102 DU         20.3200  -45.5600  -33.4400 H         7 CUB7        0.0000 
    103 DU         21.3600  -46.6000  -33.1600 H         7 CUB7        0.0000 
    104 DU         22.3900  -47.6500  -32.8800 H         7 CUB7        0.0000 
    105 DU         20.7500  -45.5200  -34.8800 H         7 CUB7        0.0000 
    106 DU         23.8500  -48.6600  -34.0400 H         7 CUB7        0.0000 
    107 DU         25.9300  -50.7600  -33.4800 H         7 CUB7        0.0000 
    108 DU         21.1700  -45.4800  -36.3100 H         7 CUB7        0.0000 
    109 DU         24.2800  -48.6200  -35.4800 H         7 CUB7        0.0000 
    110 DU         25.3200  -49.6700  -35.2000 H         7 CUB7        0.0000 
    111 DU         25.7400  -49.6300  -36.6300 H         7 CUB7        0.0000 
    112 DU         20.2800  -43.4400  -33.3900 H         7 CUB7        0.0000 
    113 DU         21.3200  -44.4800  -33.1100 H         7 CUB7        0.0000 
    114 DU         23.3900  -46.5800  -32.5600 H         7 CUB7        0.0000 
    115 DU         22.7800  -45.4900  -34.2700 H         7 CUB7        0.0000 
    116 DU         23.8200  -46.5400  -33.9900 H         7 CUB7        0.0000 
    117 DU         24.8500  -47.5900  -33.7100 H         7 CUB7        0.0000 
    118 DU         25.8900  -48.6400  -33.4300 H         7 CUB7        0.0000 
    119 DU         24.2400  -46.5000  -35.4300 H         7 CUB7        0.0000 
    120 DU         27.3500  -49.6500  -34.5900 H         7 CUB7        0.0000 
    121 DU         28.3900  -50.7000  -34.3100 H         7 CUB7        0.0000 
    122 DU         26.8800  -47.5700  -33.1100 H         7 CUB7        0.0000 
    123 DU         27.3100  -47.5300  -34.5500 H         7 CUB7        0.0000 
    124 DU         28.3500  -48.5800  -34.2700 H         7 CUB7        0.0000 
@<TRIPOS>BOND
@<TRIPOS>SUBSTRUCTURE
     1 SER1        1 GROUP   
     2 ALA2       16 GROUP   
     3 ASP3       31 GROUP   
     4 LYS4       36 GROUP   
     5 PHE5       49 GROUP   
     6 GLY6       78 GROUP   
     7 CUB7       96 GROUP   
@<TRIPOS>SET

