#    Name: 5oal_15_SY9
#    Modification time : Fri May 22 19:15:04 2020

@<TRIPOS>MOLECULE
5oal_15_SY9
   25    31     1     0     0
SMALL
NO_CHARGES


@<TRIPOS>ATOM
      1 CAV        -0.7560   16.8410  -31.1990 C.3       1 SY9302      0.0000 
      2 CAU        -1.0970   17.1190  -32.6520 C.3       1 SY9302      0.0000 
      3 CAT        -0.5240   15.9780  -33.5200 C.3       1 SY9302      0.0000 
      4 CAN        -1.3680   14.7520  -33.1720 C.3       1 SY9302      0.0000 
      5 CAK        -1.1940   14.3470  -31.7150 C.3       1 SY9302      0.0000 
      6 NAH        -2.3400   13.4750  -31.3890 N.am      1 SY9302      0.0000 
      7 CAA        -3.2960   14.2260  -30.7090 C.ar      1 SY9302      0.0000 
      8 CAF        -4.6360   13.9410  -30.5110 C.ar      1 SY9302      0.0000 
      9 CAE        -5.4550   14.9540  -30.0390 C.ar      1 SY9302      0.0000 
     10 CAD        -4.9400   16.2140  -29.7530 C.ar      1 SY9302      0.0000 
     11 CAC        -3.5890   16.4730  -29.9000 C.ar      1 SY9302      0.0000 
     12 CAB        -2.7580   15.4660  -30.3710 C.ar      1 SY9302      0.0000 
     13 CAG        -1.2840   15.4870  -30.6870 C.3       1 SY9302      0.0000 
     14 CAW        -0.3160   15.2230  -29.5250 C.3       1 SY9302      0.0000 
     15 CAX         1.0130   15.5770  -30.1810 C.3       1 SY9302      0.0000 
     16 NAY         0.7110   16.7830  -30.9840 N.4       1 SY9302      0.0000 
     17 CAS         1.4800   16.8300  -32.2380 C.3       1 SY9302      0.0000 
     18 CAR         0.9580   15.8090  -33.2150 C.2       1 SY9302      0.0000 
     19 CAQ         1.6850   14.7860  -33.6530 C.2       1 SY9302      0.0000 
     20 CAP         1.1910   13.6100  -34.4490 C.3       1 SY9302      0.0000 
     21 OAO         0.1020   12.9030  -33.8200 O.3       1 SY9302      0.0000 
     22 CAM        -1.1830   13.5060  -33.9940 C.3       1 SY9302      0.0000 
     23 CAL        -2.2090   12.4420  -33.5830 C.3       1 SY9302      0.0000 
     24 CAI        -2.5770   12.3520  -32.1220 C.2       1 SY9302      0.0000 
     25 OAJ        -3.0410   11.3370  -31.6310 O.2       1 SY9302      0.0000 
@<TRIPOS>BOND
     1    1    2 1    
     2    1   13 1    
     3    1   16 1    
     4    2    3 1    
     5    3    4 1    
     6    3   18 1    
     7    4    5 1    
     8    4   22 1    
     9    5    6 1    
    10    5   13 1    
    11    6    7 1    
    12    6   24 am   
    13    7    8 ar   
    14    7   12 ar   
    15    8    9 ar   
    16    9   10 ar   
    17   10   11 ar   
    18   11   12 ar   
    19   12   13 1    
    20   13   14 1    
    21   14   15 1    
    22   15   16 1    
    23   16   17 1    
    24   17   18 1    
    25   18   19 2    
    26   19   20 1    
    27   20   21 1    
    28   21   22 1    
    29   22   23 1    
    30   23   24 1    
    31   24   25 2    
@<TRIPOS>SUBSTRUCTURE
     1 SY9302      1 GROUP   
@<TRIPOS>SET

