#    Name: 5oal_14_SY9
#    Modification time : Fri May 22 19:14:56 2020

@<TRIPOS>MOLECULE
5oal_14_SY9
   25    31     1     0     0
SMALL
NO_CHARGES


@<TRIPOS>ATOM
      1 CAV        30.0980   18.2560  -27.2100 C.3       1 SY9401      0.0000 
      2 CAU        31.3420   18.4960  -28.0420 C.3       1 SY9401      0.0000 
      3 CAT        32.2210   17.2320  -28.0200 C.3       1 SY9401      0.0000 
      4 CAN        31.4460   16.1360  -28.7670 C.3       1 SY9401      0.0000 
      5 CAK        30.0650   15.8570  -28.1700 C.3       1 SY9401      0.0000 
      6 NAH        29.2470   15.2770  -29.2590 N.am      1 SY9401      0.0000 
      7 CAA        28.3190   16.2290  -29.7000 C.ar      1 SY9401      0.0000 
      8 CAF        27.5880   16.2400  -30.8840 C.ar      1 SY9401      0.0000 
      9 CAE        26.9180   17.3970  -31.2380 C.ar      1 SY9401      0.0000 
     10 CAD        26.9350   18.5000  -30.4020 C.ar      1 SY9401      0.0000 
     11 CAC        27.6240   18.4640  -29.1960 C.ar      1 SY9401      0.0000 
     12 CAB        28.3290   17.3230  -28.8500 C.ar      1 SY9401      0.0000 
     13 CAG        29.2430   17.0650  -27.6830 C.3       1 SY9401      0.0000 
     14 CAW        28.5180   16.6960  -26.3900 C.3       1 SY9401      0.0000 
     15 CAX        29.6850   16.7380  -25.4140 C.3       1 SY9401      0.0000 
     16 NAY        30.4420   17.9410  -25.8150 N.4       1 SY9401      0.0000 
     17 CAS        31.8880   17.7990  -25.5930 C.3       1 SY9401      0.0000 
     18 CAR        32.5740   16.9050  -26.5900 C.2       1 SY9401      0.0000 
     19 CAQ        33.3310   15.8810  -26.2410 C.2       1 SY9401      0.0000 
     20 CAP        33.7220   14.7830  -27.1730 C.3       1 SY9401      0.0000 
     21 OAO        32.5680   14.1760  -27.7750 O.3       1 SY9401      0.0000 
     22 CAM        32.1230   14.7990  -28.9820 C.3       1 SY9401      0.0000 
     23 CAL        31.1430   13.8060  -29.5880 C.3       1 SY9401      0.0000 
     24 CAI        29.8050   14.3310  -30.0510 C.2       1 SY9401      0.0000 
     25 OAJ        29.2680   13.9360  -31.0620 O.2       1 SY9401      0.0000 
@<TRIPOS>BOND
     1    1    2 1    
     2    1   13 1    
     3    1   16 1    
     4    2    3 1    
     5    3    4 1    
     6    3   18 1    
     7    4    5 1    
     8    4   22 1    
     9    5    6 1    
    10    5   13 1    
    11    6    7 1    
    12    6   24 am   
    13    7    8 ar   
    14    7   12 ar   
    15    8    9 ar   
    16    9   10 ar   
    17   10   11 ar   
    18   11   12 ar   
    19   12   13 1    
    20   13   14 1    
    21   14   15 1    
    22   15   16 1    
    23   16   17 1    
    24   17   18 1    
    25   18   19 2    
    26   19   20 1    
    27   20   21 1    
    28   21   22 1    
    29   22   23 1    
    30   23   24 1    
    31   24   25 2    
@<TRIPOS>SUBSTRUCTURE
     1 SY9401      1 GROUP   
@<TRIPOS>SET

