#    Name: 5oal_3_SY9
#    Modification time : Fri May 22 19:13:33 2020

@<TRIPOS>MOLECULE
5oal_3_SY9
   25    31     1     0     0
SMALL
NO_CHARGES


@<TRIPOS>ATOM
      1 CAV       -53.8390  -36.1150  -27.6690 C.3       1 SY9402      0.0000 
      2 CAU       -54.4760  -36.3740  -29.0180 C.3       1 SY9402      0.0000 
      3 CAT       -55.9710  -36.0310  -28.9370 C.3       1 SY9402      0.0000 
      4 CAN       -56.0450  -34.5000  -28.7720 C.3       1 SY9402      0.0000 
      5 CAK       -55.2870  -33.9840  -27.5520 C.3       1 SY9402      0.0000 
      6 NAH       -54.9340  -32.5720  -27.8530 N.am      1 SY9402      0.0000 
      7 CAA       -53.5410  -32.4540  -27.9490 C.ar      1 SY9402      0.0000 
      8 CAF       -52.7990  -31.3430  -28.3290 C.ar      1 SY9402      0.0000 
      9 CAE       -51.4860  -31.5400  -28.7140 C.ar      1 SY9402      0.0000 
     10 CAD       -50.9280  -32.8180  -28.7000 C.ar      1 SY9402      0.0000 
     11 CAC       -51.6550  -33.9080  -28.2410 C.ar      1 SY9402      0.0000 
     12 CAB       -52.9620  -33.7100  -27.8310 C.ar      1 SY9402      0.0000 
     13 CAG       -53.9440  -34.6570  -27.2050 C.3       1 SY9402      0.0000 
     14 CAW       -53.8260  -34.8400  -25.6860 C.3       1 SY9402      0.0000 
     15 CAX       -54.7660  -36.0240  -25.4470 C.3       1 SY9402      0.0000 
     16 NAY       -54.4820  -36.9170  -26.5880 N.4       1 SY9402      0.0000 
     17 CAS       -55.6500  -37.6910  -27.0540 C.3       1 SY9402      0.0000 
     18 CAR       -56.6220  -36.8470  -27.8300 C.2       1 SY9402      0.0000 
     19 CAQ       -57.8950  -36.7290  -27.4950 C.2       1 SY9402      0.0000 
     20 CAP       -58.8120  -35.6430  -27.9700 C.3       1 SY9402      0.0000 
     21 OAO       -58.2730  -34.3320  -27.7220 O.3       1 SY9402      0.0000 
     22 CAM       -57.4070  -33.8370  -28.7490 C.3       1 SY9402      0.0000 
     23 CAL       -57.2540  -32.3400  -28.4690 C.3       1 SY9402      0.0000 
     24 CAI       -55.8410  -31.8230  -28.5480 C.2       1 SY9402      0.0000 
     25 OAJ       -55.5150  -30.9220  -29.2950 O.2       1 SY9402      0.0000 
@<TRIPOS>BOND
     1    1    2 1    
     2    1   13 1    
     3    1   16 1    
     4    2    3 1    
     5    3    4 1    
     6    3   18 1    
     7    4    5 1    
     8    4   22 1    
     9    5    6 1    
    10    5   13 1    
    11    6    7 1    
    12    6   24 am   
    13    7    8 ar   
    14    7   12 ar   
    15    8    9 ar   
    16    9   10 ar   
    17   10   11 ar   
    18   11   12 ar   
    19   12   13 1    
    20   13   14 1    
    21   14   15 1    
    22   15   16 1    
    23   16   17 1    
    24   17   18 1    
    25   18   19 2    
    26   19   20 1    
    27   20   21 1    
    28   21   22 1    
    29   22   23 1    
    30   23   24 1    
    31   24   25 2    
@<TRIPOS>SUBSTRUCTURE
     1 SY9402      1 GROUP   
@<TRIPOS>SET

