#    Name: 5oal_2_SY9
#    Modification time : Fri May 22 19:13:25 2020

@<TRIPOS>MOLECULE
5oal_2_SY9
   25    31     1     0     0
SMALL
NO_CHARGES


@<TRIPOS>ATOM
      1 CAV       -65.3980  -54.9910   -5.7920 C.3       1 SY9401      0.0000 
      2 CAU       -66.4090  -56.1330   -5.7720 C.3       1 SY9401      0.0000 
      3 CAT       -67.5070  -55.7940   -4.7540 C.3       1 SY9401      0.0000 
      4 CAN       -68.2950  -54.5950   -5.3260 C.3       1 SY9401      0.0000 
      5 CAK       -67.4160  -53.3690   -5.5790 C.3       1 SY9401      0.0000 
      6 NAH       -68.1100  -52.5720   -6.6190 N.am      1 SY9401      0.0000 
      7 CAA       -67.4550  -52.7660   -7.8620 C.ar      1 SY9401      0.0000 
      8 CAF       -67.9030  -52.4770   -9.1520 C.ar      1 SY9401      0.0000 
      9 CAE       -67.1390  -52.9030  -10.2320 C.ar      1 SY9401      0.0000 
     10 CAD       -65.9450  -53.5880  -10.0290 C.ar      1 SY9401      0.0000 
     11 CAC       -65.4890  -53.8410   -8.7430 C.ar      1 SY9401      0.0000 
     12 CAB       -66.2440  -53.4240   -7.6510 C.ar      1 SY9401      0.0000 
     13 CAG       -66.0010  -53.6210   -6.1700 C.3       1 SY9401      0.0000 
     14 CAW       -64.9710  -52.6670   -5.5390 C.3       1 SY9401      0.0000 
     15 CAX       -64.7180  -53.3340   -4.1880 C.3       1 SY9401      0.0000 
     16 NAY       -64.7390  -54.7880   -4.4650 N.4       1 SY9401      0.0000 
     17 CAS       -65.3570  -55.5780   -3.3850 C.3       1 SY9401      0.0000 
     18 CAR       -66.8700  -55.5460   -3.3930 C.2       1 SY9401      0.0000 
     19 CAQ       -67.5890  -55.2630   -2.3210 C.2       1 SY9401      0.0000 
     20 CAP       -69.0700  -55.0680   -2.4090 C.3       1 SY9401      0.0000 
     21 OAO       -69.3690  -53.8910   -3.1830 O.3       1 SY9401      0.0000 
     22 CAM       -69.5520  -54.1160   -4.5840 C.3       1 SY9401      0.0000 
     23 CAL       -70.0100  -52.7520   -5.1250 C.3       1 SY9401      0.0000 
     24 CAI       -69.4340  -52.2860   -6.4400 C.2       1 SY9401      0.0000 
     25 OAJ       -70.0940  -51.6560   -7.2580 O.2       1 SY9401      0.0000 
@<TRIPOS>BOND
     1    1    2 1    
     2    1   13 1    
     3    1   16 1    
     4    2    3 1    
     5    3    4 1    
     6    3   18 1    
     7    4    5 1    
     8    4   22 1    
     9    5    6 1    
    10    5   13 1    
    11    6    7 1    
    12    6   24 am   
    13    7    8 ar   
    14    7   12 ar   
    15    8    9 ar   
    16    9   10 ar   
    17   10   11 ar   
    18   11   12 ar   
    19   12   13 1    
    20   13   14 1    
    21   14   15 1    
    22   15   16 1    
    23   16   17 1    
    24   17   18 1    
    25   18   19 2    
    26   19   20 1    
    27   20   21 1    
    28   21   22 1    
    29   22   23 1    
    30   23   24 1    
    31   24   25 2    
@<TRIPOS>SUBSTRUCTURE
     1 SY9401      1 GROUP   
@<TRIPOS>SET

