#    Name: 5oal_5_SY9
#    Modification time : Fri May 22 19:13:48 2020

@<TRIPOS>MOLECULE
5oal_5_SY9
   25    31     1     0     0
SMALL
NO_CHARGES


@<TRIPOS>ATOM
      1 CAV       -34.2120  -21.1460   16.1600 C.3       1 SY9401      0.0000 
      2 CAU       -33.2470  -20.2890   16.9700 C.3       1 SY9401      0.0000 
      3 CAT       -33.7060  -18.8230   16.9620 C.3       1 SY9401      0.0000 
      4 CAN       -35.0280  -18.7740   17.7410 C.3       1 SY9401      0.0000 
      5 CAK       -36.1000  -19.6950   17.1580 C.3       1 SY9401      0.0000 
      6 NAH       -37.0360  -19.9740   18.2650 N.am      1 SY9401      0.0000 
      7 CAA       -36.8200  -21.2520   18.7460 C.ar      1 SY9401      0.0000 
      8 CAF       -37.3290  -21.8310   19.9030 C.ar      1 SY9401      0.0000 
      9 CAE       -37.0310  -23.1590   20.1390 C.ar      1 SY9401      0.0000 
     10 CAD       -36.2340  -23.8790   19.2530 C.ar      1 SY9401      0.0000 
     11 CAC       -35.7260  -23.2860   18.1050 C.ar      1 SY9401      0.0000 
     12 CAB       -36.0290  -21.9650   17.8480 C.ar      1 SY9401      0.0000 
     13 CAG       -35.6600  -21.1040   16.6700 C.3       1 SY9401      0.0000 
     14 CAW       -36.4260  -21.5190   15.4000 C.3       1 SY9401      0.0000 
     15 CAX       -35.7100  -20.7210   14.3160 C.3       1 SY9401      0.0000 
     16 NAY       -34.2960  -20.7000   14.7430 N.4       1 SY9401      0.0000 
     17 CAS       -33.6180  -19.4000   14.4890 C.3       1 SY9401      0.0000 
     18 CAR       -33.7720  -18.3160   15.5260 C.2       1 SY9401      0.0000 
     19 CAQ       -34.0520  -17.0630   15.2180 C.2       1 SY9401      0.0000 
     20 CAP       -34.6120  -16.1080   16.2240 C.3       1 SY9401      0.0000 
     21 OAO       -35.8380  -16.6240   16.7990 O.3       1 SY9401      0.0000 
     22 CAM       -35.6750  -17.4160   17.9830 C.3       1 SY9401      0.0000 
     23 CAL       -37.1230  -17.5840   18.5440 C.3       1 SY9401      0.0000 
     24 CAI       -37.6300  -18.9600   18.9320 C.2       1 SY9401      0.0000 
     25 OAJ       -38.5730  -19.1490   19.7170 O.2       1 SY9401      0.0000 
@<TRIPOS>BOND
     1    1    2 1    
     2    1   13 1    
     3    1   16 1    
     4    2    3 1    
     5    3    4 1    
     6    3   18 1    
     7    4    5 1    
     8    4   22 1    
     9    5    6 1    
    10    5   13 1    
    11    6    7 1    
    12    6   24 am   
    13    7    8 ar   
    14    7   12 ar   
    15    8    9 ar   
    16    9   10 ar   
    17   10   11 ar   
    18   11   12 ar   
    19   12   13 1    
    20   13   14 1    
    21   14   15 1    
    22   15   16 1    
    23   16   17 1    
    24   17   18 1    
    25   18   19 2    
    26   19   20 1    
    27   20   21 1    
    28   21   22 1    
    29   22   23 1    
    30   23   24 1    
    31   24   25 2    
@<TRIPOS>SUBSTRUCTURE
     1 SY9401      1 GROUP   
@<TRIPOS>SET

