#    Name: 5oal_4_SY9
#    Modification time : Fri May 22 19:13:41 2020

@<TRIPOS>MOLECULE
5oal_4_SY9
   25    31     1     0     0
SMALL
NO_CHARGES


@<TRIPOS>ATOM
      1 CAV       -34.7310  -15.4330  -14.1580 C.3       1 SY9401      0.0000 
      2 CAU       -34.0350  -14.5960  -15.2340 C.3       1 SY9401      0.0000 
      3 CAT       -35.0240  -13.5460  -15.7780 C.3       1 SY9401      0.0000 
      4 CAN       -35.2820  -12.5770  -14.6160 C.3       1 SY9401      0.0000 
      5 CAK       -35.9910  -13.2820  -13.4540 C.3       1 SY9401      0.0000 
      6 NAH       -35.8850  -12.3890  -12.2720 N.am      1 SY9401      0.0000 
      7 CAA       -34.8780  -12.8900  -11.4060 C.ar      1 SY9401      0.0000 
      8 CAF       -34.2410  -12.2520  -10.3450 C.ar      1 SY9401      0.0000 
      9 CAE       -33.0720  -12.8080   -9.8470 C.ar      1 SY9401      0.0000 
     10 CAD       -32.5640  -13.9910  -10.3820 C.ar      1 SY9401      0.0000 
     11 CAC       -33.2390  -14.6590  -11.3940 C.ar      1 SY9401      0.0000 
     12 CAB       -34.4140  -14.1130  -11.8990 C.ar      1 SY9401      0.0000 
     13 CAG       -35.3430  -14.6140  -12.9870 C.3       1 SY9401      0.0000 
     14 CAW       -36.4090  -15.5990  -12.4800 C.3       1 SY9401      0.0000 
     15 CAX       -36.9970  -16.1370  -13.7760 C.3       1 SY9401      0.0000 
     16 NAY       -35.8720  -16.1960  -14.7310 N.4       1 SY9401      0.0000 
     17 CAS       -36.2500  -15.7440  -16.0870 C.3       1 SY9401      0.0000 
     18 CAR       -36.2850  -14.2420  -16.2530 C.2       1 SY9401      0.0000 
     19 CAQ       -37.3710  -13.5760  -16.6430 C.2       1 SY9401      0.0000 
     20 CAP       -37.5040  -12.0790  -16.6780 C.3       1 SY9401      0.0000 
     21 OAO       -37.3840  -11.4660  -15.3710 O.3       1 SY9401      0.0000 
     22 CAM       -36.0390  -11.2730  -14.9130 C.3       1 SY9401      0.0000 
     23 CAL       -36.1370  -10.4000  -13.6430 C.3       1 SY9401      0.0000 
     24 CAI       -36.3720  -11.1110  -12.3360 C.2       1 SY9401      0.0000 
     25 OAJ       -37.0370  -10.6170  -11.4450 O.2       1 SY9401      0.0000 
@<TRIPOS>BOND
     1    1    2 1    
     2    1   13 1    
     3    1   16 1    
     4    2    3 1    
     5    3    4 1    
     6    3   18 1    
     7    4    5 1    
     8    4   22 1    
     9    5    6 1    
    10    5   13 1    
    11    6    7 1    
    12    6   24 am   
    13    7    8 ar   
    14    7   12 ar   
    15    8    9 ar   
    16    9   10 ar   
    17   10   11 ar   
    18   11   12 ar   
    19   12   13 1    
    20   13   14 1    
    21   14   15 1    
    22   15   16 1    
    23   16   17 1    
    24   17   18 1    
    25   18   19 2    
    26   19   20 1    
    27   20   21 1    
    28   21   22 1    
    29   22   23 1    
    30   23   24 1    
    31   24   25 2    
@<TRIPOS>SUBSTRUCTURE
     1 SY9401      1 GROUP   
@<TRIPOS>SET

