#    Name: 5oal_1_SY9
#    Modification time : Fri May 22 19:13:17 2020

@<TRIPOS>MOLECULE
5oal_1_SY9
   25    31     1     0     0
SMALL
NO_CHARGES


@<TRIPOS>ATOM
      1 CAV       -51.8920  -46.3250   21.2380 C.3       1 SY9401      0.0000 
      2 CAU       -52.0860  -46.4090   22.7380 C.3       1 SY9401      0.0000 
      3 CAT       -52.9250  -45.2090   23.1990 C.3       1 SY9401      0.0000 
      4 CAN       -54.3340  -45.4190   22.6340 C.3       1 SY9401      0.0000 
      5 CAK       -54.3720  -45.6030   21.1170 C.3       1 SY9401      0.0000 
      6 NAH       -55.5770  -46.4230   20.8490 N.am      1 SY9401      0.0000 
      7 CAA       -55.1680  -47.7110   20.3850 C.ar      1 SY9401      0.0000 
      8 CAF       -55.9480  -48.8400   20.1380 C.ar      1 SY9401      0.0000 
      9 CAE       -55.3070  -49.9950   19.7170 C.ar      1 SY9401      0.0000 
     10 CAD       -53.9190  -50.0290   19.5460 C.ar      1 SY9401      0.0000 
     11 CAC       -53.1490  -48.9010   19.7910 C.ar      1 SY9401      0.0000 
     12 CAB       -53.7820  -47.7330   20.2020 C.ar      1 SY9401      0.0000 
     13 CAG       -53.2010  -46.3740   20.4430 C.3       1 SY9401      0.0000 
     14 CAW       -52.7630  -45.6780   19.1540 C.3       1 SY9401      0.0000 
     15 CAX       -52.0410  -44.4750   19.7330 C.3       1 SY9401      0.0000 
     16 NAY       -51.2370  -45.0490   20.8240 N.4       1 SY9401      0.0000 
     17 CAS       -51.0300  -44.1090   21.9400 C.3       1 SY9401      0.0000 
     18 CAR       -52.2550  -43.9120   22.7950 C.2       1 SY9401      0.0000 
     19 CAQ       -52.7570  -42.7190   23.0710 C.2       1 SY9401      0.0000 
     20 CAP       -54.1810  -42.3810   23.4210 C.3       1 SY9401      0.0000 
     21 OAO       -55.1350  -43.0680   22.5820 O.3       1 SY9401      0.0000 
     22 CAM       -55.4250  -44.4140   22.9810 C.3       1 SY9401      0.0000 
     23 CAL       -56.7000  -44.7910   22.2570 C.3       1 SY9401      0.0000 
     24 CAI       -56.6730  -46.1680   21.6400 C.2       1 SY9401      0.0000 
     25 OAJ       -57.4300  -47.0400   22.0080 O.2       1 SY9401      0.0000 
@<TRIPOS>BOND
     1    1    2 1    
     2    1   13 1    
     3    1   16 1    
     4    2    3 1    
     5    3    4 1    
     6    3   18 1    
     7    4    5 1    
     8    4   22 1    
     9    5    6 1    
    10    5   13 1    
    11    6    7 1    
    12    6   24 am   
    13    7    8 ar   
    14    7   12 ar   
    15    8    9 ar   
    16    9   10 ar   
    17   10   11 ar   
    18   11   12 ar   
    19   12   13 1    
    20   13   14 1    
    21   14   15 1    
    22   15   16 1    
    23   16   17 1    
    24   17   18 1    
    25   18   19 2    
    26   19   20 1    
    27   20   21 1    
    28   21   22 1    
    29   22   23 1    
    30   23   24 1    
    31   24   25 2    
@<TRIPOS>SUBSTRUCTURE
     1 SY9401      1 GROUP   
@<TRIPOS>SET

