#    Name: 5oal_12_SY9
#    Modification time : Fri May 22 19:14:41 2020

@<TRIPOS>MOLECULE
5oal_12_SY9
   25    31     1     0     0
SMALL
NO_CHARGES


@<TRIPOS>ATOM
      1 CAV       -14.0340   10.6920   -3.0380 C.3       1 SY9402      0.0000 
      2 CAU       -15.5440   10.4910   -3.0560 C.3       1 SY9402      0.0000 
      3 CAT       -15.8870    9.5260   -4.2020 C.3       1 SY9402      0.0000 
      4 CAN       -15.3490    8.1400   -3.7810 C.3       1 SY9402      0.0000 
      5 CAK       -13.8320    8.1450   -3.5920 C.3       1 SY9402      0.0000 
      6 NAH       -13.5170    6.9990   -2.6970 N.am      1 SY9402      0.0000 
      7 CAA       -13.1230    7.4940   -1.4230 C.ar      1 SY9402      0.0000 
      8 CAF       -12.8730    6.7970   -0.2470 C.ar      1 SY9402      0.0000 
      9 CAE       -12.6350    7.5240    0.9100 C.ar      1 SY9402      0.0000 
     10 CAD       -12.6850    8.9060    0.9060 C.ar      1 SY9402      0.0000 
     11 CAC       -12.9150    9.5960   -0.2710 C.ar      1 SY9402      0.0000 
     12 CAB       -13.1030    8.8870   -1.4490 C.ar      1 SY9402      0.0000 
     13 CAG       -13.2220    9.3870   -2.8650 C.3       1 SY9402      0.0000 
     14 CAW       -11.8770    9.8000   -3.4910 C.3       1 SY9402      0.0000 
     15 CAX       -12.3200   10.5690   -4.7240 C.3       1 SY9402      0.0000 
     16 NAY       -13.5300   11.3050   -4.3050 N.4       1 SY9402      0.0000 
     17 CAS       -14.5490   11.3620   -5.3650 C.3       1 SY9402      0.0000 
     18 CAR       -15.2930   10.0570   -5.5030 C.2       1 SY9402      0.0000 
     19 CAQ       -15.3800    9.3930   -6.6450 C.2       1 SY9402      0.0000 
     20 CAP       -16.0940    8.0770   -6.7390 C.3       1 SY9402      0.0000 
     21 OAO       -15.3900    7.0350   -6.0350 O.3       1 SY9402      0.0000 
     22 CAM       -15.7130    6.9100   -4.6450 C.3       1 SY9402      0.0000 
     23 CAL       -14.9260    5.6520   -4.1770 C.3       1 SY9402      0.0000 
     24 CAI       -14.0280    5.7570   -2.9640 C.2       1 SY9402      0.0000 
     25 OAJ       -13.7380    4.7710   -2.3040 O.2       1 SY9402      0.0000 
@<TRIPOS>BOND
     1    1    2 1    
     2    1   13 1    
     3    1   16 1    
     4    2    3 1    
     5    3    4 1    
     6    3   18 1    
     7    4    5 1    
     8    4   22 1    
     9    5    6 1    
    10    5   13 1    
    11    6    7 1    
    12    6   24 am   
    13    7    8 ar   
    14    7   12 ar   
    15    8    9 ar   
    16    9   10 ar   
    17   10   11 ar   
    18   11   12 ar   
    19   12   13 1    
    20   13   14 1    
    21   14   15 1    
    22   15   16 1    
    23   16   17 1    
    24   17   18 1    
    25   18   19 2    
    26   19   20 1    
    27   20   21 1    
    28   21   22 1    
    29   22   23 1    
    30   23   24 1    
    31   24   25 2    
@<TRIPOS>SUBSTRUCTURE
     1 SY9402      1 GROUP   
@<TRIPOS>SET

