#    Name: 5oal_11_SY9
#    Modification time : Fri May 22 19:14:34 2020

@<TRIPOS>MOLECULE
5oal_11_SY9
   25    31     1     0     0
SMALL
NO_CHARGES


@<TRIPOS>ATOM
      1 CAV         8.8460    9.9560   17.7300 C.3       1 SY9401      0.0000 
      2 CAU         8.3160    9.5910   19.1060 C.3       1 SY9401      0.0000 
      3 CAT         7.9300    8.1090   19.1070 C.3       1 SY9401      0.0000 
      4 CAN         9.2350    7.3060   18.9810 C.3       1 SY9401      0.0000 
      5 CAK        10.0320    7.6520   17.7240 C.3       1 SY9401      0.0000 
      6 NAH        11.4410    7.3120   18.0290 N.am      1 SY9401      0.0000 
      7 CAA        12.1360    8.4940   18.3250 C.ar      1 SY9401      0.0000 
      8 CAF        13.3130    8.6470   19.0450 C.ar      1 SY9401      0.0000 
      9 CAE        13.6990    9.9280   19.4030 C.ar      1 SY9401      0.0000 
     10 CAD        12.9630   11.0390   19.0010 C.ar      1 SY9401      0.0000 
     11 CAC        11.8140   10.8820   18.2430 C.ar      1 SY9401      0.0000 
     12 CAB        11.3840    9.5970   17.9190 C.ar      1 SY9401      0.0000 
     13 CAG        10.0810    9.1410   17.2960 C.3       1 SY9401      0.0000 
     14 CAW         9.9900    9.2740   15.7580 C.3       1 SY9401      0.0000 
     15 CAX         8.4900    9.1240   15.4920 C.3       1 SY9401      0.0000 
     16 NAY         7.8330    9.7540   16.6520 N.4       1 SY9401      0.0000 
     17 CAS         6.6330    9.0310   17.1100 C.3       1 SY9401      0.0000 
     18 CAR         6.9020    7.8490   18.0120 C.2       1 SY9401      0.0000 
     19 CAQ         6.3420    6.6630   17.8280 C.2       1 SY9401      0.0000 
     20 CAP         6.8370    5.4240   18.5010 C.3       1 SY9401      0.0000 
     21 OAO         8.2190    5.1820   18.1730 O.3       1 SY9401      0.0000 
     22 CAM         9.1670    5.7810   19.0630 C.3       1 SY9401      0.0000 
     23 CAL        10.5020    5.1710   18.6530 C.3       1 SY9401      0.0000 
     24 CAI        11.6820    6.1000   18.6020 C.2       1 SY9401      0.0000 
     25 OAJ        12.7510    5.8050   19.0800 O.2       1 SY9401      0.0000 
@<TRIPOS>BOND
     1    1    2 1    
     2    1   13 1    
     3    1   16 1    
     4    2    3 1    
     5    3    4 1    
     6    3   18 1    
     7    4    5 1    
     8    4   22 1    
     9    5    6 1    
    10    5   13 1    
    11    6    7 1    
    12    6   24 am   
    13    7    8 ar   
    14    7   12 ar   
    15    8    9 ar   
    16    9   10 ar   
    17   10   11 ar   
    18   11   12 ar   
    19   12   13 1    
    20   13   14 1    
    21   14   15 1    
    22   15   16 1    
    23   16   17 1    
    24   17   18 1    
    25   18   19 2    
    26   19   20 1    
    27   20   21 1    
    28   21   22 1    
    29   22   23 1    
    30   23   24 1    
    31   24   25 2    
@<TRIPOS>SUBSTRUCTURE
     1 SY9401      1 GROUP   
@<TRIPOS>SET

