#    Name: 5oal_9_SY9_CAVITY_N1_4
#    Modification time : Fri May 22 19:14:19 2020

@<TRIPOS>MOLECULE
5oal_9_SY9_CAVITY_N1_4
   85     0     7     0     0
SMALL
NO_CHARGES


@<TRIPOS>ATOM
      1 OG        -13.0800  -77.3800  -12.9100 O.3       1 SER1        0.0000 
      2 OG        -13.6800  -76.2900  -14.6300 O.3       1 SER1        0.0000 
      3 OG        -13.9700  -75.3400   -9.9900 O.3       1 SER1        0.0000 
      4 OG        -13.1100  -75.2600  -12.8700 O.3       1 SER1        0.0000 
      5 OG        -12.6900  -75.2200  -14.3000 O.3       1 SER1        0.0000 
      6 OG        -18.0100  -68.0300   -7.8600 O.3       1 SER1        0.0000 
      7 OG        -18.6100  -66.9400   -9.5800 O.3       1 SER1        0.0000 
      8 OG        -17.5800  -67.9900   -9.3000 O.3       1 SER1        0.0000 
      9 OG        -16.5400  -69.0400   -9.0200 O.3       1 SER1        0.0000 
     10 OG        -17.1500  -67.9500  -10.7400 O.3       1 SER1        0.0000 
     11 OG        -15.3600  -69.0900   -5.5400 O.3       1 SER1        0.0000 
     12 OG        -14.3300  -70.1400   -5.2600 O.3       1 SER1        0.0000 
     13 OG        -15.9700  -68.0100   -7.2600 O.3       1 SER1        0.0000 
     14 OG        -14.9400  -69.0500   -6.9800 O.3       1 SER1        0.0000 
     15 OG        -13.9000  -70.1000   -6.7000 O.3       1 SER1        0.0000 
     16 OG        -14.5100  -69.0100   -8.4200 O.3       1 SER1        0.0000 
     17 OG        -14.5500  -66.8900   -8.3700 O.3       1 SER1        0.0000 
     18 N         -15.4300  -74.3300   -8.8300 N.am      2 ALA2        0.0000 
     19 N         -16.0400  -73.2400  -10.5500 N.am      2 ALA2        0.0000 
     20 N         -14.8600  -73.2900   -7.0700 N.am      2 ALA2        0.0000 
     21 N         -17.5400  -70.1100   -9.3500 N.am      2 ALA2        0.0000 
     22 N         -16.5000  -71.1600   -9.0700 N.am      2 ALA2        0.0000 
     23 N         -15.4700  -72.2100   -8.7900 N.am      2 ALA2        0.0000 
     24 N         -14.4300  -73.2600   -8.5100 N.am      2 ALA2        0.0000 
     25 N         -15.0400  -72.1700  -10.2300 N.am      2 ALA2        0.0000 
     26 N         -17.4000  -69.1200   -6.1500 N.am      2 ALA2        0.0000 
     27 N         -16.3600  -70.1700   -5.8700 N.am      2 ALA2        0.0000 
     28 N         -16.9700  -69.0800   -7.5800 N.am      2 ALA2        0.0000 
     29 N         -15.9300  -70.1300   -7.3000 N.am      2 ALA2        0.0000 
     30 N         -14.9000  -71.1700   -7.0200 N.am      2 ALA2        0.0000 
     31 N         -13.8600  -72.2200   -6.7500 N.am      2 ALA2        0.0000 
     32 N         -15.5100  -70.0900   -8.7400 N.am      2 ALA2        0.0000 
     33 N         -14.4700  -71.1400   -8.4600 N.am      2 ALA2        0.0000 
     34 N         -16.1200  -69.0000  -10.4600 N.am      2 ALA2        0.0000 
     35 N         -15.0800  -70.0500  -10.1800 N.am      2 ALA2        0.0000 
     36 N         -15.6900  -68.9600  -11.9000 N.am      2 ALA2        0.0000 
     37 N         -14.6500  -70.0100  -11.6200 N.am      2 ALA2        0.0000 
     38 N         -16.5800  -66.9200   -8.9700 N.am      2 ALA2        0.0000 
     39 N         -15.5500  -67.9700   -8.7000 N.am      2 ALA2        0.0000 
     40 N         -16.1500  -66.8800  -10.4100 N.am      2 ALA2        0.0000 
     41 N         -14.0800  -68.9800   -9.8500 N.am      2 ALA2        0.0000 
     42 N         -13.0900  -67.9000   -9.5300 N.am      2 ALA2        0.0000 
     43 N         -12.0500  -68.9500   -9.2500 N.am      2 ALA2        0.0000 
     44 OD1       -15.3200  -71.2100   -5.5900 O.co2     3 ASP3        0.0000 
     45 NZ        -16.2200  -72.1100  -13.7000 N.4       4 LYS4        0.0000 
     46 NZ        -15.1900  -73.1600  -13.4300 N.4       4 LYS4        0.0000 
     47 NZ        -14.1500  -74.2100  -13.1500 N.4       4 LYS4        0.0000 
     48 NZ        -14.6100  -72.1300  -11.6600 N.4       4 LYS4        0.0000 
     49 NZ        -15.2200  -71.0400  -13.3800 N.4       4 LYS4        0.0000 
     50 NZ        -13.1500  -73.1400  -12.8200 N.4       4 LYS4        0.0000 
     51 NZ        -14.2300  -69.9700  -13.0500 N.4       4 LYS4        0.0000 
     52 NZ        -13.1900  -71.0200  -12.7700 N.4       4 LYS4        0.0000 
     53 CZ        -14.1100  -76.3300  -13.1900 C.ar      5 PHE5        0.0000 
     54 CZ        -14.3900  -75.3800   -8.5500 C.ar      5 PHE5        0.0000 
     55 CZ        -15.0000  -74.2900  -10.2700 C.ar      5 PHE5        0.0000 
     56 CZ        -16.6500  -72.1500  -12.2700 C.ar      5 PHE5        0.0000 
     57 CZ        -15.6100  -73.2000  -11.9900 C.ar      5 PHE5        0.0000 
     58 CZ        -14.5800  -74.2500  -11.7100 C.ar      5 PHE5        0.0000 
     59 CZ        -13.5400  -75.3000  -11.4300 C.ar      5 PHE5        0.0000 
     60 CZ        -13.8200  -74.3400   -6.7900 C.ar      5 PHE5        0.0000 
     61 CZ        -13.4000  -74.3000   -8.2300 C.ar      5 PHE5        0.0000 
     62 CZ        -17.1100  -70.0700  -10.7800 C.ar      5 PHE5        0.0000 
     63 CZ        -14.0100  -73.2200   -9.9500 C.ar      5 PHE5        0.0000 
     64 CZ        -16.6900  -70.0300  -12.2200 C.ar      5 PHE5        0.0000 
     65 CZ        -13.5800  -73.1800  -11.3800 C.ar      5 PHE5        0.0000 
     66 CZ        -16.2600  -69.9900  -13.6600 C.ar      5 PHE5        0.0000 
     67 CZ        -14.2900  -72.2600   -5.3100 C.ar      5 PHE5        0.0000 
     68 CZ        -12.8300  -73.2700   -6.4700 C.ar      5 PHE5        0.0000 
     69 CZ        -13.4400  -72.1800   -8.1800 C.ar      5 PHE5        0.0000 
     70 CZ        -13.0100  -72.1400   -9.6200 C.ar      5 PHE5        0.0000 
     71 CZ        -12.5800  -72.1100  -11.0600 C.ar      5 PHE5        0.0000 
     72 CZ        -13.0500  -70.0200   -9.5700 C.ar      5 PHE5        0.0000 
     73 CZ        -12.0100  -71.0700   -9.3000 C.ar      5 PHE5        0.0000 
     74 CZ        -12.6200  -69.9900  -11.0100 C.ar      5 PHE5        0.0000 
     75 CZ        -11.5800  -71.0300  -10.7300 C.ar      5 PHE5        0.0000 
     76 CA        -16.4000  -68.0400   -5.8200 C.3       6 GLY6        0.0000 
     77 CA        -13.2900  -71.1900   -4.9800 C.3       6 GLY6        0.0000 
     78 CA        -17.0100  -66.9600   -7.5400 C.3       6 GLY6        0.0000 
     79 CA        -12.8600  -71.1500   -6.4200 C.3       6 GLY6        0.0000 
     80 CA        -13.4700  -70.0600   -8.1400 C.3       6 GLY6        0.0000 
     81 CA        -12.4400  -71.1100   -7.8600 C.3       6 GLY6        0.0000 
     82 DU        -16.0800  -71.1200  -10.5000 H         7 CUB7        0.0000 
     83 DU        -15.6500  -71.0800  -11.9400 H         7 CUB7        0.0000 
     84 DU        -14.0400  -71.1000   -9.9000 H         7 CUB7        0.0000 
     85 DU        -13.6200  -71.0600  -11.3400 H         7 CUB7        0.0000 
@<TRIPOS>BOND
@<TRIPOS>SUBSTRUCTURE
     1 SER1        1 GROUP   
     2 ALA2       18 GROUP   
     3 ASP3       44 GROUP   
     4 LYS4       45 GROUP   
     5 PHE5       53 GROUP   
     6 GLY6       76 GROUP   
     7 CUB7       82 GROUP   
@<TRIPOS>SET

