#    Name: 5oal_14_SY9_CAVITY_N1_6
#    Modification time : Fri May 22 19:14:58 2020

@<TRIPOS>MOLECULE
5oal_14_SY9_CAVITY_N1_6
  158     0     7     0     0
SMALL
NO_CHARGES


@<TRIPOS>ATOM
      1 OG         31.0900    9.6800  -27.1700 O.3       1 SER1        0.0000 
      2 OG         32.5600    8.6700  -28.3300 O.3       1 SER1        0.0000 
      3 OG         28.8400   12.9000  -30.8800 O.3       1 SER1        0.0000 
      4 OG         31.0600   11.8000  -27.1300 O.3       1 SER1        0.0000 
      5 OG         32.0900   10.7500  -26.8500 O.3       1 SER1        0.0000 
      6 OG         31.4800   11.8400  -28.5600 O.3       1 SER1        0.0000 
      7 OG         32.5200   10.7900  -28.2800 O.3       1 SER1        0.0000 
      8 OG         29.8400   13.9700  -30.5600 O.3       1 SER1        0.0000 
      9 OG         30.8700   12.9300  -30.2800 O.3       1 SER1        0.0000 
     10 OG         32.9500   10.8300  -29.7200 O.3       1 SER1        0.0000 
     11 OG         31.3000   12.9700  -31.7200 O.3       1 SER1        0.0000 
     12 OG         32.3400   11.9200  -31.4400 O.3       1 SER1        0.0000 
     13 OG         31.7300   13.0000  -33.1600 O.3       1 SER1        0.0000 
     14 OG         32.7600   11.9600  -32.8800 O.3       1 SER1        0.0000 
     15 OG         27.3000   18.1500  -29.6300 O.3       1 SER1        0.0000 
     16 OG         26.8400   20.2300  -28.1500 O.3       1 SER1        0.0000 
     17 OG         27.8700   19.1900  -27.8700 O.3       1 SER1        0.0000 
     18 OG         27.2600   20.2700  -29.5900 O.3       1 SER1        0.0000 
     19 OG         26.3700   22.3200  -26.6700 O.3       1 SER1        0.0000 
     20 OG         26.8000   22.3500  -28.1000 O.3       1 SER1        0.0000 
     21 OG         27.8300   21.3100  -27.8200 O.3       1 SER1        0.0000 
     22 OG         30.3300   19.2500  -28.7000 O.3       1 SER1        0.0000 
     23 OG         29.2600   22.4200  -28.9400 O.3       1 SER1        0.0000 
     24 OG         30.2900   21.3700  -28.6600 O.3       1 SER1        0.0000 
     25 OG         29.6800   22.4600  -30.3700 O.3       1 SER1        0.0000 
     26 OG         30.7200   21.4100  -30.1000 O.3       1 SER1        0.0000 
     27 OG         30.2600   23.4900  -28.6100 O.3       1 SER1        0.0000 
     28 OG         30.6800   23.5300  -30.0500 O.3       1 SER1        0.0000 
     29 N          30.2600   14.0100  -32.0000 N.am      2 ALA2        0.0000 
     30 N          28.7600   17.1400  -30.7900 N.am      2 ALA2        0.0000 
     31 N          29.8000   16.0900  -30.5100 N.am      2 ALA2        0.0000 
     32 N          30.8400   15.0500  -30.2300 N.am      2 ALA2        0.0000 
     33 N          27.4500   19.1500  -26.4300 N.am      2 ALA2        0.0000 
     34 N          28.4800   18.1000  -26.1500 N.am      2 ALA2        0.0000 
     35 N          29.5200   17.0500  -25.8800 N.am      2 ALA2        0.0000 
     36 N          28.9100   18.1400  -27.5900 N.am      2 ALA2        0.0000 
     37 N          29.7600   18.2200  -30.4700 N.am      2 ALA2        0.0000 
     38 N          30.8000   17.1700  -30.1900 N.am      2 ALA2        0.0000 
     39 N          31.8300   16.1200  -29.9100 N.am      2 ALA2        0.0000 
     40 N          28.9700   20.4300  -35.3400 N.am      2 ALA2        0.0000 
     41 N          27.4100   21.2700  -26.3900 N.am      2 ALA2        0.0000 
     42 N          30.5100   18.1200  -25.5500 N.am      2 ALA2        0.0000 
     43 N          28.8700   20.2600  -27.5500 N.am      2 ALA2        0.0000 
     44 N          29.9100   19.2100  -27.2700 N.am      2 ALA2        0.0000 
     45 N          30.9400   18.1600  -26.9900 N.am      2 ALA2        0.0000 
     46 N          29.7200   20.3400  -30.4200 N.am      2 ALA2        0.0000 
     47 N          31.7900   18.2400  -29.8600 N.am      2 ALA2        0.0000 
     48 N          29.1100   21.4200  -32.1400 N.am      2 ALA2        0.0000 
     49 N          29.5400   21.4600  -33.5700 N.am      2 ALA2        0.0000 
     50 N          31.5100   19.1900  -25.2200 N.am      2 ALA2        0.0000 
     51 N          32.5500   18.1500  -24.9500 N.am      2 ALA2        0.0000 
     52 N          33.5800   17.1000  -24.6700 N.am      2 ALA2        0.0000 
     53 N          28.8300   22.3800  -27.5000 N.am      2 ALA2        0.0000 
     54 N          29.8700   21.3300  -27.2200 N.am      2 ALA2        0.0000 
     55 N          30.1100   22.5000  -31.8100 N.am      2 ALA2        0.0000 
     56 N          29.8300   23.4500  -27.1700 N.am      2 ALA2        0.0000 
     57 N          30.8600   22.4000  -26.8900 N.am      2 ALA2        0.0000 
     58 OD1        25.6900   18.1700  -31.6800 O.co2     3 ASP3        0.0000 
     59 OD1        26.6900   19.2400  -31.3500 O.co2     3 ASP3        0.0000 
     60 OD1        27.7300   18.1900  -31.0700 O.co2     3 ASP3        0.0000 
     61 OD1        28.1200   20.3500  -32.4600 O.co2     3 ASP3        0.0000 
     62 OD1        27.5100   21.4400  -34.1800 O.co2     3 ASP3        0.0000 
     63 OD1        28.5400   20.3900  -33.9000 O.co2     3 ASP3        0.0000 
     64 NZ         29.5600   14.9300  -25.9200 N.4       4 LYS4        0.0000 
     65 NZ         31.0200   13.9200  -27.0800 N.4       4 LYS4        0.0000 
     66 NZ         32.0500   12.8700  -26.8000 N.4       4 LYS4        0.0000 
     67 NZ         33.0900   11.8200  -26.5200 N.4       4 LYS4        0.0000 
     68 NZ         30.5500   16.0000  -25.6000 N.4       4 LYS4        0.0000 
     69 NZ         30.9800   16.0400  -27.0300 N.4       4 LYS4        0.0000 
     70 NZ         32.0200   14.9900  -26.7500 N.4       4 LYS4        0.0000 
     71 NZ         33.0500   13.9400  -26.4800 N.4       4 LYS4        0.0000 
     72 NZ         34.0900   12.9000  -26.2000 N.4       4 LYS4        0.0000 
     73 NZ         31.5500   17.0700  -25.2700 N.4       4 LYS4        0.0000 
     74 NZ         33.0100   16.0600  -26.4300 N.4       4 LYS4        0.0000 
     75 CZ         26.3400   14.9600  -30.0100 C.ar      5 PHE5        0.0000 
     76 CZ         25.7300   16.0500  -31.7200 C.ar      5 PHE5        0.0000 
     77 CZ         26.7700   15.0000  -31.4400 C.ar      5 PHE5        0.0000 
     78 CZ         27.8000   13.9500  -31.1600 C.ar      5 PHE5        0.0000 
     79 CZ         29.2700   12.9400  -32.3200 C.ar      5 PHE5        0.0000 
     80 CZ         26.4900   15.9500  -26.8000 C.ar      5 PHE5        0.0000 
     81 CZ         27.5200   14.9100  -26.5300 C.ar      5 PHE5        0.0000 
     82 CZ         26.9100   15.9900  -28.2400 C.ar      5 PHE5        0.0000 
     83 CZ         27.9500   14.9400  -27.9600 C.ar      5 PHE5        0.0000 
     84 CZ         27.3400   16.0300  -29.6800 C.ar      5 PHE5        0.0000 
     85 CZ         28.3800   14.9800  -29.4000 C.ar      5 PHE5        0.0000 
     86 CZ         30.4500   12.8900  -28.8400 C.ar      5 PHE5        0.0000 
     87 CZ         33.5500    9.7400  -28.0100 C.ar      5 PHE5        0.0000 
     88 CZ         26.7300   17.1200  -31.4000 C.ar      5 PHE5        0.0000 
     89 CZ         27.7700   16.0700  -31.1200 C.ar      5 PHE5        0.0000 
     90 CZ         28.8000   15.0200  -30.8400 C.ar      5 PHE5        0.0000 
     91 CZ         33.9800    9.7800  -29.4400 C.ar      5 PHE5        0.0000 
     92 CZ         27.1600   17.1600  -32.8300 C.ar      5 PHE5        0.0000 
     93 CZ         28.1900   16.1100  -32.5500 C.ar      5 PHE5        0.0000 
     94 CZ         29.2300   15.0600  -32.2800 C.ar      5 PHE5        0.0000 
     95 CZ         33.3700   10.8700  -31.1600 C.ar      5 PHE5        0.0000 
     96 CZ         27.4800   17.0300  -26.4800 C.ar      5 PHE5        0.0000 
     97 CZ         28.5200   15.9800  -26.2000 C.ar      5 PHE5        0.0000 
     98 CZ         28.9500   16.0200  -27.6400 C.ar      5 PHE5        0.0000 
     99 CZ         29.9800   14.9700  -27.3600 C.ar      5 PHE5        0.0000 
    100 CZ         30.4100   15.0100  -28.8000 C.ar      5 PHE5        0.0000 
    101 CZ         32.4800   12.9100  -28.2400 C.ar      5 PHE5        0.0000 
    102 CZ         33.5200   11.8600  -27.9600 C.ar      5 PHE5        0.0000 
    103 CZ         34.5500   10.8100  -27.6800 C.ar      5 PHE5        0.0000 
    104 CZ         31.8700   14.0000  -29.9500 C.ar      5 PHE5        0.0000 
    105 CZ         32.9100   12.9500  -29.6800 C.ar      5 PHE5        0.0000 
    106 CZ         29.0900   17.0100  -24.4400 C.ar      5 PHE5        0.0000 
    107 CZ         33.4800   13.9800  -27.9100 C.ar      5 PHE5        0.0000 
    108 CZ         32.8700   15.0700  -29.6300 C.ar      5 PHE5        0.0000 
    109 CZ         31.3700   18.2000  -28.4200 C.ar      5 PHE5        0.0000 
    110 CZ         32.4000   17.1500  -28.1500 C.ar      5 PHE5        0.0000 
    111 CZ         33.4400   16.1000  -27.8700 C.ar      5 PHE5        0.0000 
    112 CZ         32.8300   17.1900  -29.5800 C.ar      5 PHE5        0.0000 
    113 CZ         30.9000   20.2800  -26.9400 C.ar      5 PHE5        0.0000 
    114 CZ         31.9400   19.2300  -26.6600 C.ar      5 PHE5        0.0000 
    115 CZ         32.9700   18.1800  -26.3800 C.ar      5 PHE5        0.0000 
    116 CZ         34.0100   17.1400  -26.1000 C.ar      5 PHE5        0.0000 
    117 CZ         33.4000   18.2200  -27.8200 C.ar      5 PHE5        0.0000 
    118 CZ         33.5500   19.2200  -24.6200 C.ar      5 PHE5        0.0000 
    119 CA         25.3100   16.0100  -30.2800 C.3       6 GLY6        0.0000 
    120 CA         31.6700   10.7100  -25.4100 C.3       6 GLY6        0.0000 
    121 CA         32.7000    9.6600  -25.1300 C.3       6 GLY6        0.0000 
    122 CA         25.8800   17.0400  -28.5200 C.3       6 GLY6        0.0000 
    123 CA         33.1300    9.7000  -26.5700 C.3       6 GLY6        0.0000 
    124 CA         34.1600    8.6500  -26.2900 C.3       6 GLY6        0.0000 
    125 CA         25.2700   18.1300  -30.2400 C.3       6 GLY6        0.0000 
    126 CA         26.3000   17.0800  -29.9600 C.3       6 GLY6        0.0000 
    127 CA         26.4500   18.0700  -26.7600 C.3       6 GLY6        0.0000 
    128 CA         32.6600   11.7800  -25.0800 C.3       6 GLY6        0.0000 
    129 CA         26.8700   18.1100  -28.2000 C.3       6 GLY6        0.0000 
    130 CA         34.1300   10.7700  -26.2400 C.3       6 GLY6        0.0000 
    131 CA         35.5900    9.7700  -27.4000 C.3       6 GLY6        0.0000 
    132 CA         28.1500   18.2300  -32.5100 C.3       6 GLY6        0.0000 
    133 CA         32.3000   14.0400  -31.3900 C.3       6 GLY6        0.0000 
    134 CA         27.6900   20.3100  -31.0200 C.3       6 GLY6        0.0000 
    135 CA         27.2200   22.3900  -29.5400 C.3       6 GLY6        0.0000 
    136 CA         28.2600   21.3500  -29.2600 C.3       6 GLY6        0.0000 
    137 CA         28.6900   21.3800  -30.7000 C.3       6 GLY6        0.0000 
    138 CA         28.5000   22.5100  -33.8500 C.3       6 GLY6        0.0000 
    139 CA         27.3700   23.3900  -26.3400 C.3       6 GLY6        0.0000 
    140 CA         28.4000   22.3400  -26.0600 C.3       6 GLY6        0.0000 
    141 CA         27.8000   23.4300  -27.7800 C.3       6 GLY6        0.0000 
    142 CA         28.2200   23.4700  -29.2200 C.3       6 GLY6        0.0000 
    143 CA         28.6500   23.5000  -30.6500 C.3       6 GLY6        0.0000 
    144 CA         29.0800   23.5400  -32.0900 C.3       6 GLY6        0.0000 
    145 DU         32.1300    8.6300  -26.8900 H         7 CUB7        0.0000 
    146 DU         34.5900    8.6900  -27.7300 H         7 CUB7        0.0000 
    147 DU         27.9100   17.0700  -27.9200 H         7 CUB7        0.0000 
    148 DU         28.3400   17.1000  -29.3500 H         7 CUB7        0.0000 
    149 DU         29.3700   16.0600  -29.0800 H         7 CUB7        0.0000 
    150 DU         31.4400   13.9600  -28.5200 H         7 CUB7        0.0000 
    151 DU         29.9400   17.0900  -27.3100 H         7 CUB7        0.0000 
    152 DU         28.3000   19.2200  -29.3100 H         7 CUB7        0.0000 
    153 DU         29.3300   18.1800  -29.0300 H         7 CUB7        0.0000 
    154 DU         30.3700   17.1300  -28.7500 H         7 CUB7        0.0000 
    155 DU         31.4100   16.0800  -28.4700 H         7 CUB7        0.0000 
    156 DU         32.4400   15.0300  -28.1900 H         7 CUB7        0.0000 
    157 DU         31.9800   17.1100  -26.7100 H         7 CUB7        0.0000 
    158 DU         29.3000   20.3000  -28.9800 H         7 CUB7        0.0000 
@<TRIPOS>BOND
@<TRIPOS>SUBSTRUCTURE
     1 SER1        1 GROUP   
     2 ALA2       29 GROUP   
     3 ASP3       58 GROUP   
     4 LYS4       64 GROUP   
     5 PHE5       75 GROUP   
     6 GLY6      119 GROUP   
     7 CUB7      145 GROUP   
@<TRIPOS>SET

