#    Name: 5oal_7_SY9
#    Modification time : Fri May 22 19:14:03 2020

@<TRIPOS>MOLECULE
5oal_7_SY9
   25    31     1     0     0
SMALL
NO_CHARGES


@<TRIPOS>ATOM
      1 CAV        22.2190  -46.2070  -32.7590 C.3       1 SY9301      0.0000 
      2 CAU        23.2400  -45.4970  -33.6290 C.3       1 SY9301      0.0000 
      3 CAT        24.5030  -46.3650  -33.6910 C.3       1 SY9301      0.0000 
      4 CAN        24.1340  -47.6330  -34.4860 C.3       1 SY9301      0.0000 
      5 CAK        22.9900  -48.4210  -33.8410 C.3       1 SY9301      0.0000 
      6 NAH        22.3750  -49.2390  -34.9180 N.am      1 SY9301      0.0000 
      7 CAA        21.1230  -48.6580  -35.2830 C.ar      1 SY9301      0.0000 
      8 CAF        20.3330  -48.9060  -36.4020 C.ar      1 SY9301      0.0000 
      9 CAE        19.3420  -47.9900  -36.7270 C.ar      1 SY9301      0.0000 
     10 CAD        19.1170  -46.8750  -35.9290 C.ar      1 SY9301      0.0000 
     11 CAC        19.8570  -46.6750  -34.7750 C.ar      1 SY9301      0.0000 
     12 CAB        20.8560  -47.5810  -34.4430 C.ar      1 SY9301      0.0000 
     13 CAG        21.8120  -47.5950  -33.2770 C.3       1 SY9301      0.0000 
     14 CAW        21.2790  -48.2420  -31.9920 C.3       1 SY9301      0.0000 
     15 CAX        22.3910  -47.8570  -31.0210 C.3       1 SY9301      0.0000 
     16 NAY        22.7100  -46.4550  -31.3760 N.4       1 SY9301      0.0000 
     17 CAS        24.1270  -46.1010  -31.1850 C.3       1 SY9301      0.0000 
     18 CAR        25.0200  -46.6260  -32.2780 C.2       1 SY9301      0.0000 
     19 CAQ        26.1250  -47.3150  -32.0380 C.2       1 SY9301      0.0000 
     20 CAP        26.8750  -47.9880  -33.1440 C.3       1 SY9301      0.0000 
     21 OAO        26.0710  -49.0300  -33.7330 O.3       1 SY9301      0.0000 
     22 CAM        25.2530  -48.6270  -34.8390 C.3       1 SY9301      0.0000 
     23 CAL        24.6570  -49.9550  -35.4000 C.3       1 SY9301      0.0000 
     24 CAI        23.1740  -50.0310  -35.6980 C.2       1 SY9301      0.0000 
     25 OAJ        22.7250  -50.8170  -36.5240 O.2       1 SY9301      0.0000 
@<TRIPOS>BOND
     1    1    2 1    
     2    1   13 1    
     3    1   16 1    
     4    2    3 1    
     5    3    4 1    
     6    3   18 1    
     7    4    5 1    
     8    4   22 1    
     9    5    6 1    
    10    5   13 1    
    11    6    7 1    
    12    6   24 am   
    13    7    8 ar   
    14    7   12 ar   
    15    8    9 ar   
    16    9   10 ar   
    17   10   11 ar   
    18   11   12 ar   
    19   12   13 1    
    20   13   14 1    
    21   14   15 1    
    22   15   16 1    
    23   16   17 1    
    24   17   18 1    
    25   18   19 2    
    26   19   20 1    
    27   20   21 1    
    28   21   22 1    
    29   22   23 1    
    30   23   24 1    
    31   24   25 2    
@<TRIPOS>SUBSTRUCTURE
     1 SY9301      1 GROUP   
@<TRIPOS>SET

