#    Name: 5oal_8_SY9_CAVITY_N1_4
#    Modification time : Fri May 22 19:14:12 2020

@<TRIPOS>MOLECULE
5oal_8_SY9_CAVITY_N1_4
  126     0     7     0     0
SMALL
NO_CHARGES


@<TRIPOS>ATOM
      1 OG         -7.1900  -66.0600  -40.6000 O.3       1 SER1        0.0000 
      2 OG         -6.7700  -66.0200  -42.0400 O.3       1 SER1        0.0000 
      3 OG         -6.1900  -64.9900  -40.2700 O.3       1 SER1        0.0000 
      4 OG         -4.7300  -66.0000  -41.4300 O.3       1 SER1        0.0000 
      5 OG         -8.9800  -61.9700  -34.7600 O.3       1 SER1        0.0000 
      6 OG         -5.2000  -63.9100  -39.9500 O.3       1 SER1        0.0000 
      7 OG         -3.7300  -64.9200  -41.1100 O.3       1 SER1        0.0000 
      8 OG         -8.5900  -59.8100  -36.1500 O.3       1 SER1        0.0000 
      9 OG         -7.5500  -60.8600  -35.8700 O.3       1 SER1        0.0000 
     10 OG         -8.7700  -58.6900  -39.3000 O.3       1 SER1        0.0000 
     11 OG         -2.1300  -64.9400  -39.0600 O.3       1 SER1        0.0000 
     12 OG         -1.7000  -64.9000  -40.5000 O.3       1 SER1        0.0000 
     13 OG         -7.5900  -58.7400  -35.8200 O.3       1 SER1        0.0000 
     14 OG         -7.7700  -57.6200  -38.9800 O.3       1 SER1        0.0000 
     15 OG         -6.7400  -58.6600  -38.7000 O.3       1 SER1        0.0000 
     16 OG         -1.1300  -63.8700  -38.7400 O.3       1 SER1        0.0000 
     17 OG         -7.0200  -57.7100  -34.0600 O.3       1 SER1        0.0000 
     18 OG         -6.7800  -56.5400  -38.6500 O.3       1 SER1        0.0000 
     19 N          -8.2300  -65.0100  -40.8800 N.am      2 ALA2        0.0000 
     20 N         -12.2300  -59.8200  -38.7900 N.am      2 ALA2        0.0000 
     21 N         -11.1900  -60.8700  -38.5100 N.am      2 ALA2        0.0000 
     22 N          -9.1200  -62.9700  -37.9600 N.am      2 ALA2        0.0000 
     23 N          -7.6600  -63.9800  -39.1100 N.am      2 ALA2        0.0000 
     24 N          -7.2300  -63.9400  -40.5500 N.am      2 ALA2        0.0000 
     25 N         -10.1900  -59.8000  -38.1900 N.am      2 ALA2        0.0000 
     26 N          -9.1600  -60.8500  -37.9100 N.am      2 ALA2        0.0000 
     27 N          -8.1200  -61.9000  -37.6300 N.am      2 ALA2        0.0000 
     28 N          -7.7000  -61.8600  -39.0700 N.am      2 ALA2        0.0000 
     29 N          -6.6600  -62.9000  -38.7900 N.am      2 ALA2        0.0000 
     30 N          -6.2300  -62.8700  -40.2300 N.am      2 ALA2        0.0000 
     31 N          -8.1600  -59.7700  -37.5800 N.am      2 ALA2        0.0000 
     32 N          -7.7300  -59.7400  -39.0200 N.am      2 ALA2        0.0000 
     33 N          -6.7000  -60.7800  -38.7400 N.am      2 ALA2        0.0000 
     34 N          -7.3100  -59.7000  -40.4600 N.am      2 ALA2        0.0000 
     35 N          -6.2700  -60.7500  -40.1800 N.am      2 ALA2        0.0000 
     36 N          -6.5900  -57.6700  -35.5000 N.am      2 ALA2        0.0000 
     37 N          -5.5600  -58.7200  -35.2200 N.am      2 ALA2        0.0000 
     38 N          -7.2000  -56.5800  -37.2100 N.am      2 ALA2        0.0000 
     39 N          -6.1700  -57.6300  -36.9300 N.am      2 ALA2        0.0000 
     40 N          -5.1300  -58.6800  -36.6600 N.am      2 ALA2        0.0000 
     41 N          -4.0900  -59.7300  -36.3800 N.am      2 ALA2        0.0000 
     42 N          -4.7000  -58.6400  -38.0900 N.am      2 ALA2        0.0000 
     43 N          -4.7400  -56.5200  -38.0500 N.am      2 ALA2        0.0000 
     44 N          -3.7100  -57.5700  -37.7700 N.am      2 ALA2        0.0000 
     45 N          -2.6700  -58.6200  -37.4900 N.am      2 ALA2        0.0000 
     46 N          -3.2800  -57.5300  -39.2000 N.am      2 ALA2        0.0000 
     47 N          -1.8500  -56.4200  -40.3200 N.am      2 ALA2        0.0000 
     48 OD1        -9.5500  -63.0100  -36.5200 O.co2     3 ASP3        0.0000 
     49 OD1        -9.5900  -60.8900  -36.4700 O.co2     3 ASP3        0.0000 
     50 NZ         -3.2000  -61.7700  -39.3000 N.4       4 LYS4        0.0000 
     51 NZ         -2.1700  -62.8200  -39.0200 N.4       4 LYS4        0.0000 
     52 NZ         -1.7400  -62.7800  -40.4600 N.4       4 LYS4        0.0000 
     53 NZ         -0.7000  -63.8300  -40.1800 N.4       4 LYS4        0.0000 
     54 NZ         -3.6700  -59.6900  -37.8100 N.4       4 LYS4        0.0000 
     55 NZ         -2.6300  -60.7400  -37.5300 N.4       4 LYS4        0.0000 
     56 NZ         -3.2400  -59.6500  -39.2500 N.4       4 LYS4        0.0000 
     57 NZ         -2.8100  -59.6100  -40.6900 N.4       4 LYS4        0.0000 
     58 NZ         -2.2400  -58.5800  -38.9300 N.4       4 LYS4        0.0000 
     59 NZ         -1.8200  -58.5400  -40.3600 N.4       4 LYS4        0.0000 
     60 CZ         -8.6500  -65.0500  -39.4400 C.ar      5 PHE5        0.0000 
     61 CZ         -8.9400  -64.0900  -34.8000 C.ar      5 PHE5        0.0000 
     62 CZ         -8.5100  -64.0500  -36.2400 C.ar      5 PHE5        0.0000 
     63 CZ         -8.0800  -64.0200  -37.6800 C.ar      5 PHE5        0.0000 
     64 CZ         -7.0500  -65.0600  -37.4000 C.ar      5 PHE5        0.0000 
     65 CZ         -6.6200  -65.0300  -38.8400 C.ar      5 PHE5        0.0000 
     66 CZ         -5.7700  -64.9500  -41.7100 C.ar      5 PHE5        0.0000 
     67 CZ         -7.5100  -62.9800  -35.9100 C.ar      5 PHE5        0.0000 
     68 CZ         -6.4800  -64.0300  -35.6400 C.ar      5 PHE5        0.0000 
     69 CZ         -6.0500  -63.9900  -37.0700 C.ar      5 PHE5        0.0000 
     70 CZ         -5.6200  -63.9500  -38.5100 C.ar      5 PHE5        0.0000 
     71 CZ         -4.7700  -63.8700  -41.3900 C.ar      5 PHE5        0.0000 
     72 CZ         -5.4800  -62.9600  -35.3100 C.ar      5 PHE5        0.0000 
     73 CZ         -5.0500  -62.9200  -36.7500 C.ar      5 PHE5        0.0000 
     74 CZ         -5.2400  -61.7900  -39.9000 C.ar      5 PHE5        0.0000 
     75 CZ         -3.1600  -63.8900  -39.3400 C.ar      5 PHE5        0.0000 
     76 CZ         -5.8400  -60.7100  -41.6200 C.ar      5 PHE5        0.0000 
     77 CZ         -3.7700  -62.8000  -41.0600 C.ar      5 PHE5        0.0000 
     78 CZ         -2.7400  -63.8500  -40.7800 C.ar      5 PHE5        0.0000 
     79 CZ         -1.2700  -64.8600  -41.9400 C.ar      5 PHE5        0.0000 
     80 CZ         -4.0600  -61.8500  -36.4200 C.ar      5 PHE5        0.0000 
     81 CZ         -3.6300  -61.8100  -37.8600 C.ar      5 PHE5        0.0000 
     82 CZ         -2.5900  -62.8600  -37.5800 C.ar      5 PHE5        0.0000 
     83 CZ         -6.3100  -58.6200  -40.1300 C.ar      5 PHE5        0.0000 
     84 CZ         -4.8500  -59.6300  -41.2900 C.ar      5 PHE5        0.0000 
     85 CZ         -3.8100  -60.6800  -41.0100 C.ar      5 PHE5        0.0000 
     86 CZ         -2.7800  -61.7300  -40.7300 C.ar      5 PHE5        0.0000 
     87 CZ         -4.5200  -59.7700  -34.9400 C.ar      5 PHE5        0.0000 
     88 CZ         -3.0600  -60.7800  -36.1000 C.ar      5 PHE5        0.0000 
     89 CZ         -5.7400  -57.5900  -38.3700 C.ar      5 PHE5        0.0000 
     90 CZ         -4.2800  -58.6000  -39.5300 C.ar      5 PHE5        0.0000 
     91 CZ         -3.8500  -58.5600  -40.9700 C.ar      5 PHE5        0.0000 
     92 CZ         -2.3900  -59.5700  -42.1300 C.ar      5 PHE5        0.0000 
     93 CZ         -2.8500  -57.4900  -40.6400 C.ar      5 PHE5        0.0000 
     94 CA         -9.9700  -63.0500  -35.0800 C.3       6 GLY6        0.0000 
     95 CA        -12.6500  -59.8600  -37.3600 C.3       6 GLY6        0.0000 
     96 CA        -10.0100  -60.9300  -35.0400 C.3       6 GLY6        0.0000 
     97 CA         -7.9400  -63.0200  -34.4800 C.3       6 GLY6        0.0000 
     98 CA        -10.6200  -59.8400  -36.7500 C.3       6 GLY6        0.0000 
     99 CA        -11.2300  -58.7500  -38.4700 C.3       6 GLY6        0.0000 
    100 CA         -6.9400  -61.9500  -34.1500 C.3       6 GLY6        0.0000 
    101 CA         -9.6200  -58.7700  -36.4300 C.3       6 GLY6        0.0000 
    102 CA         -6.5200  -61.9100  -35.5900 C.3       6 GLY6        0.0000 
    103 CA        -10.2300  -57.6800  -38.1400 C.3       6 GLY6        0.0000 
    104 CA         -9.2000  -58.7300  -37.8600 C.3       6 GLY6        0.0000 
    105 CA         -9.0500  -57.7300  -34.6600 C.3       6 GLY6        0.0000 
    106 CA         -8.6300  -57.6900  -36.1000 C.3       6 GLY6        0.0000 
    107 CA         -6.5500  -59.7900  -35.5400 C.3       6 GLY6        0.0000 
    108 CA         -5.5200  -60.8400  -35.2600 C.3       6 GLY6        0.0000 
    109 CA         -9.2400  -56.6100  -37.8200 C.3       6 GLY6        0.0000 
    110 CA         -8.2000  -57.6500  -37.5400 C.3       6 GLY6        0.0000 
    111 CA         -7.6300  -56.6200  -35.7800 C.3       6 GLY6        0.0000 
    112 CA         -6.2000  -55.5100  -36.8900 C.3       6 GLY6        0.0000 
    113 CA         -1.3900  -58.5000  -41.8000 C.3       6 GLY6        0.0000 
    114 DU         -8.5500  -61.9300  -36.1900 H         7 CUB7        0.0000 
    115 DU         -7.0900  -62.9400  -37.3500 H         7 CUB7        0.0000 
    116 DU         -7.1300  -60.8200  -37.3100 H         7 CUB7        0.0000 
    117 DU         -6.0900  -61.8700  -37.0300 H         7 CUB7        0.0000 
    118 DU         -5.6600  -61.8300  -38.4600 H         7 CUB7        0.0000 
    119 DU         -4.2000  -62.8400  -39.6200 H         7 CUB7        0.0000 
    120 DU         -7.1600  -58.7000  -37.2600 H         7 CUB7        0.0000 
    121 DU         -6.1300  -59.7500  -36.9800 H         7 CUB7        0.0000 
    122 DU         -5.0900  -60.8000  -36.7000 H         7 CUB7        0.0000 
    123 DU         -5.7000  -59.7100  -38.4200 H         7 CUB7        0.0000 
    124 DU         -4.6600  -60.7600  -38.1400 H         7 CUB7        0.0000 
    125 DU         -5.2700  -59.6700  -39.8600 H         7 CUB7        0.0000 
    126 DU         -4.2400  -60.7200  -39.5800 H         7 CUB7        0.0000 
@<TRIPOS>BOND
@<TRIPOS>SUBSTRUCTURE
     1 SER1        1 GROUP   
     2 ALA2       19 GROUP   
     3 ASP3       48 GROUP   
     4 LYS4       50 GROUP   
     5 PHE5       60 GROUP   
     6 GLY6       94 GROUP   
     7 CUB7      114 GROUP   
@<TRIPOS>SET

