#    Name: 5oal_6_SY9_CAVITY_N1_6
#    Modification time : Fri May 22 19:13:56 2020

@<TRIPOS>MOLECULE
5oal_6_SY9_CAVITY_N1_6
  199     0     7     0     0
SMALL
NO_CHARGES


@<TRIPOS>ATOM
      1 OG         30.1300  -57.7200   -2.6800 O.3       1 SER1        0.0000 
      2 OG         31.1300  -56.6500   -2.3600 O.3       1 SER1        0.0000 
      3 OG         32.1600  -57.7000   -2.0800 O.3       1 SER1        0.0000 
      4 OG         32.5900  -57.6600   -3.5200 O.3       1 SER1        0.0000 
      5 OG         32.1300  -55.5800   -2.0300 O.3       1 SER1        0.0000 
      6 OG         33.1600  -56.6300   -1.7500 O.3       1 SER1        0.0000 
      7 OG         32.5500  -55.5400   -3.4700 O.3       1 SER1        0.0000 
      8 OG         32.7000  -54.5400   -0.2700 O.3       1 SER1        0.0000 
      9 OG         34.7700  -56.6400    0.2900 O.3       1 SER1        0.0000 
     10 OG         33.1200  -54.5100   -1.7100 O.3       1 SER1        0.0000 
     11 OG         34.1600  -55.5500   -1.4300 O.3       1 SER1        0.0000 
     12 OG         35.2000  -56.6000   -1.1500 O.3       1 SER1        0.0000 
     13 OG         26.3000  -47.1300   -5.1000 O.3       1 SER1        0.0000 
     14 OG         27.3400  -48.1800   -4.8200 O.3       1 SER1        0.0000 
     15 OG         33.5500  -54.4700   -3.1400 O.3       1 SER1        0.0000 
     16 OG         34.5900  -55.5100   -2.8600 O.3       1 SER1        0.0000 
     17 OG         27.3000  -46.0500   -4.7700 O.3       1 SER1        0.0000 
     18 OG         28.3300  -47.1000   -4.4900 O.3       1 SER1        0.0000 
     19 OG         34.5500  -53.3900   -2.8200 O.3       1 SER1        0.0000 
     20 OG         35.5800  -54.4400   -2.5400 O.3       1 SER1        0.0000 
     21 OG         29.8000  -48.1100   -5.6500 O.3       1 SER1        0.0000 
     22 OG         33.9400  -52.3100   -4.5300 O.3       1 SER1        0.0000 
     23 OG         34.9700  -53.3500   -4.2600 O.3       1 SER1        0.0000 
     24 OG         36.0100  -54.4000   -3.9800 O.3       1 SER1        0.0000 
     25 OG         30.2200  -48.0700   -7.0900 O.3       1 SER1        0.0000 
     26 OG         35.4000  -53.3200   -5.6900 O.3       1 SER1        0.0000 
     27 OG         29.7600  -45.9900   -5.6000 O.3       1 SER1        0.0000 
     28 OG         30.7900  -47.0400   -5.3300 O.3       1 SER1        0.0000 
     29 OG         35.9700  -52.2800   -3.9300 O.3       1 SER1        0.0000 
     30 OG         37.0100  -53.3300   -3.6500 O.3       1 SER1        0.0000 
     31 OG         36.4000  -52.2400   -5.3700 O.3       1 SER1        0.0000 
     32 OG         29.0500  -45.0800    0.4700 O.3       1 SER1        0.0000 
     33 OG         29.4700  -45.0400   -0.9700 O.3       1 SER1        0.0000 
     34 OG         30.5100  -46.0900   -0.6900 O.3       1 SER1        0.0000 
     35 OG         30.9400  -46.0500   -2.1300 O.3       1 SER1        0.0000 
     36 OG         31.9700  -47.1000   -1.8500 O.3       1 SER1        0.0000 
     37 OG         33.0100  -48.1400   -1.5700 O.3       1 SER1        0.0000 
     38 OG         38.0100  -52.2600   -3.3300 O.3       1 SER1        0.0000 
     39 OG         30.0500  -44.0000    0.8000 O.3       1 SER1        0.0000 
     40 OG         30.4700  -43.9700   -0.6400 O.3       1 SER1        0.0000 
     41 OG         31.9300  -44.9700   -1.8000 O.3       1 SER1        0.0000 
     42 OG         32.9700  -46.0200   -1.5200 O.3       1 SER1        0.0000 
     43 N          33.6300  -58.7100   -3.2400 N.am      2 ALA2        0.0000 
     44 N          27.5600  -51.4200   -1.7100 N.am      2 ALA2        0.0000 
     45 N          27.9800  -51.3800   -3.1500 N.am      2 ALA2        0.0000 
     46 O          27.3700  -50.3000   -4.8600 O.2       2 ALA2        0.0000 
     47 N          27.8000  -50.2600   -6.3000 N.am      2 ALA2        0.0000 
     48 N          28.1300  -50.3900    0.0500 N.am      2 ALA2        0.0000 
     49 N          29.1600  -51.4400    0.3300 N.am      2 ALA2        0.0000 
     50 N          28.5500  -50.3500   -1.3800 N.am      2 ALA2        0.0000 
     51 N          28.9800  -50.3100   -2.8200 N.am      2 ALA2        0.0000 
     52 N          25.2600  -46.0800   -5.3800 N.am      2 ALA2        0.0000 
     53 N          28.3700  -49.2200   -4.5400 N.am      2 ALA2        0.0000 
     54 N          28.0900  -48.2700    0.1000 N.am      2 ALA2        0.0000 
     55 N          27.4800  -47.1800   -1.6200 N.am      2 ALA2        0.0000 
     56 N          28.5200  -48.2300   -1.3400 N.am      2 ALA2        0.0000 
     57 N          29.5500  -49.2800   -1.0600 N.am      2 ALA2        0.0000 
     58 N          27.9100  -47.1400   -3.0500 N.am      2 ALA2        0.0000 
     59 N          28.9400  -48.1900   -2.7800 N.am      2 ALA2        0.0000 
     60 N          28.0500  -46.1500    0.1500 N.am      2 ALA2        0.0000 
     61 N          27.4400  -45.0600   -1.5700 N.am      2 ALA2        0.0000 
     62 N          28.4800  -46.1100   -1.2900 N.am      2 ALA2        0.0000 
     63 N          28.4400  -43.9900   -1.2500 N.am      2 ALA2        0.0000 
     64 N          34.0100  -47.0700   -1.2400 N.am      2 ALA2        0.0000 
     65 N          35.0400  -48.1200   -0.9600 N.am      2 ALA2        0.0000 
     66 N          33.4000  -45.9800   -2.9600 N.am      2 ALA2        0.0000 
     67 N          34.4300  -47.0300   -2.6800 N.am      2 ALA2        0.0000 
     68 N          35.4700  -48.0800   -2.4000 N.am      2 ALA2        0.0000 
     69 N          34.8600  -46.9900   -4.1200 N.am      2 ALA2        0.0000 
     70 N          35.9000  -48.0400   -3.8400 N.am      2 ALA2        0.0000 
     71 N          36.9300  -49.0900   -3.5600 N.am      2 ALA2        0.0000 
     72 N          37.9700  -50.1400   -3.2800 N.am      2 ALA2        0.0000 
     73 N          33.9700  -44.9500   -1.2000 N.am      2 ALA2        0.0000 
     74 OD1        32.2600  -48.0500   -6.4800 O.co2     3 ASP3        0.0000 
     75 OD1        32.6800  -48.0100   -7.9200 O.co2     3 ASP3        0.0000 
     76 OD1        33.2500  -46.9800   -6.1600 O.co2     3 ASP3        0.0000 
     77 OD1        34.2900  -48.0300   -5.8800 O.co2     3 ASP3        0.0000 
     78 NZ         30.7000  -56.6900   -0.9200 N.4       4 LYS4        0.0000 
     79 NZ         28.1700  -52.5100    0.0100 N.4       4 LYS4        0.0000 
     80 NZ         28.5900  -52.4700   -1.4300 N.4       4 LYS4        0.0000 
     81 NZ         31.7000  -55.6200   -0.5900 N.4       4 LYS4        0.0000 
     82 NZ         29.0200  -52.4300   -2.8700 N.4       4 LYS4        0.0000 
     83 NZ         30.0500  -53.4800   -2.5900 N.4       4 LYS4        0.0000 
     84 NZ         31.0900  -54.5300   -2.3100 N.4       4 LYS4        0.0000 
     85 NZ         30.2000  -52.4900    0.6100 N.4       4 LYS4        0.0000 
     86 NZ         31.2300  -53.5300    0.8900 N.4       4 LYS4        0.0000 
     87 NZ         29.5900  -51.4000   -1.1100 N.4       4 LYS4        0.0000 
     88 NZ         30.6300  -52.4500   -0.8300 N.4       4 LYS4        0.0000 
     89 NZ         31.6600  -53.5000   -0.5500 N.4       4 LYS4        0.0000 
     90 NZ         37.4000  -51.1700   -5.0400 N.4       4 LYS4        0.0000 
     91 CZ         28.4100  -51.3400   -4.5800 C.ar      5 PHE5        0.0000 
     92 CZ         29.4500  -52.3900   -4.3100 C.ar      5 PHE5        0.0000 
     93 CZ         30.4800  -53.4400   -4.0300 C.ar      5 PHE5        0.0000 
     94 CZ         31.5200  -54.4900   -3.7500 C.ar      5 PHE5        0.0000 
     95 CZ         28.8400  -51.3100   -6.0200 C.ar      5 PHE5        0.0000 
     96 CZ         31.4800  -52.3700   -3.7000 C.ar      5 PHE5        0.0000 
     97 CZ         32.5100  -53.4200   -3.4200 C.ar      5 PHE5        0.0000 
     98 CZ         30.8700  -51.2800   -5.4200 C.ar      5 PHE5        0.0000 
     99 CZ         31.9100  -52.3300   -5.1400 C.ar      5 PHE5        0.0000 
    100 CZ         32.9400  -53.3800   -4.8600 C.ar      5 PHE5        0.0000 
    101 CZ         31.3000  -51.2400   -6.8600 C.ar      5 PHE5        0.0000 
    102 CZ         33.3700  -53.3400   -6.3000 C.ar      5 PHE5        0.0000 
    103 CZ         31.7200  -51.2000   -8.2900 C.ar      5 PHE5        0.0000 
    104 CZ         29.1200  -49.3200    0.3800 C.ar      5 PHE5        0.0000 
    105 CZ         30.1600  -50.3700    0.6600 C.ar      5 PHE5        0.0000 
    106 CZ         31.2000  -51.4100    0.9400 C.ar      5 PHE5        0.0000 
    107 CZ         32.2300  -52.4600    1.2200 C.ar      5 PHE5        0.0000 
    108 CZ         32.6600  -52.4200   -0.2200 C.ar      5 PHE5        0.0000 
    109 CZ         34.1200  -53.4300   -1.3800 C.ar      5 PHE5        0.0000 
    110 CZ         35.1600  -54.4800   -1.1000 C.ar      5 PHE5        0.0000 
    111 CZ         32.2900  -50.1700   -6.5300 C.ar      5 PHE5        0.0000 
    112 CZ         33.3300  -51.2200   -6.2500 C.ar      5 PHE5        0.0000 
    113 CZ         34.3700  -52.2700   -5.9700 C.ar      5 PHE5        0.0000 
    114 CZ         31.6900  -49.0800   -8.2500 C.ar      5 PHE5        0.0000 
    115 CZ         32.7200  -50.1300   -7.9700 C.ar      5 PHE5        0.0000 
    116 CZ         29.0900  -47.2000    0.4200 C.ar      5 PHE5        0.0000 
    117 CZ         29.5100  -47.1600   -1.0100 C.ar      5 PHE5        0.0000 
    118 CZ         30.5500  -48.2100   -0.7300 C.ar      5 PHE5        0.0000 
    119 CZ         31.5800  -49.2500   -0.4600 C.ar      5 PHE5        0.0000 
    120 CZ         32.6200  -50.3000   -0.1800 C.ar      5 PHE5        0.0000 
    121 CZ         33.6600  -51.3500    0.1000 C.ar      5 PHE5        0.0000 
    122 CZ         34.0800  -51.3100   -1.3300 C.ar      5 PHE5        0.0000 
    123 CZ         35.5500  -52.3200   -2.4900 C.ar      5 PHE5        0.0000 
    124 CZ         33.2900  -49.1000   -6.2000 C.ar      5 PHE5        0.0000 
    125 CZ         34.3300  -50.1500   -5.9300 C.ar      5 PHE5        0.0000 
    126 CZ         35.3600  -51.2000   -5.6500 C.ar      5 PHE5        0.0000 
    127 CZ         32.5800  -48.1800   -0.1300 C.ar      5 PHE5        0.0000 
    128 CZ         33.6200  -49.2300    0.1500 C.ar      5 PHE5        0.0000 
    129 CZ         35.0800  -50.2400   -1.0100 C.ar      5 PHE5        0.0000 
    130 CZ         36.5400  -51.2500   -2.1700 C.ar      5 PHE5        0.0000 
    131 CZ         35.3200  -49.0700   -5.6000 C.ar      5 PHE5        0.0000 
    132 CZ         36.3600  -50.1200   -5.3200 C.ar      5 PHE5        0.0000 
    133 CZ         34.6200  -48.1600    0.4700 C.ar      5 PHE5        0.0000 
    134 CA         31.1700  -58.7700   -2.4000 C.3       6 GLY6        0.0000 
    135 CA         31.7400  -57.7400   -0.6400 C.3       6 GLY6        0.0000 
    136 CA         32.7700  -58.7900   -0.3600 C.3       6 GLY6        0.0000 
    137 CA         32.7400  -56.6600   -0.3100 C.3       6 GLY6        0.0000 
    138 CA         33.7700  -57.7100   -0.0400 C.3       6 GLY6        0.0000 
    139 CA         29.2600  -51.2700   -7.4600 C.3       6 GLY6        0.0000 
    140 CA         25.8700  -47.1700   -3.6600 C.3       6 GLY6        0.0000 
    141 CA         28.8000  -49.1800   -5.9800 C.3       6 GLY6        0.0000 
    142 CA         29.8300  -50.2300   -5.7000 C.3       6 GLY6        0.0000 
    143 CA         30.2600  -50.1900   -7.1300 C.3       6 GLY6        0.0000 
    144 CA         30.6900  -50.1600   -8.5700 C.3       6 GLY6        0.0000 
    145 CA         25.8300  -45.0500   -3.6100 C.3       6 GLY6        0.0000 
    146 CA         26.8700  -46.0900   -3.3300 C.3       6 GLY6        0.0000 
    147 CA         26.2600  -45.0100   -5.0500 C.3       6 GLY6        0.0000 
    148 CA         31.2600  -49.1200   -6.8100 C.3       6 GLY6        0.0000 
    149 CA         27.8700  -45.0200   -3.0100 C.3       6 GLY6        0.0000 
    150 CA         28.2900  -44.9800   -4.4500 C.3       6 GLY6        0.0000 
    151 CA         29.3300  -46.0300   -4.1700 C.3       6 GLY6        0.0000 
    152 CA         31.2200  -47.0000   -6.7600 C.3       6 GLY6        0.0000 
    153 CA         28.8700  -43.9500   -2.6800 C.3       6 GLY6        0.0000 
    154 CA         30.3300  -44.9600   -3.8400 C.3       6 GLY6        0.0000 
    155 CA         30.9000  -43.9300   -2.0800 C.3       6 GLY6        0.0000 
    156 CA         36.0800  -49.1700   -0.6800 C.3       6 GLY6        0.0000 
    157 CA         31.3300  -43.8900   -3.5200 C.3       6 GLY6        0.0000 
    158 DU         33.2000  -58.7500   -1.8000 H         7 CUB7        0.0000 
    159 DU         34.2000  -57.6700   -1.4700 H         7 CUB7        0.0000 
    160 DU         30.0200  -51.3600   -2.5400 H         7 CUB7        0.0000 
    161 DU         31.0500  -52.4100   -2.2600 H         7 CUB7        0.0000 
    162 DU         32.0900  -53.4600   -1.9900 H         7 CUB7        0.0000 
    163 DU         29.4100  -50.2700   -4.2600 H         7 CUB7        0.0000 
    164 DU         30.4400  -51.3200   -3.9800 H         7 CUB7        0.0000 
    165 DU         30.5900  -50.3300   -0.7800 H         7 CUB7        0.0000 
    166 DU         31.6200  -51.3800   -0.5000 H         7 CUB7        0.0000 
    167 DU         29.9800  -49.2400   -2.5000 H         7 CUB7        0.0000 
    168 DU         33.0900  -52.3800   -1.6600 H         7 CUB7        0.0000 
    169 DU         29.3700  -48.1500   -4.2100 H         7 CUB7        0.0000 
    170 DU         32.4800  -51.3000   -3.3800 H         7 CUB7        0.0000 
    171 DU         33.5100  -52.3500   -3.1000 H         7 CUB7        0.0000 
    172 DU         30.8300  -49.1600   -5.3700 H         7 CUB7        0.0000 
    173 DU         31.8700  -50.2100   -5.0900 H         7 CUB7        0.0000 
    174 DU         32.9000  -51.2600   -4.8100 H         7 CUB7        0.0000 
    175 DU         28.9000  -46.0700   -2.7300 H         7 CUB7        0.0000 
    176 DU         29.9400  -47.1200   -2.4500 H         7 CUB7        0.0000 
    177 DU         30.9800  -48.1700   -2.1700 H         7 CUB7        0.0000 
    178 DU         32.0100  -49.2200   -1.8900 H         7 CUB7        0.0000 
    179 DU         33.0500  -50.2600   -1.6100 H         7 CUB7        0.0000 
    180 DU         30.3700  -47.0800   -3.8900 H         7 CUB7        0.0000 
    181 DU         34.5100  -51.2700   -2.7700 H         7 CUB7        0.0000 
    182 DU         31.8300  -48.0900   -5.0500 H         7 CUB7        0.0000 
    183 DU         32.8600  -49.1400   -4.7700 H         7 CUB7        0.0000 
    184 DU         33.9000  -50.1900   -4.4900 H         7 CUB7        0.0000 
    185 DU         34.9400  -51.2300   -4.2100 H         7 CUB7        0.0000 
    186 DU         29.9000  -45.0000   -2.4000 H         7 CUB7        0.0000 
    187 DU         34.0400  -49.1900   -1.2900 H         7 CUB7        0.0000 
    188 DU         31.3600  -46.0100   -3.5600 H         7 CUB7        0.0000 
    189 DU         32.4000  -47.0600   -3.2800 H         7 CUB7        0.0000 
    190 DU         33.4400  -48.1000   -3.0000 H         7 CUB7        0.0000 
    191 DU         34.4700  -49.1500   -2.7300 H         7 CUB7        0.0000 
    192 DU         35.5100  -50.2000   -2.4500 H         7 CUB7        0.0000 
    193 DU         32.8300  -47.0200   -4.7200 H         7 CUB7        0.0000 
    194 DU         33.8600  -48.0700   -4.4400 H         7 CUB7        0.0000 
    195 DU         34.9000  -49.1100   -4.1600 H         7 CUB7        0.0000 
    196 DU         35.9300  -50.1600   -3.8800 H         7 CUB7        0.0000 
    197 DU         36.9700  -51.2100   -3.6100 H         7 CUB7        0.0000 
    198 DU         32.3600  -44.9400   -3.2400 H         7 CUB7        0.0000 
    199 DU         37.3600  -49.0500   -5.0000 H         7 CUB7        0.0000 
@<TRIPOS>BOND
@<TRIPOS>SUBSTRUCTURE
     1 SER1        1 GROUP   
     2 ALA2       43 GROUP   
     3 ASP3       74 GROUP   
     4 LYS4       78 GROUP   
     5 PHE5       91 GROUP   
     6 GLY6      134 GROUP   
     7 CUB7      158 GROUP   
@<TRIPOS>SET

