#    Name: 5oal_8_SY9
#    Modification time : Fri May 22 19:14:10 2020

@<TRIPOS>MOLECULE
5oal_8_SY9
   25    31     1     0     0
SMALL
NO_CHARGES


@<TRIPOS>ATOM
      1 CAV        -5.5240  -58.9460  -37.4620 C.3       1 SY9302      0.0000 
      2 CAU        -5.8870  -58.6760  -38.8930 C.3       1 SY9302      0.0000 
      3 CAT        -5.0450  -59.5870  -39.7980 C.3       1 SY9302      0.0000 
      4 CAN        -5.5520  -60.9990  -39.5370 C.3       1 SY9302      0.0000 
      5 CAK        -5.2800  -61.4280  -38.1040 C.3       1 SY9302      0.0000 
      6 NAH        -6.1330  -62.6110  -37.8490 N.am      1 SY9302      0.0000 
      7 CAA        -7.2870  -62.1940  -37.1870 C.ar      1 SY9302      0.0000 
      8 CAF        -8.5160  -62.8350  -37.1260 C.ar      1 SY9302      0.0000 
      9 CAE        -9.6170  -62.0890  -36.7480 C.ar      1 SY9302      0.0000 
     10 CAD        -9.4870  -60.7450  -36.3940 C.ar      1 SY9302      0.0000 
     11 CAC        -8.2440  -60.1330  -36.3840 C.ar      1 SY9302      0.0000 
     12 CAB        -7.1330  -60.8650  -36.7850 C.ar      1 SY9302      0.0000 
     13 CAG        -5.7090  -60.4170  -37.0340 C.3       1 SY9302      0.0000 
     14 CAW        -4.7620  -60.4750  -35.8320 C.3       1 SY9302      0.0000 
     15 CAX        -3.5440  -59.7150  -36.3740 C.3       1 SY9302      0.0000 
     16 NAY        -4.0990  -58.6220  -37.1930 N.4       1 SY9302      0.0000 
     17 CAS        -3.3140  -58.3570  -38.4190 C.3       1 SY9302      0.0000 
     18 CAR        -3.5670  -59.3830  -39.4950 C.2       1 SY9302      0.0000 
     19 CAQ        -2.6030  -60.1160  -40.0420 C.2       1 SY9302      0.0000 
     20 CAP        -2.8060  -61.3260  -40.9070 C.3       1 SY9302      0.0000 
     21 OAO        -3.6540  -62.3390  -40.3090 O.3       1 SY9302      0.0000 
     22 CAM        -5.0620  -62.0980  -40.4300 C.3       1 SY9302      0.0000 
     23 CAL        -5.7800  -63.4230  -40.0920 C.3       1 SY9302      0.0000 
     24 CAI        -6.0090  -63.7220  -38.6370 C.2       1 SY9302      0.0000 
     25 OAJ        -5.9780  -64.8670  -38.1800 O.2       1 SY9302      0.0000 
@<TRIPOS>BOND
     1    1    2 1    
     2    1   13 1    
     3    1   16 1    
     4    2    3 1    
     5    3    4 1    
     6    3   18 1    
     7    4    5 1    
     8    4   22 1    
     9    5    6 1    
    10    5   13 1    
    11    6    7 1    
    12    6   24 am   
    13    7    8 ar   
    14    7   12 ar   
    15    8    9 ar   
    16    9   10 ar   
    17   10   11 ar   
    18   11   12 ar   
    19   12   13 1    
    20   13   14 1    
    21   14   15 1    
    22   15   16 1    
    23   16   17 1    
    24   17   18 1    
    25   18   19 2    
    26   19   20 1    
    27   20   21 1    
    28   21   22 1    
    29   22   23 1    
    30   23   24 1    
    31   24   25 2    
@<TRIPOS>SUBSTRUCTURE
     1 SY9302      1 GROUP   
@<TRIPOS>SET

