#    Name: 5oal_13_SY9
#    Modification time : Fri May 22 19:14:49 2020

@<TRIPOS>MOLECULE
5oal_13_SY9
   25    31     1     0     0
SMALL
NO_CHARGES


@<TRIPOS>ATOM
      1 CAV        35.7600   14.6360    2.8640 C.3       1 SY9401      0.0000 
      2 CAU        36.9400   14.6070    3.8180 C.3       1 SY9401      0.0000 
      3 CAT        36.9880   13.2320    4.4950 C.3       1 SY9401      0.0000 
      4 CAN        37.3710   12.2210    3.3970 C.3       1 SY9401      0.0000 
      5 CAK        36.3700   12.2020    2.2400 C.3       1 SY9401      0.0000 
      6 NAH        37.0960   11.6650    1.0610 N.am      1 SY9401      0.0000 
      7 CAA        37.2320   12.7030    0.0880 C.ar      1 SY9401      0.0000 
      8 CAF        37.8930   12.6880   -1.1350 C.ar      1 SY9401      0.0000 
      9 CAE        38.1620   13.9050   -1.7510 C.ar      1 SY9401      0.0000 
     10 CAD        37.7730   15.1050   -1.1610 C.ar      1 SY9401      0.0000 
     11 CAC        37.0610   15.1050    0.0250 C.ar      1 SY9401      0.0000 
     12 CAB        36.7500   13.8910    0.6250 C.ar      1 SY9401      0.0000 
     13 CAG        35.8230   13.5680    1.7630 C.3       1 SY9401      0.0000 
     14 CAW        34.3370   13.4510    1.3750 C.3       1 SY9401      0.0000 
     15 CAX        33.6570   13.4530    2.7390 C.3       1 SY9401      0.0000 
     16 NAY        34.4560   14.4000    3.5460 N.4       1 SY9401      0.0000 
     17 CAS        34.5990   13.9950    4.9560 C.3       1 SY9401      0.0000 
     18 CAR        35.6560   12.9540    5.1980 C.2       1 SY9401      0.0000 
     19 CAQ        35.4270   11.8540    5.8880 C.2       1 SY9401      0.0000 
     20 CAP        36.3520   10.6800    5.8690 C.3       1 SY9401      0.0000 
     21 OAO        36.5390   10.1740    4.5300 O.3       1 SY9401      0.0000 
     22 CAM        37.6190   10.7700    3.8020 C.3       1 SY9401      0.0000 
     23 CAL        37.7880    9.9010    2.5640 C.3       1 SY9401      0.0000 
     24 CAI        37.9630   10.6300    1.2610 C.2       1 SY9401      0.0000 
     25 OAJ        38.8460   10.3580    0.4830 O.2       1 SY9401      0.0000 
@<TRIPOS>BOND
     1    1    2 1    
     2    1   13 1    
     3    1   16 1    
     4    2    3 1    
     5    3    4 1    
     6    3   18 1    
     7    4    5 1    
     8    4   22 1    
     9    5    6 1    
    10    5   13 1    
    11    6    7 1    
    12    6   24 am   
    13    7    8 ar   
    14    7   12 ar   
    15    8    9 ar   
    16    9   10 ar   
    17   10   11 ar   
    18   11   12 ar   
    19   12   13 1    
    20   13   14 1    
    21   14   15 1    
    22   15   16 1    
    23   16   17 1    
    24   17   18 1    
    25   18   19 2    
    26   19   20 1    
    27   20   21 1    
    28   21   22 1    
    29   22   23 1    
    30   23   24 1    
    31   24   25 2    
@<TRIPOS>SUBSTRUCTURE
     1 SY9401      1 GROUP   
@<TRIPOS>SET

