#    Name: 5oal_11_SY9_CAVITY_N1_4
#    Modification time : Fri May 22 19:14:35 2020

@<TRIPOS>MOLECULE
5oal_11_SY9_CAVITY_N1_4
  129     0     7     0     0
SMALL
NO_CHARGES


@<TRIPOS>ATOM
      1 OG          7.9600    2.9800   17.4300 O.3       1 SER1        0.0000 
      2 OG          8.3800    3.0200   15.9900 O.3       1 SER1        0.0000 
      3 OG          9.5600    2.9700   19.4700 O.3       1 SER1        0.0000 
      4 OG          8.9500    4.0500   17.7500 O.3       1 SER1        0.0000 
      5 OG         11.1700    2.9500   21.5100 O.3       1 SER1        0.0000 
      6 OG         10.5600    4.0400   19.8000 O.3       1 SER1        0.0000 
      7 OG          9.9500    5.1300   18.0800 O.3       1 SER1        0.0000 
      8 OG         12.1700    4.0200   21.8400 O.3       1 SER1        0.0000 
      9 OG         12.5900    4.0600   20.4000 O.3       1 SER1        0.0000 
     10 OG          8.3700   12.5000   19.3800 O.3       1 SER1        0.0000 
     11 OG          9.4100   11.4500   19.6600 O.3       1 SER1        0.0000 
     12 OG         11.3000   10.4800   17.0600 O.3       1 SER1        0.0000 
     13 OG          9.3700   13.5700   19.7000 O.3       1 SER1        0.0000 
     14 OG         10.4100   12.5200   19.9800 O.3       1 SER1        0.0000 
     15 OG         11.8700   11.5100   18.8200 O.3       1 SER1        0.0000 
     16 OG         11.2600   12.6000   17.1100 O.3       1 SER1        0.0000 
     17 OG         12.3000   11.5500   17.3900 O.3       1 SER1        0.0000 
     18 OG         13.3300   10.5000   17.6600 O.3       1 SER1        0.0000 
     19 OG         12.2600   13.6700   17.4300 O.3       1 SER1        0.0000 
     20 N           5.8100    9.3200   16.9600 N.am      2 ALA2        0.0000 
     21 N           6.2400    9.3600   15.5300 N.am      2 ALA2        0.0000 
     22 N           9.0600    7.1700   21.0000 N.am      2 ALA2        0.0000 
     23 N          10.1000    6.1200   21.2800 N.am      2 ALA2        0.0000 
     24 N          11.1300    5.0700   21.5600 N.am      2 ALA2        0.0000 
     25 N           9.4900    7.2100   19.5600 N.am      2 ALA2        0.0000 
     26 N          10.5200    6.1600   19.8400 N.am      2 ALA2        0.0000 
     27 N          11.5600    5.1100   20.1200 N.am      2 ALA2        0.0000 
     28 N           6.8100   10.3900   17.2900 N.am      2 ALA2        0.0000 
     29 N           7.8400    9.3400   17.5700 N.am      2 ALA2        0.0000 
     30 N           8.2700    9.3800   16.1300 N.am      2 ALA2        0.0000 
     31 N           9.0200    9.2900   21.0500 N.am      2 ALA2        0.0000 
     32 N           9.4500    9.3300   19.6100 N.am      2 ALA2        0.0000 
     33 N          10.4800    8.2800   19.8900 N.am      2 ALA2        0.0000 
     34 N          11.5200    7.2300   20.1700 N.am      2 ALA2        0.0000 
     35 N          12.5600    6.1800   20.4500 N.am      2 ALA2        0.0000 
     36 N           7.8000   11.4600   17.6100 N.am      2 ALA2        0.0000 
     37 N           8.8400   10.4200   17.8900 N.am      2 ALA2        0.0000 
     38 N           9.2700   10.4500   16.4600 N.am      2 ALA2        0.0000 
     39 N           9.6900   10.4900   15.0200 N.am      2 ALA2        0.0000 
     40 N          10.4500   10.4000   19.9400 N.am      2 ALA2        0.0000 
     41 N          11.4800    9.3500   20.2100 N.am      2 ALA2        0.0000 
     42 N          12.5200    8.3000   20.4900 N.am      2 ALA2        0.0000 
     43 N           8.8000   12.5400   17.9400 N.am      2 ALA2        0.0000 
     44 N          10.2600   11.5300   16.7800 N.am      2 ALA2        0.0000 
     45 N          10.6900   11.5700   15.3400 N.am      2 ALA2        0.0000 
     46 N          11.4400   11.4700   20.2600 N.am      2 ALA2        0.0000 
     47 N          12.4800   10.4200   20.5400 N.am      2 ALA2        0.0000 
     48 N          13.5200    9.3700   20.8200 N.am      2 ALA2        0.0000 
     49 N          10.2300   13.6500   16.8300 N.am      2 ALA2        0.0000 
     50 N          12.0100   12.5000   22.0200 N.am      2 ALA2        0.0000 
     51 N          13.0500   11.4600   22.3000 N.am      2 ALA2        0.0000 
     52 OD1        12.9100   10.4600   19.1000 O.co2     3 ASP3        0.0000 
     53 OD1        13.9400    9.4100   19.3800 O.co2     3 ASP3        0.0000 
     54 OD1        14.0900   10.4100   22.5800 O.co2     3 ASP3        0.0000 
     55 OD1        13.4800   11.5000   20.8600 O.co2     3 ASP3        0.0000 
     56 OD1        13.9000   11.5300   19.4300 O.co2     3 ASP3        0.0000 
     57 NZ          6.9200    4.0300   17.1500 N.4       4 LYS4        0.0000 
     58 NZ          7.3500    4.0700   15.7100 N.4       4 LYS4        0.0000 
     59 NZ          5.4200    7.1600   18.3500 N.4       4 LYS4        0.0000 
     60 NZ          5.8500    7.2000   16.9200 N.4       4 LYS4        0.0000 
     61 NZ          6.8800    6.1500   17.2000 N.4       4 LYS4        0.0000 
     62 NZ          7.9200    5.1000   17.4800 N.4       4 LYS4        0.0000 
     63 NZ          8.3500    5.1400   16.0400 N.4       4 LYS4        0.0000 
     64 NZ          6.8400    8.2700   17.2400 N.4       4 LYS4        0.0000 
     65 NZ          7.8800    7.2200   17.5200 N.4       4 LYS4        0.0000 
     66 NZ          7.2700    8.3100   15.8100 N.4       4 LYS4        0.0000 
     67 NZ          8.3100    7.2600   16.0800 N.4       4 LYS4        0.0000 
     68 CZ          8.5700    1.8900   19.1500 C.ar      5 PHE5        0.0000 
     69 CZ          6.4600    6.1100   18.6300 C.ar      5 PHE5        0.0000 
     70 CZ          7.4900    5.0600   18.9100 C.ar      5 PHE5        0.0000 
     71 CZ          8.5300    4.0100   19.1900 C.ar      5 PHE5        0.0000 
     72 CZ          9.3800    4.0900   16.3200 C.ar      5 PHE5        0.0000 
     73 CZ          7.0300    7.1400   20.4000 C.ar      5 PHE5        0.0000 
     74 CZ          8.0600    6.1000   20.6800 C.ar      5 PHE5        0.0000 
     75 CZ         10.1300    4.0000   21.2300 C.ar      5 PHE5        0.0000 
     76 CZ          6.4200    8.2300   18.6800 C.ar      5 PHE5        0.0000 
     77 CZ          8.4900    6.1400   19.2400 C.ar      5 PHE5        0.0000 
     78 CZ          9.5300    5.0900   19.5200 C.ar      5 PHE5        0.0000 
     79 CZ          9.3400    6.2100   16.3600 C.ar      5 PHE5        0.0000 
     80 CZ          8.7300    7.3000   14.6500 C.ar      5 PHE5        0.0000 
     81 CZ          8.0200    8.2200   20.7200 C.ar      5 PHE5        0.0000 
     82 CZ          7.4200    9.3000   19.0100 C.ar      5 PHE5        0.0000 
     83 CZ         10.9500    6.2000   18.4100 C.ar      5 PHE5        0.0000 
     84 CZ         11.9900    5.1500   18.6800 C.ar      5 PHE5        0.0000 
     85 CZ         10.3400    7.2900   16.6900 C.ar      5 PHE5        0.0000 
     86 CZ         11.3800    6.2400   16.9700 C.ar      5 PHE5        0.0000 
     87 CZ          8.7000    9.4200   14.6900 C.ar      5 PHE5        0.0000 
     88 CZ          9.7300    8.3700   14.9700 C.ar      5 PHE5        0.0000 
     89 CZ         10.7700    7.3200   15.2500 C.ar      5 PHE5        0.0000 
     90 CZ          7.3800   11.4200   19.0500 C.ar      5 PHE5        0.0000 
     91 CZ          8.4100   10.3800   19.3300 C.ar      5 PHE5        0.0000 
     92 CZ         12.9800    6.2200   19.0100 C.ar      5 PHE5        0.0000 
     93 CZ         11.3400    8.3600   17.0100 C.ar      5 PHE5        0.0000 
     94 CZ         12.3700    7.3100   17.2900 C.ar      5 PHE5        0.0000 
     95 CZ         13.4100    6.2600   17.5700 C.ar      5 PHE5        0.0000 
     96 CZ         10.7300    9.4400   15.3000 C.ar      5 PHE5        0.0000 
     97 CZ         11.7600    8.4000   15.5800 C.ar      5 PHE5        0.0000 
     98 CZ         13.9800    7.2900   19.3300 C.ar      5 PHE5        0.0000 
     99 CZ         14.4100    7.3300   17.9000 C.ar      5 PHE5        0.0000 
    100 CZ         14.8300    7.3700   16.4600 C.ar      5 PHE5        0.0000 
    101 CA         13.5500    7.2500   20.7700 C.3       6 GLY6        0.0000 
    102 CA          7.7700   13.5800   17.6600 C.3       6 GLY6        0.0000 
    103 CA         12.3400    9.4300   17.3400 C.3       6 GLY6        0.0000 
    104 CA         11.7300   10.5200   15.6200 C.3       6 GLY6        0.0000 
    105 CA         12.7600    9.4700   15.9000 C.3       6 GLY6        0.0000 
    106 CA         13.8000    8.4200   16.1800 C.3       6 GLY6        0.0000 
    107 CA         14.3700    9.4500   17.9400 C.3       6 GLY6        0.0000 
    108 CA         14.8000    9.4900   16.5100 C.3       6 GLY6        0.0000 
    109 CA         11.4100   13.5900   20.3100 C.3       6 GLY6        0.0000 
    110 CA         12.4400   12.5400   20.5900 C.3       6 GLY6        0.0000 
    111 CA         10.8000   14.6800   18.5900 C.3       6 GLY6        0.0000 
    112 CA         11.8300   13.6300   18.8700 C.3       6 GLY6        0.0000 
    113 CA         12.8700   12.5800   19.1500 C.3       6 GLY6        0.0000 
    114 DU          7.4500    7.1800   18.9600 H         7 CUB7        0.0000 
    115 DU          8.9200    6.1700   17.8000 H         7 CUB7        0.0000 
    116 DU          8.4500    8.2600   19.2800 H         7 CUB7        0.0000 
    117 DU          8.8800    8.2900   17.8500 H         7 CUB7        0.0000 
    118 DU          9.9100    7.2500   18.1300 H         7 CUB7        0.0000 
    119 DU          9.3000    8.3300   16.4100 H         7 CUB7        0.0000 
    120 DU          9.8800    9.3700   18.1700 H         7 CUB7        0.0000 
    121 DU         10.9100    8.3200   18.4500 H         7 CUB7        0.0000 
    122 DU         11.9500    7.2700   18.7300 H         7 CUB7        0.0000 
    123 DU         10.3000    9.4100   16.7300 H         7 CUB7        0.0000 
    124 DU          9.8400   11.4900   18.2200 H         7 CUB7        0.0000 
    125 DU         10.8700   10.4400   18.5000 H         7 CUB7        0.0000 
    126 DU         12.9400    8.3400   19.0600 H         7 CUB7        0.0000 
    127 DU         13.3700    8.3800   17.6200 H         7 CUB7        0.0000 
    128 DU          9.8000   13.6100   18.2600 H         7 CUB7        0.0000 
    129 DU         10.8300   12.5600   18.5400 H         7 CUB7        0.0000 
@<TRIPOS>BOND
@<TRIPOS>SUBSTRUCTURE
     1 SER1        1 GROUP   
     2 ALA2       20 GROUP   
     3 ASP3       52 GROUP   
     4 LYS4       57 GROUP   
     5 PHE5       68 GROUP   
     6 GLY6      101 GROUP   
     7 CUB7      114 GROUP   
@<TRIPOS>SET

