#    Name: 5oal_10_SY9_CAVITY_N1_4
#    Modification time : Fri May 22 19:14:27 2020

@<TRIPOS>MOLECULE
5oal_10_SY9_CAVITY_N1_4
  123     0     7     0     0
SMALL
NO_CHARGES


@<TRIPOS>ATOM
      1 OG          7.5500  -72.2100   10.5700 O.3       1 SER1        0.0000 
      2 OG          6.9400  -71.1300    8.8500 O.3       1 SER1        0.0000 
      3 OG          8.1200  -71.1800   12.3300 O.3       1 SER1        0.0000 
      4 OG          7.5100  -70.0900   10.6100 O.3       1 SER1        0.0000 
      5 OG          6.9000  -69.0100    8.9000 O.3       1 SER1        0.0000 
      6 OG          7.9400  -70.0500    9.1800 O.3       1 SER1        0.0000 
      7 OG          9.7300  -71.2000   14.3700 O.3       1 SER1        0.0000 
      8 OG          8.0800  -69.0600   12.3800 O.3       1 SER1        0.0000 
      9 OG          9.1200  -70.1100   12.6600 O.3       1 SER1        0.0000 
     10 OG          8.5100  -69.0200   10.9400 O.3       1 SER1        0.0000 
     11 OG         10.1200  -69.0400   12.9800 O.3       1 SER1        0.0000 
     12 OG          4.4700  -61.7100   13.0700 O.3       1 SER1        0.0000 
     13 OG          5.5100  -62.7600   13.3500 O.3       1 SER1        0.0000 
     14 OG          5.4700  -60.6400   13.4000 O.3       1 SER1        0.0000 
     15 OG          6.3200  -60.5600   10.5200 O.3       1 SER1        0.0000 
     16 OG          8.3900  -62.6600   11.0800 O.3       1 SER1        0.0000 
     17 OG          6.7500  -60.5200    9.0800 O.3       1 SER1        0.0000 
     18 OG          7.3200  -59.4900   10.8500 O.3       1 SER1        0.0000 
     19 OG         10.4300  -62.6400   11.6800 O.3       1 SER1        0.0000 
     20 N           3.3700  -65.9000    9.5000 N.am      2 ALA2        0.0000 
     21 N           2.9000  -63.8200   10.9800 N.am      2 ALA2        0.0000 
     22 N           4.3700  -64.8300    9.8200 N.am      2 ALA2        0.0000 
     23 N           6.5800  -65.9300   13.5800 N.am      2 ALA2        0.0000 
     24 N           7.6200  -66.9800   13.8600 N.am      2 ALA2        0.0000 
     25 N           8.6500  -68.0300   14.1400 N.am      2 ALA2        0.0000 
     26 N           3.9000  -62.7500   11.3100 N.am      2 ALA2        0.0000 
     27 N           4.9400  -63.7900   11.5900 N.am      2 ALA2        0.0000 
     28 N           8.0400  -66.9400   12.4200 N.am      2 ALA2        0.0000 
     29 N           5.3600  -63.7500   10.1500 N.am      2 ALA2        0.0000 
     30 N           5.7900  -63.7200    8.7100 N.am      2 ALA2        0.0000 
     31 N           6.5400  -63.8100   13.6300 N.am      2 ALA2        0.0000 
     32 N           4.9000  -61.6700   11.6300 N.am      2 ALA2        0.0000 
     33 N           8.0100  -64.8200   12.4700 N.am      2 ALA2        0.0000 
     34 N           9.0400  -65.8700   12.7500 N.am      2 ALA2        0.0000 
     35 N           5.3200  -61.6300   10.2000 N.am      2 ALA2        0.0000 
     36 N           6.3600  -62.6800   10.4700 N.am      2 ALA2        0.0000 
     37 N           6.7900  -62.6400    9.0400 N.am      2 ALA2        0.0000 
     38 N           6.0800  -61.7300   15.1100 N.am      2 ALA2        0.0000 
     39 N           6.5000  -61.6900   13.6700 N.am      2 ALA2        0.0000 
     40 N           7.5400  -62.7400   13.9500 N.am      2 ALA2        0.0000 
     41 N          10.0400  -64.8000   13.0700 N.am      2 ALA2        0.0000 
     42 N           8.5400  -61.6700   14.2800 N.am      2 ALA2        0.0000 
     43 OD1         9.5700  -62.7100   14.5600 O.co2     3 ASP3        0.0000 
     44 OD1        10.0000  -62.6700   13.1200 O.co2     3 ASP3        0.0000 
     45 OD1        11.0400  -63.7200   13.4000 O.co2     3 ASP3        0.0000 
     46 OD1        10.1400  -61.6800   16.3200 O.co2     3 ASP3        0.0000 
     47 NZ          4.0200  -69.1100   11.1700 N.4       4 LYS4        0.0000 
     48 NZ          5.4800  -70.1200   10.0100 N.4       4 LYS4        0.0000 
     49 NZ          3.9800  -66.9900   11.2100 N.4       4 LYS4        0.0000 
     50 NZ          5.4400  -68.0000   10.0600 N.4       4 LYS4        0.0000 
     51 NZ          6.4800  -69.0400   10.3400 N.4       4 LYS4        0.0000 
     52 NZ          5.4000  -65.8800   10.1000 N.4       4 LYS4        0.0000 
     53 NZ          6.4400  -66.9200   10.3800 N.4       4 LYS4        0.0000 
     54 NZ         11.7200  -69.0500   15.0200 N.4       4 LYS4        0.0000 
     55 CZ          5.0500  -70.1600   11.4500 C.ar      5 PHE5        0.0000 
     56 CZ          6.0900  -71.2000   11.7300 C.ar      5 PHE5        0.0000 
     57 CZ          7.1200  -72.2500   12.0100 C.ar      5 PHE5        0.0000 
     58 CZ          3.5500  -67.0300   12.6500 C.ar      5 PHE5        0.0000 
     59 CZ          4.5900  -68.0700   12.9300 C.ar      5 PHE5        0.0000 
     60 CZ          2.9400  -65.9400   10.9400 C.ar      5 PHE5        0.0000 
     61 CZ          5.0100  -68.0300   11.4900 C.ar      5 PHE5        0.0000 
     62 CZ          6.0500  -69.0800   11.7700 C.ar      5 PHE5        0.0000 
     63 CZ          7.0800  -70.1300   12.0500 C.ar      5 PHE5        0.0000 
     64 CZ          5.1600  -67.0400   14.6900 C.ar      5 PHE5        0.0000 
     65 CZ          4.5500  -65.9500   12.9800 C.ar      5 PHE5        0.0000 
     66 CZ          5.5800  -67.0000   13.2600 C.ar      5 PHE5        0.0000 
     67 CZ          6.6200  -68.0500   13.5400 C.ar      5 PHE5        0.0000 
     68 CZ          7.6600  -69.1000   13.8100 C.ar      5 PHE5        0.0000 
     69 CZ          8.6900  -70.1500   14.0900 C.ar      5 PHE5        0.0000 
     70 CZ          3.9400  -64.8700   11.2600 C.ar      5 PHE5        0.0000 
     71 CZ          7.4700  -67.9700   10.6600 C.ar      5 PHE5        0.0000 
     72 CZ          5.8300  -65.8400    8.6700 C.ar      5 PHE5        0.0000 
     73 CZ          6.8600  -66.8800    8.9400 C.ar      5 PHE5        0.0000 
     74 CZ          3.4700  -62.7800   12.7400 C.ar      5 PHE5        0.0000 
     75 CZ          4.5100  -63.8300   13.0200 C.ar      5 PHE5        0.0000 
     76 CZ          5.5500  -64.8800   13.3000 C.ar      5 PHE5        0.0000 
     77 CZ          8.4700  -66.9000   10.9900 C.ar      5 PHE5        0.0000 
     78 CZ          9.5100  -67.9500   11.2600 C.ar      5 PHE5        0.0000 
     79 CZ          6.8300  -64.7600    8.9900 C.ar      5 PHE5        0.0000 
     80 CZ          7.8600  -65.8100    9.2700 C.ar      5 PHE5        0.0000 
     81 CZ         10.0800  -66.9200   13.0300 C.ar      5 PHE5        0.0000 
     82 CZ         11.1100  -67.9600   13.3100 C.ar      5 PHE5        0.0000 
     83 CZ          9.4700  -65.8300   11.3100 C.ar      5 PHE5        0.0000 
     84 CZ         10.5000  -66.8800   11.5900 C.ar      5 PHE5        0.0000 
     85 CZ          8.8600  -64.7400    9.5900 C.ar      5 PHE5        0.0000 
     86 CZ          8.2500  -63.6500    7.8800 C.ar      5 PHE5        0.0000 
     87 CZ         11.0700  -65.8400   13.3500 C.ar      5 PHE5        0.0000 
     88 CZ         10.4700  -64.7600   11.6400 C.ar      5 PHE5        0.0000 
     89 CZ         11.5000  -65.8000   11.9200 C.ar      5 PHE5        0.0000 
     90 CZ         10.8900  -64.7200   10.2000 C.ar      5 PHE5        0.0000 
     91 CZ         11.4600  -63.6800   11.9600 C.ar      5 PHE5        0.0000 
     92 CZ         11.8900  -63.6400   10.5200 C.ar      5 PHE5        0.0000 
     93 CA          5.5200  -72.2400    9.9600 C.3       6 GLY6        0.0000 
     94 CA          9.2600  -69.1100   15.8600 C.3       6 GLY6        0.0000 
     95 CA          9.6900  -69.0800   14.4200 C.3       6 GLY6        0.0000 
     96 CA         10.6900  -68.0000   14.7400 C.3       6 GLY6        0.0000 
     97 CA          3.8600  -60.6200   11.3500 C.3       6 GLY6        0.0000 
     98 CA          7.8200  -63.6900    9.3200 C.3       6 GLY6        0.0000 
     99 CA          5.9000  -60.6000   11.9600 C.3       6 GLY6        0.0000 
    100 CA          6.9300  -61.6500   12.2400 C.3       6 GLY6        0.0000 
    101 CA          9.8600  -63.6700    9.9200 C.3       6 GLY6        0.0000 
    102 CA         10.2800  -63.6300    8.4800 C.3       6 GLY6        0.0000 
    103 CA          7.0800  -60.6600   15.4400 C.3       6 GLY6        0.0000 
    104 CA          7.9300  -60.5800   12.5600 C.3       6 GLY6        0.0000 
    105 CA          8.9600  -61.6300   12.8400 C.3       6 GLY6        0.0000 
    106 CA         10.8500  -62.6000   10.2500 C.3       6 GLY6        0.0000 
    107 CA          9.1100  -60.6300   16.0400 C.3       6 GLY6        0.0000 
    108 CA          9.5400  -60.5900   14.6000 C.3       6 GLY6        0.0000 
    109 DU          6.5100  -71.1600   10.2900 H         7 CUB7        0.0000 
    110 DU          4.9700  -65.9100   11.5400 H         7 CUB7        0.0000 
    111 DU          6.0100  -66.9600   11.8200 H         7 CUB7        0.0000 
    112 DU          7.0500  -68.0100   12.1000 H         7 CUB7        0.0000 
    113 DU          5.9700  -64.8400   11.8700 H         7 CUB7        0.0000 
    114 DU          7.0100  -65.8900   12.1400 H         7 CUB7        0.0000 
    115 DU          9.0800  -67.9900   12.7000 H         7 CUB7        0.0000 
    116 DU          6.4000  -64.8000   10.4300 H         7 CUB7        0.0000 
    117 DU          7.4300  -65.8500   10.7100 H         7 CUB7        0.0000 
    118 DU          5.9300  -62.7200   11.9100 H         7 CUB7        0.0000 
    119 DU          6.9700  -63.7700   12.1900 H         7 CUB7        0.0000 
    120 DU          7.4000  -63.7300   10.7500 H         7 CUB7        0.0000 
    121 DU          8.4300  -64.7800   11.0300 H         7 CUB7        0.0000 
    122 DU          7.9700  -62.7000   12.5200 H         7 CUB7        0.0000 
    123 DU          9.4300  -63.7100   11.3600 H         7 CUB7        0.0000 
@<TRIPOS>BOND
@<TRIPOS>SUBSTRUCTURE
     1 SER1        1 GROUP   
     2 ALA2       20 GROUP   
     3 ASP3       43 GROUP   
     4 LYS4       47 GROUP   
     5 PHE5       55 GROUP   
     6 GLY6       93 GROUP   
     7 CUB7      109 GROUP   
@<TRIPOS>SET

