#    Name: 5oal_13_SY9_CAVITY_N1_4
#    Modification time : Fri May 22 19:14:50 2020

@<TRIPOS>MOLECULE
5oal_13_SY9_CAVITY_N1_4
  121     0     7     0     0
SMALL
NO_CHARGES


@<TRIPOS>ATOM
      1 OG         34.1900    8.0100    3.4400 O.3       1 SER1        0.0000 
      2 OG         35.2200    6.9600    3.7200 O.3       1 SER1        0.0000 
      3 OG         35.6500    7.0000    2.2800 O.3       1 SER1        0.0000 
      4 OG         35.7900    7.9900    5.4800 O.3       1 SER1        0.0000 
      5 OG         36.8300    6.9400    5.7600 O.3       1 SER1        0.0000 
      6 OG         36.6500    8.0700    2.6100 O.3       1 SER1        0.0000 
      7 OG         37.6500    9.1400    2.9300 O.3       1 SER1        0.0000 
      8 OG         38.6800    8.0900    3.2100 O.3       1 SER1        0.0000 
      9 OG         38.0700    9.1800    1.4900 O.3       1 SER1        0.0000 
     10 OG         38.5000    9.2200    0.0600 O.3       1 SER1        0.0000 
     11 OG         39.0700   10.2500    1.8200 O.3       1 SER1        0.0000 
     12 OG         40.1100    9.2000    2.1000 O.3       1 SER1        0.0000 
     13 OG         41.1400    8.1500    2.3800 O.3       1 SER1        0.0000 
     14 OG         40.5300    9.2400    0.6600 O.3       1 SER1        0.0000 
     15 OG         34.8900   16.5700    0.7500 O.3       1 SER1        0.0000 
     16 OG         35.9200   15.5200    1.0300 O.3       1 SER1        0.0000 
     17 OG         36.3500   15.5600   -0.4100 O.3       1 SER1        0.0000 
     18 OG         42.5700    9.2700    1.2700 O.3       1 SER1        0.0000 
     19 OG         36.0700   16.5100    4.2300 O.3       1 SER1        0.0000 
     20 OG         36.4900   16.5500    2.7900 O.3       1 SER1        0.0000 
     21 OG         35.8900   17.6400    1.0800 O.3       1 SER1        0.0000 
     22 OG         37.3500   16.6300   -0.0800 O.3       1 SER1        0.0000 
     23 OG         37.4900   17.6200    3.1200 O.3       1 SER1        0.0000 
     24 OG         38.5300   16.5700    3.4000 O.3       1 SER1        0.0000 
     25 N          33.6500   14.3300    5.0200 N.am      2 ALA2        0.0000 
     26 N          34.0700   14.3700    3.5800 N.am      2 ALA2        0.0000 
     27 N          34.5000   14.4100    2.1400 N.am      2 ALA2        0.0000 
     28 O          33.8900   15.4900    0.4200 O.2       2 ALA2        0.0000 
     29 N          35.0700   15.4400    3.9000 N.am      2 ALA2        0.0000 
     30 N          35.5000   15.4800    2.4700 N.am      2 ALA2        0.0000 
     31 N          37.5700   13.3800    3.0200 N.am      2 ALA2        0.0000 
     32 N          38.6000   12.3300    3.3000 N.am      2 ALA2        0.0000 
     33 N          38.0000   13.4200    1.5900 N.am      2 ALA2        0.0000 
     34 N          39.0300   12.3700    1.8700 N.am      2 ALA2        0.0000 
     35 N          40.0700   11.3200    2.1500 N.am      2 ALA2        0.0000 
     36 N          38.4200   13.4600    0.1500 N.am      2 ALA2        0.0000 
     37 N          39.4600   12.4100    0.4300 N.am      2 ALA2        0.0000 
     38 N          40.4900   11.3600    0.7100 N.am      2 ALA2        0.0000 
     39 N          35.0300   17.5600    3.9500 N.am      2 ALA2        0.0000 
     40 N          35.4600   17.6000    2.5100 N.am      2 ALA2        0.0000 
     41 N          37.5300   15.5000    3.0700 N.am      2 ALA2        0.0000 
     42 N          38.5700   14.4500    3.3500 N.am      2 ALA2        0.0000 
     43 N          37.9600   15.5400    1.6300 N.am      2 ALA2        0.0000 
     44 N          38.9900   14.4900    1.9100 N.am      2 ALA2        0.0000 
     45 N          38.3800   15.5800    0.2000 N.am      2 ALA2        0.0000 
     46 N          39.4200   14.5300    0.4800 N.am      2 ALA2        0.0000 
     47 N          38.9500   16.6100    1.9600 N.am      2 ALA2        0.0000 
     48 N          39.3800   16.6500    0.5200 N.am      2 ALA2        0.0000 
     49 OD1        38.8100   15.6200   -1.2400 O.co2     3 ASP3        0.0000 
     50 OD1        39.8500   14.5700   -0.9600 O.co2     3 ASP3        0.0000 
     51 NZ         35.1900    9.0800    3.7700 N.4       4 LYS4        0.0000 
     52 NZ         35.7600   10.1100    5.5300 N.4       4 LYS4        0.0000 
     53 NZ         34.1100   12.2500    3.5300 N.4       4 LYS4        0.0000 
     54 NZ         35.1500   11.2000    3.8100 N.4       4 LYS4        0.0000 
     55 NZ         36.1800   10.1500    4.0900 N.4       4 LYS4        0.0000 
     56 NZ         34.6800   13.2800    5.3000 N.4       4 LYS4        0.0000 
     57 NZ         35.7200   12.2300    5.5700 N.4       4 LYS4        0.0000 
     58 NZ         35.1100   13.3200    3.8600 N.4       4 LYS4        0.0000 
     59 NZ         36.1400   12.2700    4.1400 N.4       4 LYS4        0.0000 
     60 CZ         37.2600    6.9800    4.3200 C.ar      5 PHE5        0.0000 
     61 CZ         33.5400   11.2100    1.7700 C.ar      5 PHE5        0.0000 
     62 CZ         34.5800   10.1700    2.0500 C.ar      5 PHE5        0.0000 
     63 CZ         35.6100    9.1200    2.3300 C.ar      5 PHE5        0.0000 
     64 CZ         33.9700   11.2500    0.3300 C.ar      5 PHE5        0.0000 
     65 CZ         36.7900    9.0600    5.8100 C.ar      5 PHE5        0.0000 
     66 CZ         33.0800   13.3000    3.2500 C.ar      5 PHE5        0.0000 
     67 CZ         37.2200    9.1000    4.3700 C.ar      5 PHE5        0.0000 
     68 CZ         33.5000   13.3300    1.8200 C.ar      5 PHE5        0.0000 
     69 CZ         34.5400   12.2900    2.1000 C.ar      5 PHE5        0.0000 
     70 CZ         35.5700   11.2400    2.3700 C.ar      5 PHE5        0.0000 
     71 CZ         36.6100   10.1900    2.6500 C.ar      5 PHE5        0.0000 
     72 CZ         39.7200    7.0400    3.4900 C.ar      5 PHE5        0.0000 
     73 CZ         33.9300   13.3700    0.3800 C.ar      5 PHE5        0.0000 
     74 CZ         34.9700   12.3300    0.6600 C.ar      5 PHE5        0.0000 
     75 CZ         36.0000   11.2800    0.9400 C.ar      5 PHE5        0.0000 
     76 CZ         37.0400   10.2300    1.2200 C.ar      5 PHE5        0.0000 
     77 CZ         34.3600   13.4100   -1.0600 C.ar      5 PHE5        0.0000 
     78 CZ         35.3900   12.3600   -0.7800 C.ar      5 PHE5        0.0000 
     79 CZ         36.7500   11.1800    5.8500 C.ar      5 PHE5        0.0000 
     80 CZ         38.2200   10.1700    4.6900 C.ar      5 PHE5        0.0000 
     81 CZ         38.6400   10.2100    3.2600 C.ar      5 PHE5        0.0000 
     82 CZ         36.3900   13.4400   -0.4500 C.ar      5 PHE5        0.0000 
     83 CZ         37.4300   12.3900   -0.1800 C.ar      5 PHE5        0.0000 
     84 CZ         38.4600   11.3400    0.1000 C.ar      5 PHE5        0.0000 
     85 CZ         39.5000   10.2900    0.3800 C.ar      5 PHE5        0.0000 
     86 CZ         37.8500   12.4300   -1.6100 C.ar      5 PHE5        0.0000 
     87 CZ         34.6400   15.4000    5.3400 C.ar      5 PHE5        0.0000 
     88 CZ         35.6800   14.3500    5.6200 C.ar      5 PHE5        0.0000 
     89 CZ         36.7200   13.3000    5.9000 C.ar      5 PHE5        0.0000 
     90 CZ         37.7500   12.2600    6.1800 C.ar      5 PHE5        0.0000 
     91 CZ         36.1100   14.3900    4.1800 C.ar      5 PHE5        0.0000 
     92 CZ         37.1400   13.3400    4.4600 C.ar      5 PHE5        0.0000 
     93 CZ         38.1800   12.2900    4.7400 C.ar      5 PHE5        0.0000 
     94 CZ         38.8500   13.5000   -1.2900 C.ar      5 PHE5        0.0000 
     95 CZ         39.8900   12.4500   -1.0100 C.ar      5 PHE5        0.0000 
     96 CZ         37.1000   15.4600    4.5100 C.ar      5 PHE5        0.0000 
     97 CZ         38.1400   14.4100    4.7900 C.ar      5 PHE5        0.0000 
     98 CZ         39.1800   13.3700    5.0700 C.ar      5 PHE5        0.0000 
     99 CA         34.8000    6.9200    5.1600 C.3       6 GLY6        0.0000 
    100 CA         34.9300   14.4500    0.7000 C.3       6 GLY6        0.0000 
    101 CA         35.3500   14.4800   -0.7300 C.3       6 GLY6        0.0000 
    102 CA         36.8200   13.4800   -1.8900 C.3       6 GLY6        0.0000 
    103 CA         39.6400   11.2800    3.5800 C.3       6 GLY6        0.0000 
    104 CA         41.1000   10.2800    2.4200 C.3       6 GLY6        0.0000 
    105 CA         41.5300   10.3100    0.9900 C.3       6 GLY6        0.0000 
    106 CA         37.8100   14.5500   -1.5700 C.3       6 GLY6        0.0000 
    107 CA         36.8800   18.7100    1.4000 C.3       6 GLY6        0.0000 
    108 CA         37.9200   17.6600    1.6800 C.3       6 GLY6        0.0000 
    109 CA         38.3500   17.7000    0.2400 C.3       6 GLY6        0.0000 
    110 DU         36.2200    8.0300    4.0400 H         7 CUB7        0.0000 
    111 DU         37.1800   11.2200    4.4200 H         7 CUB7        0.0000 
    112 DU         35.5400   13.3600    2.4200 H         7 CUB7        0.0000 
    113 DU         36.5700   12.3100    2.7000 H         7 CUB7        0.0000 
    114 DU         37.6100   11.2600    2.9800 H         7 CUB7        0.0000 
    115 DU         35.9600   13.4000    0.9800 H         7 CUB7        0.0000 
    116 DU         37.0000   12.3500    1.2600 H         7 CUB7        0.0000 
    117 DU         38.0300   11.3000    1.5400 H         7 CUB7        0.0000 
    118 DU         36.5300   14.4300    2.7500 H         7 CUB7        0.0000 
    119 DU         36.9600   14.4700    1.3100 H         7 CUB7        0.0000 
    120 DU         37.3900   14.5100   -0.1300 H         7 CUB7        0.0000 
    121 DU         36.9200   16.5900    1.3500 H         7 CUB7        0.0000 
@<TRIPOS>BOND
@<TRIPOS>SUBSTRUCTURE
     1 SER1        1 GROUP   
     2 ALA2       25 GROUP   
     3 ASP3       49 GROUP   
     4 LYS4       51 GROUP   
     5 PHE5       60 GROUP   
     6 GLY6       99 GROUP   
     7 CUB7      110 GROUP   
@<TRIPOS>SET

