#    Name: 5oal_6_SY9
#    Modification time : Fri May 22 19:13:55 2020

@<TRIPOS>MOLECULE
5oal_6_SY9
   25    31     1     0     0
SMALL
NO_CHARGES


@<TRIPOS>ATOM
      1 CAV        29.3770  -49.8880   -2.3560 C.3       1 SY9401      0.0000 
      2 CAU        30.4440  -49.3090   -1.4390 C.3       1 SY9401      0.0000 
      3 CAT        31.3570  -50.4490   -0.9650 C.3       1 SY9401      0.0000 
      4 CAN        32.1130  -50.9350   -2.2170 C.3       1 SY9401      0.0000 
      5 CAK        31.1570  -51.5350   -3.2480 C.3       1 SY9401      0.0000 
      6 NAH        31.8980  -51.6090   -4.5300 N.am      1 SY9401      0.0000 
      7 CAA        31.5710  -50.5190   -5.2980 C.ar      1 SY9401      0.0000 
      8 CAF        32.2760  -49.9980   -6.3730 C.ar      1 SY9401      0.0000 
      9 CAE        31.8480  -48.7930   -6.8930 C.ar      1 SY9401      0.0000 
     10 CAD        30.7350  -48.1450   -6.3640 C.ar      1 SY9401      0.0000 
     11 CAC        30.0250  -48.6860   -5.3020 C.ar      1 SY9401      0.0000 
     12 CAB        30.4490  -49.8840   -4.7630 C.ar      1 SY9401      0.0000 
     13 CAG        29.9180  -50.6650   -3.5800 C.3       1 SY9401      0.0000 
     14 CAW        28.6920  -51.5380   -3.9040 C.3       1 SY9401      0.0000 
     15 CAX        28.2570  -52.0120   -2.5190 C.3       1 SY9401      0.0000 
     16 NAY        28.5070  -50.8670   -1.6320 N.4       1 SY9401      0.0000 
     17 CAS        29.0360  -51.2560   -0.3040 C.3       1 SY9401      0.0000 
     18 CAR        30.5170  -51.5280   -0.2940 C.2       1 SY9401      0.0000 
     19 CAQ        31.0390  -52.6610    0.1470 C.2       1 SY9401      0.0000 
     20 CAP        32.4970  -52.9980    0.0060 C.3       1 SY9401      0.0000 
     21 OAO        32.9120  -53.1390   -1.3740 O.3       1 SY9401      0.0000 
     22 CAM        33.2750  -51.9150   -2.0220 C.3       1 SY9401      0.0000 
     23 CAL        33.9130  -52.3040   -3.3840 C.3       1 SY9401      0.0000 
     24 CAI        33.0590  -52.3020   -4.6250 C.2       1 SY9401      0.0000 
     25 OAJ        33.4380  -52.7940   -5.6740 O.2       1 SY9401      0.0000 
@<TRIPOS>BOND
     1    1    2 1    
     2    1   13 1    
     3    1   16 1    
     4    2    3 1    
     5    3    4 1    
     6    3   18 1    
     7    4    5 1    
     8    4   22 1    
     9    5    6 1    
    10    5   13 1    
    11    6    7 1    
    12    6   24 am   
    13    7    8 ar   
    14    7   12 ar   
    15    8    9 ar   
    16    9   10 ar   
    17   10   11 ar   
    18   11   12 ar   
    19   12   13 1    
    20   13   14 1    
    21   14   15 1    
    22   15   16 1    
    23   16   17 1    
    24   17   18 1    
    25   18   19 2    
    26   19   20 1    
    27   20   21 1    
    28   21   22 1    
    29   22   23 1    
    30   23   24 1    
    31   24   25 2    
@<TRIPOS>SUBSTRUCTURE
     1 SY9401      1 GROUP   
@<TRIPOS>SET

