#    Name: 5oal_3_SY9_CAVITY_N1_4
#    Modification time : Fri May 22 19:13:35 2020

@<TRIPOS>MOLECULE
5oal_3_SY9_CAVITY_N1_4
  110     0     7     0     0
SMALL
NO_CHARGES


@<TRIPOS>ATOM
      1 OG        -61.2200  -34.4300  -27.6000 O.3       1 SER1        0.0000 
      2 OG        -60.6500  -33.3900  -25.8400 O.3       1 SER1        0.0000 
      3 OG        -61.2600  -32.3100  -27.5600 O.3       1 SER1        0.0000 
      4 OG        -59.6500  -32.3200  -25.5200 O.3       1 SER1        0.0000 
      5 OG        -59.2200  -32.2800  -26.9500 O.3       1 SER1        0.0000 
      6 OG        -58.8000  -32.2400  -28.3900 O.3       1 SER1        0.0000 
      7 OG        -53.1900  -37.4500  -28.4300 O.3       1 SER1        0.0000 
      8 OG        -52.1500  -38.4900  -28.1500 O.3       1 SER1        0.0000 
      9 OG        -58.4100  -30.0800  -29.7800 O.3       1 SER1        0.0000 
     10 OG        -57.3700  -31.1300  -29.5000 O.3       1 SER1        0.0000 
     11 OG        -56.8000  -30.1000  -27.7400 O.3       1 SER1        0.0000 
     12 OG        -51.6200  -35.3400  -26.3400 O.3       1 SER1        0.0000 
     13 OG        -51.2300  -33.1800  -27.7400 O.3       1 SER1        0.0000 
     14 OG        -50.2400  -32.1100  -27.4100 O.3       1 SER1        0.0000 
     15 N         -55.0400  -38.6000  -25.8800 N.am      2 ALA2        0.0000 
     16 N         -55.0800  -36.4800  -25.8400 N.am      2 ALA2        0.0000 
     17 N         -54.6500  -36.4400  -27.2700 N.am      2 ALA2        0.0000 
     18 N         -53.6200  -37.4800  -27.0000 N.am      2 ALA2        0.0000 
     19 N         -56.3000  -34.3000  -29.2700 N.am      2 ALA2        0.0000 
     20 N         -55.8700  -34.2600  -30.7100 N.am      2 ALA2        0.0000 
     21 N         -54.8400  -35.3100  -30.4300 N.am      2 ALA2        0.0000 
     22 N         -53.8000  -36.3600  -30.1500 N.am      2 ALA2        0.0000 
     23 N         -54.0800  -35.4000  -25.5100 N.am      2 ALA2        0.0000 
     24 N         -53.6600  -35.3600  -26.9500 N.am      2 ALA2        0.0000 
     25 N         -52.6200  -36.4100  -26.6700 N.am      2 ALA2        0.0000 
     26 N         -56.3400  -32.1800  -29.2200 N.am      2 ALA2        0.0000 
     27 N         -55.3000  -33.2300  -28.9400 N.am      2 ALA2        0.0000 
     28 N         -54.2600  -34.2800  -28.6700 N.am      2 ALA2        0.0000 
     29 N         -53.2300  -35.3300  -28.3900 N.am      2 ALA2        0.0000 
     30 N         -56.9500  -31.0900  -30.9400 N.am      2 ALA2        0.0000 
     31 N         -52.8000  -35.2900  -29.8200 N.am      2 ALA2        0.0000 
     32 N         -51.7700  -36.3300  -29.5500 N.am      2 ALA2        0.0000 
     33 N         -51.3400  -36.3000  -30.9800 N.am      2 ALA2        0.0000 
     34 O         -52.0500  -35.3800  -24.9100 O.2       2 ALA2        0.0000 
     35 N         -51.0100  -36.4300  -24.6300 N.am      2 ALA2        0.0000 
     36 N         -50.5900  -36.3900  -26.0700 N.am      2 ALA2        0.0000 
     37 N         -54.3000  -32.1600  -28.6200 N.am      2 ALA2        0.0000 
     38 N         -53.2700  -33.2000  -28.3400 N.am      2 ALA2        0.0000 
     39 N         -54.9100  -31.0700  -30.3400 N.am      2 ALA2        0.0000 
     40 N         -52.8400  -33.1700  -29.7800 N.am      2 ALA2        0.0000 
     41 N         -51.8000  -34.2100  -29.5000 N.am      2 ALA2        0.0000 
     42 N         -50.3400  -35.2200  -30.6600 N.am      2 ALA2        0.0000 
     43 OD1       -51.8400  -32.0900  -29.4500 O.co2     3 ASP3        0.0000 
     44 OD1       -50.8100  -33.1400  -29.1700 O.co2     3 ASP3        0.0000 
     45 OD1       -50.3800  -33.1000  -30.6100 O.co2     3 ASP3        0.0000 
     46 NZ        -60.1800  -35.4700  -27.3200 N.4       4 LYS4        0.0000 
     47 NZ        -59.1800  -34.4000  -27.0000 N.4       4 LYS4        0.0000 
     48 NZ        -58.1500  -35.4500  -26.7200 N.4       4 LYS4        0.0000 
     49 NZ        -57.1100  -36.5000  -26.4400 N.4       4 LYS4        0.0000 
     50 NZ        -56.0800  -37.5500  -26.1600 N.4       4 LYS4        0.0000 
     51 NZ        -56.6900  -36.4600  -27.8800 N.4       4 LYS4        0.0000 
     52 NZ        -57.1500  -34.3800  -26.4000 N.4       4 LYS4        0.0000 
     53 NZ        -56.1200  -35.4300  -26.1200 N.4       4 LYS4        0.0000 
     54 CZ        -58.7200  -36.4800  -28.4800 C.ar      5 PHE5        0.0000 
     55 CZ        -57.6800  -37.5300  -28.2000 C.ar      5 PHE5        0.0000 
     56 CZ        -56.6500  -38.5800  -27.9300 C.ar      5 PHE5        0.0000 
     57 CZ        -60.2200  -33.3500  -27.2800 C.ar      5 PHE5        0.0000 
     58 CZ        -58.7600  -34.3600  -28.4400 C.ar      5 PHE5        0.0000 
     59 CZ        -57.7200  -35.4100  -28.1600 C.ar      5 PHE5        0.0000 
     60 CZ        -55.6500  -37.5100  -27.6000 C.ar      5 PHE5        0.0000 
     61 CZ        -54.6100  -38.5600  -27.3200 C.ar      5 PHE5        0.0000 
     62 CZ        -57.3000  -35.3700  -29.6000 C.ar      5 PHE5        0.0000 
     63 CZ        -56.2600  -36.4200  -29.3200 C.ar      5 PHE5        0.0000 
     64 CZ        -55.2200  -37.4700  -29.0400 C.ar      5 PHE5        0.0000 
     65 CZ        -55.8300  -36.3800  -30.7500 C.ar      5 PHE5        0.0000 
     66 CZ        -58.1900  -33.3300  -26.6700 C.ar      5 PHE5        0.0000 
     67 CZ        -59.4100  -31.1500  -30.1100 C.ar      5 PHE5        0.0000 
     68 CZ        -58.3700  -32.2000  -29.8300 C.ar      5 PHE5        0.0000 
     69 CZ        -57.3300  -33.2500  -29.5500 C.ar      5 PHE5        0.0000 
     70 CZ        -54.2300  -36.4000  -28.7100 C.ar      5 PHE5        0.0000 
     71 CZ        -58.9800  -31.1200  -31.5400 C.ar      5 PHE5        0.0000 
     72 CZ        -56.1500  -33.3100  -26.0700 C.ar      5 PHE5        0.0000 
     73 CZ        -55.1200  -34.3500  -25.7900 C.ar      5 PHE5        0.0000 
     74 CZ        -56.7600  -32.2200  -27.7900 C.ar      5 PHE5        0.0000 
     75 CZ        -55.7300  -33.2700  -27.5100 C.ar      5 PHE5        0.0000 
     76 CZ        -54.1200  -33.2800  -25.4700 C.ar      5 PHE5        0.0000 
     77 CZ        -53.0800  -34.3300  -25.1900 C.ar      5 PHE5        0.0000 
     78 CZ        -55.7700  -31.1500  -27.4600 C.ar      5 PHE5        0.0000 
     79 CZ        -54.7300  -32.2000  -27.1800 C.ar      5 PHE5        0.0000 
     80 CZ        -56.3700  -30.0600  -29.1800 C.ar      5 PHE5        0.0000 
     81 CZ        -55.3400  -31.1100  -28.9000 C.ar      5 PHE5        0.0000 
     82 CZ        -55.9500  -30.0200  -30.6100 C.ar      5 PHE5        0.0000 
     83 CZ        -53.1200  -32.2100  -25.1400 C.ar      5 PHE5        0.0000 
     84 CZ        -53.7300  -31.1200  -26.8600 C.ar      5 PHE5        0.0000 
     85 CZ        -53.3100  -31.0800  -28.2900 C.ar      5 PHE5        0.0000 
     86 CZ        -52.8800  -31.0500  -29.7300 C.ar      5 PHE5        0.0000 
     87 CZ        -52.3100  -30.0100  -27.9700 C.ar      5 PHE5        0.0000 
     88 CA        -61.6400  -34.4600  -26.1700 C.3       6 GLY6        0.0000 
     89 CA        -51.1600  -37.4200  -27.8300 C.3       6 GLY6        0.0000 
     90 CA        -50.7300  -37.3800  -29.2700 C.3       6 GLY6        0.0000 
     91 CA        -51.2000  -35.3000  -27.7800 C.3       6 GLY6        0.0000 
     92 CA        -50.7700  -35.2600  -29.2200 C.3       6 GLY6        0.0000 
     93 CA        -49.3100  -36.2700  -30.3800 C.3       6 GLY6        0.0000 
     94 CA        -52.0900  -33.2600  -24.8600 C.3       6 GLY6        0.0000 
     95 CA        -52.7000  -32.1700  -26.5800 C.3       6 GLY6        0.0000 
     96 CA        -51.6600  -33.2200  -26.3000 C.3       6 GLY6        0.0000 
     97 CA        -48.9200  -34.1100  -31.7700 C.3       6 GLY6        0.0000 
     98 CA        -52.7300  -30.0500  -26.5300 C.3       6 GLY6        0.0000 
     99 CA        -51.7000  -31.1000  -26.2500 C.3       6 GLY6        0.0000 
    100 CA        -51.2700  -31.0600  -27.6900 C.3       6 GLY6        0.0000 
    101 DU        -57.7600  -33.2900  -28.1100 H         7 CUB7        0.0000 
    102 DU        -56.7200  -34.3400  -27.8300 H         7 CUB7        0.0000 
    103 DU        -55.6900  -35.3900  -27.5500 H         7 CUB7        0.0000 
    104 DU        -55.2600  -35.3500  -28.9900 H         7 CUB7        0.0000 
    105 DU        -54.6900  -34.3200  -27.2300 H         7 CUB7        0.0000 
    106 DU        -52.1900  -36.3700  -28.1100 H         7 CUB7        0.0000 
    107 DU        -53.6900  -33.2400  -26.9000 H         7 CUB7        0.0000 
    108 DU        -52.6600  -34.2900  -26.6200 H         7 CUB7        0.0000 
    109 DU        -52.2300  -34.2500  -28.0600 H         7 CUB7        0.0000 
    110 DU        -52.2700  -32.1300  -28.0200 H         7 CUB7        0.0000 
@<TRIPOS>BOND
@<TRIPOS>SUBSTRUCTURE
     1 SER1        1 GROUP   
     2 ALA2       15 GROUP   
     3 ASP3       43 GROUP   
     4 LYS4       46 GROUP   
     5 PHE5       54 GROUP   
     6 GLY6       88 GROUP   
     7 CUB7      101 GROUP   
@<TRIPOS>SET

