#    Name: 5oal_12_SY9_CAVITY_N1_4
#    Modification time : Fri May 22 19:14:43 2020

@<TRIPOS>MOLECULE
5oal_12_SY9_CAVITY_N1_4
  138     0     7     0     0
SMALL
NO_CHARGES


@<TRIPOS>ATOM
      1 OG        -17.0900    2.9600   -2.5300 O.3       1 SER1        0.0000 
      2 OG        -16.6700    3.0000   -3.9700 O.3       1 SER1        0.0000 
      3 OG        -15.8100    3.0800   -6.8400 O.3       1 SER1        0.0000 
      4 OG        -16.5200    4.0000   -0.7700 O.3       1 SER1        0.0000 
      5 OG        -16.1000    4.0400   -2.2100 O.3       1 SER1        0.0000 
      6 OG        -15.6700    4.0700   -3.6400 O.3       1 SER1        0.0000 
      7 OG        -15.2400    4.1100   -5.0800 O.3       1 SER1        0.0000 
      8 OG        -15.8500    5.2000   -6.8000 O.3       1 SER1        0.0000 
      9 OG        -14.8200    4.1500   -6.5200 O.3       1 SER1        0.0000 
     10 OG        -13.7800    3.1000   -6.2400 O.3       1 SER1        0.0000 
     11 OG        -15.1000    5.1100   -1.8800 O.3       1 SER1        0.0000 
     12 OG        -14.6700    5.1500   -3.3200 O.3       1 SER1        0.0000 
     13 OG        -14.2500    5.1900   -4.7600 O.3       1 SER1        0.0000 
     14 OG        -12.7800    4.1800   -5.9100 O.3       1 SER1        0.0000 
     15 OG        -17.2500   11.4500   -2.3500 O.3       1 SER1        0.0000 
     16 OG        -16.6800   12.4800   -0.5800 O.3       1 SER1        0.0000 
     17 OG        -16.2500   12.5200   -2.0200 O.3       1 SER1        0.0000 
     18 OG        -15.8200   12.5600   -3.4600 O.3       1 SER1        0.0000 
     19 OG        -13.6100   11.4500    0.3000 O.3       1 SER1        0.0000 
     20 OG        -12.5700   10.4100    0.5800 O.3       1 SER1        0.0000 
     21 OG        -15.2500   13.5900   -1.7000 O.3       1 SER1        0.0000 
     22 OG        -13.1800   11.4900   -1.1400 O.3       1 SER1        0.0000 
     23 OG        -14.8300   13.6300   -3.1300 O.3       1 SER1        0.0000 
     24 OG        -13.2200   13.6100   -1.0900 O.3       1 SER1        0.0000 
     25 OG        -12.1800   12.5600   -0.8100 O.3       1 SER1        0.0000 
     26 N         -16.5600    6.1200   -0.7200 N.am      2 ALA2        0.0000 
     27 N         -18.2100    8.2500   -2.7200 N.am      2 ALA2        0.0000 
     28 N         -17.1700    7.2000   -2.4400 N.am      2 ALA2        0.0000 
     29 N         -16.6000    8.2400   -0.6800 N.am      2 ALA2        0.0000 
     30 N         -17.2100    9.3300   -2.3900 N.am      2 ALA2        0.0000 
     31 N         -16.1700    8.2800   -2.1100 N.am      2 ALA2        0.0000 
     32 N         -16.0300    9.2700    1.0900 N.am      2 ALA2        0.0000 
     33 N         -16.6400   10.3600   -0.6300 N.am      2 ALA2        0.0000 
     34 N         -15.6000    9.3100   -0.3500 N.am      2 ALA2        0.0000 
     35 N         -16.2100   10.4000   -2.0700 N.am      2 ALA2        0.0000 
     36 N         -14.5100   10.5500   -7.8200 N.am      2 ALA2        0.0000 
     37 N         -16.0700   11.3900    1.1300 N.am      2 ALA2        0.0000 
     38 N         -14.3600   11.5500   -4.6200 N.am      2 ALA2        0.0000 
     39 N         -13.3300   10.5000   -4.3400 N.am      2 ALA2        0.0000 
     40 N         -13.9300   11.5900   -6.0500 N.am      2 ALA2        0.0000 
     41 N         -12.9000   10.5400   -5.7700 N.am      2 ALA2        0.0000 
     42 N         -13.7900   12.5800   -2.8500 N.am      2 ALA2        0.0000 
     43 N         -12.7500   11.5300   -2.5700 N.am      2 ALA2        0.0000 
     44 N         -14.4000   13.6700   -4.5700 N.am      2 ALA2        0.0000 
     45 N         -12.7900   13.6500   -2.5300 N.am      2 ALA2        0.0000 
     46 N         -11.7600   12.6000   -2.2500 N.am      2 ALA2        0.0000 
     47 OD1       -15.0300   10.3400    1.4100 O.co2     3 ASP3        0.0000 
     48 OD1       -14.0000    9.2900    1.6900 O.co2     3 ASP3        0.0000 
     49 OD1       -14.0300   11.4100    1.7400 O.co2     3 ASP3        0.0000 
     50 NZ        -14.8600    6.2700   -6.4700 N.4       4 LYS4        0.0000 
     51 NZ        -13.8200    5.2300   -6.1900 N.4       4 LYS4        0.0000 
     52 NZ        -14.8900    8.3900   -6.4300 N.4       4 LYS4        0.0000 
     53 NZ        -13.8600    7.3500   -6.1500 N.4       4 LYS4        0.0000 
     54 NZ        -12.8200    6.3000   -5.8700 N.4       4 LYS4        0.0000 
     55 NZ        -15.5000    9.4800   -8.1400 N.4       4 LYS4        0.0000 
     56 NZ        -13.9000    9.4700   -6.1000 N.4       4 LYS4        0.0000 
     57 NZ        -12.8600    8.4200   -5.8200 N.4       4 LYS4        0.0000 
     58 CZ        -18.1300    4.0100   -2.8100 C.ar      5 PHE5        0.0000 
     59 CZ        -17.7000    4.0500   -4.2500 C.ar      5 PHE5        0.0000 
     60 CZ        -16.2400    3.0400   -5.4100 C.ar      5 PHE5        0.0000 
     61 CZ        -18.1700    6.1300   -2.7600 C.ar      5 PHE5        0.0000 
     62 CZ        -17.1300    5.0800   -2.4800 C.ar      5 PHE5        0.0000 
     63 CZ        -16.7100    5.1200   -3.9200 C.ar      5 PHE5        0.0000 
     64 CZ        -16.2800    5.1600   -5.3600 C.ar      5 PHE5        0.0000 
     65 CZ        -15.5300    5.0700   -0.4400 C.ar      5 PHE5        0.0000 
     66 CZ        -17.7800    8.2900   -4.1500 C.ar      5 PHE5        0.0000 
     67 CZ        -16.7400    7.2400   -3.8800 C.ar      5 PHE5        0.0000 
     68 CZ        -17.3500    8.3300   -5.5900 C.ar      5 PHE5        0.0000 
     69 CZ        -16.3200    7.2800   -5.3100 C.ar      5 PHE5        0.0000 
     70 CZ        -16.9300    8.3700   -7.0300 C.ar      5 PHE5        0.0000 
     71 CZ        -15.8900    7.3200   -6.7500 C.ar      5 PHE5        0.0000 
     72 CZ        -15.9900    7.1500    1.0400 C.ar      5 PHE5        0.0000 
     73 CZ        -14.5300    6.1400   -0.1200 C.ar      5 PHE5        0.0000 
     74 CZ        -14.1000    6.1800   -1.5500 C.ar      5 PHE5        0.0000 
     75 CZ        -13.0700    5.1300   -1.2800 C.ar      5 PHE5        0.0000 
     76 CZ        -16.7800    9.3600   -3.8300 C.ar      5 PHE5        0.0000 
     77 CZ        -13.6800    6.2200   -2.9900 C.ar      5 PHE5        0.0000 
     78 CZ        -16.3600    9.4000   -5.2700 C.ar      5 PHE5        0.0000 
     79 CZ        -13.2500    6.2600   -4.4300 C.ar      5 PHE5        0.0000 
     80 CZ        -15.9300    9.4400   -6.7000 C.ar      5 PHE5        0.0000 
     81 CZ        -14.9900    8.2200    1.3700 C.ar      5 PHE5        0.0000 
     82 CZ        -13.5300    7.2100    0.2100 C.ar      5 PHE5        0.0000 
     83 CZ        -12.5000    6.1600    0.4900 C.ar      5 PHE5        0.0000 
     84 CZ        -13.1000    7.2500   -1.2300 C.ar      5 PHE5        0.0000 
     85 CZ        -15.7900   10.4400   -3.5000 C.ar      5 PHE5        0.0000 
     86 CZ        -12.6800    7.2900   -2.6700 C.ar      5 PHE5        0.0000 
     87 CZ        -15.3600   10.4800   -4.9400 C.ar      5 PHE5        0.0000 
     88 CZ        -12.2500    7.3300   -4.1000 C.ar      5 PHE5        0.0000 
     89 CZ        -14.9300   10.5100   -6.3800 C.ar      5 PHE5        0.0000 
     90 CZ        -12.9600    8.2500    1.9700 C.ar      5 PHE5        0.0000 
     91 CZ        -11.5000    7.2400    0.8100 C.ar      5 PHE5        0.0000 
     92 CZ        -12.1100    8.3200   -0.9000 C.ar      5 PHE5        0.0000 
     93 CZ        -11.6800    8.3600   -2.3400 C.ar      5 PHE5        0.0000 
     94 CZ        -15.4000   12.6000   -4.9000 C.ar      5 PHE5        0.0000 
     95 CZ        -12.2900    9.4500   -4.0600 C.ar      5 PHE5        0.0000 
     96 CZ        -11.2500    8.4000   -3.7800 C.ar      5 PHE5        0.0000 
     97 CZ        -11.8600    9.4900   -5.5000 C.ar      5 PHE5        0.0000 
     98 CZ        -10.6800    9.4400   -2.0200 C.ar      5 PHE5        0.0000 
     99 CZ        -11.2900   10.5200   -3.7300 C.ar      5 PHE5        0.0000 
    100 CA        -14.3900    4.1900   -7.9600 C.3       6 GLY6        0.0000 
    101 CA        -15.0700   12.4600    1.4600 C.3       6 GLY6        0.0000 
    102 CA        -13.0000   10.3700    2.0200 C.3       6 GLY6        0.0000 
    103 CA        -11.9600    9.3200    2.3000 C.3       6 GLY6        0.0000 
    104 CA        -14.6400   12.5000    0.0200 C.3       6 GLY6        0.0000 
    105 CA        -11.5400    9.3600    0.8600 C.3       6 GLY6        0.0000 
    106 CA        -12.1500   10.4400   -0.8600 C.3       6 GLY6        0.0000 
    107 CA        -11.1100    9.4000   -0.5800 C.3       6 GLY6        0.0000 
    108 CA        -10.0700    8.3500   -0.3000 C.3       6 GLY6        0.0000 
    109 CA        -11.7200   10.4800   -2.3000 C.3       6 GLY6        0.0000 
    110 CA        -15.4400   14.7200   -4.8500 C.3       6 GLY6        0.0000 
    111 CA        -13.8300   14.7000   -2.8100 C.3       6 GLY6        0.0000 
    112 CA        -10.7200   11.5600   -1.9700 C.3       6 GLY6        0.0000 
    113 DU        -16.1400    6.1600   -2.1600 H         7 CUB7        0.0000 
    114 DU        -15.7100    6.2000   -3.6000 H         7 CUB7        0.0000 
    115 DU        -15.2800    6.2300   -5.0300 H         7 CUB7        0.0000 
    116 DU        -15.5600    7.1900   -0.4000 H         7 CUB7        0.0000 
    117 DU        -15.1400    7.2300   -1.8300 H         7 CUB7        0.0000 
    118 DU        -15.7500    8.3200   -3.5500 H         7 CUB7        0.0000 
    119 DU        -14.7100    7.2700   -3.2700 H         7 CUB7        0.0000 
    120 DU        -15.3200    8.3500   -4.9900 H         7 CUB7        0.0000 
    121 DU        -14.2800    7.3100   -4.7100 H         7 CUB7        0.0000 
    122 DU        -14.5700    8.2600   -0.0700 H         7 CUB7        0.0000 
    123 DU        -15.1800    9.3500   -1.7900 H         7 CUB7        0.0000 
    124 DU        -14.1400    8.3000   -1.5100 H         7 CUB7        0.0000 
    125 DU        -13.7100    8.3400   -2.9500 H         7 CUB7        0.0000 
    126 DU        -14.3200    9.4300   -4.6600 H         7 CUB7        0.0000 
    127 DU        -13.2900    8.3800   -4.3800 H         7 CUB7        0.0000 
    128 DU        -15.6400   11.4300   -0.3000 H         7 CUB7        0.0000 
    129 DU        -14.6100   10.3800   -0.0200 H         7 CUB7        0.0000 
    130 DU        -13.5700    9.3300    0.2500 H         7 CUB7        0.0000 
    131 DU        -12.5300    8.2800    0.5300 H         7 CUB7        0.0000 
    132 DU        -15.2100   11.4700   -1.7400 H         7 CUB7        0.0000 
    133 DU        -14.1800   10.4200   -1.4600 H         7 CUB7        0.0000 
    134 DU        -13.1400    9.3700   -1.1800 H         7 CUB7        0.0000 
    135 DU        -14.7900   11.5100   -3.1800 H         7 CUB7        0.0000 
    136 DU        -13.7500   10.4600   -2.9000 H         7 CUB7        0.0000 
    137 DU        -12.7200    9.4100   -2.6200 H         7 CUB7        0.0000 
    138 DU        -14.2200   12.5400   -1.4200 H         7 CUB7        0.0000 
@<TRIPOS>BOND
@<TRIPOS>SUBSTRUCTURE
     1 SER1        1 GROUP   
     2 ALA2       26 GROUP   
     3 ASP3       47 GROUP   
     4 LYS4       50 GROUP   
     5 PHE5       58 GROUP   
     6 GLY6      100 GROUP   
     7 CUB7      113 GROUP   
@<TRIPOS>SET

