#    Name: 5oal_5_SY9_CAVITY_N1_8
#    Modification time : Fri May 22 19:13:49 2020

@<TRIPOS>MOLECULE
5oal_5_SY9_CAVITY_N1_8
  191     0     7     0     0
SMALL
NO_CHARGES


@<TRIPOS>ATOM
      1 OG        -34.1600  -26.3800   15.0800 O.3       1 SER1        0.0000 
      2 OG        -33.1300  -27.4300   15.3600 O.3       1 SER1        0.0000 
      3 OG        -35.4800  -24.3800   19.4400 O.3       1 SER1        0.0000 
      4 OG        -35.0500  -24.3400   18.0000 O.3       1 SER1        0.0000 
      5 OG        -34.6300  -24.3000   16.5700 O.3       1 SER1        0.0000 
      6 OG        -33.5900  -25.3500   16.8500 O.3       1 SER1        0.0000 
      7 OG        -39.0500  -19.1500   20.0900 O.3       1 SER1        0.0000 
      8 OG        -38.4800  -18.1200   21.8500 O.3       1 SER1        0.0000 
      9 OG        -38.0500  -18.0800   20.4100 O.3       1 SER1        0.0000 
     10 OG        -37.6300  -18.0400   18.9800 O.3       1 SER1        0.0000 
     11 OG        -38.2400  -16.9500   17.2600 O.3       1 SER1        0.0000 
     12 OG        -37.4800  -17.0400   22.1800 O.3       1 SER1        0.0000 
     13 OG        -38.0900  -15.9600   20.4600 O.3       1 SER1        0.0000 
     14 OG        -37.6700  -15.9200   19.0200 O.3       1 SER1        0.0000 
     15 OG        -37.2400  -15.8800   17.5900 O.3       1 SER1        0.0000 
     16 OG        -36.2000  -16.9300   17.8600 O.3       1 SER1        0.0000 
     17 OG        -32.0600  -21.1200   18.9800 O.3       1 SER1        0.0000 
     18 OG        -31.0200  -22.1700   19.2600 O.3       1 SER1        0.0000 
     19 OG        -29.9900  -23.2200   19.5400 O.3       1 SER1        0.0000 
     20 OG        -36.8100  -15.8400   16.1500 O.3       1 SER1        0.0000 
     21 OG        -35.7800  -16.8900   16.4300 O.3       1 SER1        0.0000 
     22 OG        -31.6300  -21.0800   17.5400 O.3       1 SER1        0.0000 
     23 OG        -30.6000  -22.1300   17.8200 O.3       1 SER1        0.0000 
     24 OG        -29.5600  -23.1800   18.1000 O.3       1 SER1        0.0000 
     25 OG        -37.5200  -14.9200   22.2200 O.3       1 SER1        0.0000 
     26 OG        -37.7000  -13.8000   19.0700 O.3       1 SER1        0.0000 
     27 OG        -29.4200  -22.1800   21.3000 O.3       1 SER1        0.0000 
     28 OG        -34.7800  -15.8200   16.7500 O.3       1 SER1        0.0000 
     29 N         -35.2400  -23.2100   14.8500 N.am      2 ALA2        0.0000 
     30 N         -34.2000  -24.2600   15.1300 N.am      2 ALA2        0.0000 
     31 N         -33.1600  -25.3100   15.4100 N.am      2 ALA2        0.0000 
     32 N         -34.6600  -22.1800   16.6100 N.am      2 ALA2        0.0000 
     33 N         -33.6300  -23.2300   16.8900 N.am      2 ALA2        0.0000 
     34 N         -35.2700  -21.0900   14.9000 N.am      2 ALA2        0.0000 
     35 N         -34.2400  -22.1400   15.1800 N.am      2 ALA2        0.0000 
     36 N         -33.2000  -23.1900   15.4500 N.am      2 ALA2        0.0000 
     37 N         -32.1700  -24.2300   15.7300 N.am      2 ALA2        0.0000 
     38 N         -34.2800  -20.0200   15.2200 N.am      2 ALA2        0.0000 
     39 N         -33.2400  -21.0700   15.5000 N.am      2 ALA2        0.0000 
     40 N         -32.2000  -22.1100   15.7800 N.am      2 ALA2        0.0000 
     41 N         -31.1700  -23.1600   16.0600 N.am      2 ALA2        0.0000 
     42 N         -30.1300  -24.2100   16.3400 N.am      2 ALA2        0.0000 
     43 N         -33.8500  -19.9800   13.7800 N.am      2 ALA2        0.0000 
     44 N         -34.8000  -20.2300   24.4500 N.am      2 ALA2        0.0000 
     45 N         -34.3800  -20.1900   23.0100 N.am      2 ALA2        0.0000 
     46 N         -32.9100  -21.2000   21.8600 N.am      2 ALA2        0.0000 
     47 N         -31.8800  -22.2500   22.1300 N.am      2 ALA2        0.0000 
     48 N         -29.1400  -23.1400   16.6600 N.am      2 ALA2        0.0000 
     49 N         -32.8500  -18.9100   14.1100 N.am      2 ALA2        0.0000 
     50 N         -34.8400  -18.1100   24.5000 N.am      2 ALA2        0.0000 
     51 N         -34.4200  -18.0700   23.0600 N.am      2 ALA2        0.0000 
     52 N         -32.9500  -19.0800   21.9000 N.am      2 ALA2        0.0000 
     53 N         -31.4900  -20.0900   20.7400 N.am      2 ALA2        0.0000 
     54 N         -31.4300  -17.7900   13.0000 N.am      2 ALA2        0.0000 
     55 N         -33.4200  -17.0000   23.3900 N.am      2 ALA2        0.0000 
     56 N         -31.9600  -18.0100   22.2300 N.am      2 ALA2        0.0000 
     57 OD1       -34.9100  -23.3400   21.2000 O.co2     3 ASP3        0.0000 
     58 OD1       -35.3700  -21.2600   22.6900 O.co2     3 ASP3        0.0000 
     59 OD1       -34.3400  -22.3100   22.9700 O.co2     3 ASP3        0.0000 
     60 OD1       -33.9100  -22.2700   21.5300 O.co2     3 ASP3        0.0000 
     61 OD1       -32.8800  -23.3200   21.8100 O.co2     3 ASP3        0.0000 
     62 OD1       -31.8400  -24.3700   22.0900 O.co2     3 ASP3        0.0000 
     63 OD1       -32.3100  -22.2900   23.5700 O.co2     3 ASP3        0.0000 
     64 OD1       -28.1000  -24.1900   16.9400 O.co2     3 ASP3        0.0000 
     65 OD1       -27.0600  -25.2400   17.2200 O.co2     3 ASP3        0.0000 
     66 OD1       -27.1000  -23.1200   17.2700 O.co2     3 ASP3        0.0000 
     67 NZ        -36.3100  -20.0400   14.6200 N.4       4 LYS4        0.0000 
     68 NZ        -37.8100  -16.9100   15.8200 N.4       4 LYS4        0.0000 
     69 NZ        -36.7700  -17.9600   16.1000 N.4       4 LYS4        0.0000 
     70 NZ        -35.3100  -18.9700   14.9400 N.4       4 LYS4        0.0000 
     71 NZ        -36.8800  -18.1300   23.8900 N.4       4 LYS4        0.0000 
     72 NZ        -35.3500  -16.8500   14.9900 N.4       4 LYS4        0.0000 
     73 NZ        -34.3100  -17.9000   15.2700 N.4       4 LYS4        0.0000 
     74 NZ        -33.8900  -17.8600   13.8300 N.4       4 LYS4        0.0000 
     75 NZ        -27.9600  -23.1900   20.1400 N.4       4 LYS4        0.0000 
     76 NZ        -27.5300  -23.1500   18.7100 N.4       4 LYS4        0.0000 
     77 NZ        -34.3500  -15.7800   15.3100 N.4       4 LYS4        0.0000 
     78 CZ        -37.7000  -23.2700   15.6800 C.ar      5 PHE5        0.0000 
     79 CZ        -39.0100  -21.2700   20.0400 C.ar      5 PHE5        0.0000 
     80 CZ        -37.9800  -22.3200   20.3200 C.ar      5 PHE5        0.0000 
     81 CZ        -36.9400  -23.3700   20.6000 C.ar      5 PHE5        0.0000 
     82 CZ        -37.5500  -22.2800   18.8800 C.ar      5 PHE5        0.0000 
     83 CZ        -37.1200  -22.2400   17.4500 C.ar      5 PHE5        0.0000 
     84 CZ        -37.7300  -21.1500   15.7300 C.ar      5 PHE5        0.0000 
     85 CZ        -36.7000  -22.2000   16.0100 C.ar      5 PHE5        0.0000 
     86 CZ        -36.2700  -22.1600   14.5700 C.ar      5 PHE5        0.0000 
     87 CZ        -36.3700  -22.3300   22.3600 C.ar      5 PHE5        0.0000 
     88 CZ        -38.0200  -20.2000   20.3700 C.ar      5 PHE5        0.0000 
     89 CZ        -36.9800  -21.2500   20.6500 C.ar      5 PHE5        0.0000 
     90 CZ        -35.9400  -22.2900   20.9300 C.ar      5 PHE5        0.0000 
     91 CZ        -38.6300  -19.1100   18.6500 C.ar      5 PHE5        0.0000 
     92 CZ        -37.5900  -20.1600   18.9300 C.ar      5 PHE5        0.0000 
     93 CZ        -38.2000  -19.0700   17.2100 C.ar      5 PHE5        0.0000 
     94 CZ        -37.1600  -20.1200   17.4900 C.ar      5 PHE5        0.0000 
     95 CZ        -37.7700  -19.0300   15.7800 C.ar      5 PHE5        0.0000 
     96 CZ        -36.7400  -20.0800   16.0600 C.ar      5 PHE5        0.0000 
     97 CZ        -37.4500  -19.1600   22.1300 C.ar      5 PHE5        0.0000 
     98 CZ        -36.4100  -20.2100   22.4100 C.ar      5 PHE5        0.0000 
     99 CZ        -37.2000  -18.0000   17.5400 C.ar      5 PHE5        0.0000 
    100 CZ        -37.0600  -17.0000   20.7400 C.ar      5 PHE5        0.0000 
    101 CZ        -36.6300  -16.9700   19.3000 C.ar      5 PHE5        0.0000 
    102 CZ        -32.6700  -20.0300   17.2600 C.ar      5 PHE5        0.0000 
    103 CZ        -33.2800  -18.9500   15.5500 C.ar      5 PHE5        0.0000 
    104 CZ        -32.2400  -19.9900   15.8300 C.ar      5 PHE5        0.0000 
    105 CZ        -31.2100  -21.0400   16.1100 C.ar      5 PHE5        0.0000 
    106 CZ        -30.1700  -22.0900   16.3800 C.ar      5 PHE5        0.0000 
    107 CZ        -31.8200  -19.9500   14.3900 C.ar      5 PHE5        0.0000 
    108 CZ        -36.4900  -15.9700   22.5000 C.ar      5 PHE5        0.0000 
    109 CZ        -35.4500  -17.0200   22.7800 C.ar      5 PHE5        0.0000 
    110 CZ        -35.0200  -16.9800   21.3400 C.ar      5 PHE5        0.0000 
    111 CZ        -33.9900  -18.0300   21.6200 C.ar      5 PHE5        0.0000 
    112 CZ        -34.6000  -16.9400   19.9100 C.ar      5 PHE5        0.0000 
    113 CZ        -33.5600  -17.9900   20.1900 C.ar      5 PHE5        0.0000 
    114 CZ        -34.1700  -16.9000   18.4700 C.ar      5 PHE5        0.0000 
    115 CZ        -33.1300  -17.9500   18.7500 C.ar      5 PHE5        0.0000 
    116 CZ        -32.1000  -19.0000   19.0300 C.ar      5 PHE5        0.0000 
    117 CZ        -33.7400  -16.8600   17.0300 C.ar      5 PHE5        0.0000 
    118 CZ        -32.7100  -17.9100   17.3100 C.ar      5 PHE5        0.0000 
    119 CZ        -31.6700  -18.9600   17.5900 C.ar      5 PHE5        0.0000 
    120 CZ        -32.2800  -17.8700   15.8700 C.ar      5 PHE5        0.0000 
    121 CZ        -34.8800  -15.9900   24.5400 C.ar      5 PHE5        0.0000 
    122 CZ        -32.9900  -16.9600   21.9500 C.ar      5 PHE5        0.0000 
    123 CZ        -31.5300  -17.9700   20.7900 C.ar      5 PHE5        0.0000 
    124 CZ        -32.1400  -16.8800   19.0700 C.ar      5 PHE5        0.0000 
    125 CA        -38.5500  -23.3500   18.5600 C.3       6 GLY6        0.0000 
    126 CA        -37.5100  -24.4000   18.8400 C.3       6 GLY6        0.0000 
    127 CA        -38.1200  -23.3100   17.1200 C.3       6 GLY6        0.0000 
    128 CA        -36.6600  -24.3200   15.9600 C.3       6 GLY6        0.0000 
    129 CA        -35.9100  -24.4100   20.8800 C.3       6 GLY6        0.0000 
    130 CA        -36.5200  -23.3300   19.1600 C.3       6 GLY6        0.0000 
    131 CA        -36.0900  -23.2900   17.7300 C.3       6 GLY6        0.0000 
    132 CA        -35.6600  -23.2500   16.2900 C.3       6 GLY6        0.0000 
    133 CA        -32.5500  -26.3900   17.1300 C.3       6 GLY6        0.0000 
    134 CA        -32.1300  -26.3600   15.6900 C.3       6 GLY6        0.0000 
    135 CA        -33.4500  -24.3500   20.0500 C.3       6 GLY6        0.0000 
    136 CA        -33.0200  -24.3100   18.6100 C.3       6 GLY6        0.0000 
    137 CA        -31.5600  -25.3200   17.4500 C.3       6 GLY6        0.0000 
    138 CA        -30.5200  -26.3700   17.7300 C.3       6 GLY6        0.0000 
    139 CA        -31.1300  -25.2800   16.0100 C.3       6 GLY6        0.0000 
    140 CA        -32.4500  -23.2800   20.3700 C.3       6 GLY6        0.0000 
    141 CA        -31.4100  -24.3300   20.6500 C.3       6 GLY6        0.0000 
    142 CA        -30.9900  -24.2900   19.2100 C.3       6 GLY6        0.0000 
    143 CA        -29.5200  -25.3000   18.0500 C.3       6 GLY6        0.0000 
    144 CA        -28.4900  -26.3500   18.3300 C.3       6 GLY6        0.0000 
    145 CA        -29.1000  -25.2600   16.6200 C.3       6 GLY6        0.0000 
    146 CA        -29.3800  -24.3000   21.2500 C.3       6 GLY6        0.0000 
    147 CA        -28.9500  -24.2700   19.8200 C.3       6 GLY6        0.0000 
    148 CA        -27.9200  -25.3100   20.1000 C.3       6 GLY6        0.0000 
    149 CA        -27.4900  -25.2700   18.6600 C.3       6 GLY6        0.0000 
    150 CA        -33.3200  -16.8200   15.5900 C.3       6 GLY6        0.0000 
    151 CA        -32.8900  -16.7900   14.1600 C.3       6 GLY6        0.0000 
    152 CA        -32.4600  -16.7500   12.7200 C.3       6 GLY6        0.0000 
    153 CA        -30.4900  -19.0200   21.0700 C.3       6 GLY6        0.0000 
    154 DU        -36.5500  -21.2100   19.2100 H         7 CUB7        0.0000 
    155 DU        -34.4800  -23.3000   19.7700 H         7 CUB7        0.0000 
    156 DU        -36.1300  -21.1700   17.7700 H         7 CUB7        0.0000 
    157 DU        -35.0900  -22.2200   18.0500 H         7 CUB7        0.0000 
    158 DU        -34.0600  -23.2600   18.3300 H         7 CUB7        0.0000 
    159 DU        -35.7000  -21.1300   16.3300 H         7 CUB7        0.0000 
    160 DU        -32.5900  -24.2700   17.1700 H         7 CUB7        0.0000 
    161 DU        -37.0200  -19.1300   20.6900 H         7 CUB7        0.0000 
    162 DU        -35.9800  -20.1700   20.9700 H         7 CUB7        0.0000 
    163 DU        -34.9500  -21.2200   21.2500 H         7 CUB7        0.0000 
    164 DU        -36.5900  -19.0900   19.2600 H         7 CUB7        0.0000 
    165 DU        -33.4800  -22.2300   20.0900 H         7 CUB7        0.0000 
    166 DU        -36.1700  -19.0500   17.8200 H         7 CUB7        0.0000 
    167 DU        -33.0600  -22.1900   18.6600 H         7 CUB7        0.0000 
    168 DU        -32.0200  -23.2400   18.9300 H         7 CUB7        0.0000 
    169 DU        -35.7400  -19.0100   16.3800 H         7 CUB7        0.0000 
    170 DU        -34.7000  -20.0600   16.6600 H         7 CUB7        0.0000 
    171 DU        -33.6700  -21.1000   16.9400 H         7 CUB7        0.0000 
    172 DU        -32.6300  -22.1500   17.2200 H         7 CUB7        0.0000 
    173 DU        -31.6000  -23.2000   17.5000 H         7 CUB7        0.0000 
    174 DU        -30.5600  -24.2500   17.7800 H         7 CUB7        0.0000 
    175 DU        -35.8400  -19.1800   24.1700 H         7 CUB7        0.0000 
    176 DU        -36.4500  -18.0900   22.4600 H         7 CUB7        0.0000 
    177 DU        -35.4100  -19.1400   22.7300 H         7 CUB7        0.0000 
    178 DU        -36.0200  -18.0500   21.0200 H         7 CUB7        0.0000 
    179 DU        -34.9900  -19.1000   21.3000 H         7 CUB7        0.0000 
    180 DU        -33.9500  -20.1500   21.5800 H         7 CUB7        0.0000 
    181 DU        -35.5900  -18.0100   19.5800 H         7 CUB7        0.0000 
    182 DU        -33.5200  -20.1100   20.1400 H         7 CUB7        0.0000 
    183 DU        -32.4900  -21.1600   20.4200 H         7 CUB7        0.0000 
    184 DU        -31.4500  -22.2100   20.7000 H         7 CUB7        0.0000 
    185 DU        -30.4200  -23.2600   20.9800 H         7 CUB7        0.0000 
    186 DU        -35.1700  -17.9700   18.1400 H         7 CUB7        0.0000 
    187 DU        -33.1000  -20.0700   18.7000 H         7 CUB7        0.0000 
    188 DU        -34.7400  -17.9400   16.7100 H         7 CUB7        0.0000 
    189 DU        -33.7100  -18.9800   16.9800 H         7 CUB7        0.0000 
    190 DU        -28.5300  -24.2300   18.3800 H         7 CUB7        0.0000 
    191 DU        -32.5300  -19.0400   20.4600 H         7 CUB7        0.0000 
@<TRIPOS>BOND
@<TRIPOS>SUBSTRUCTURE
     1 SER1        1 GROUP   
     2 ALA2       29 GROUP   
     3 ASP3       57 GROUP   
     4 LYS4       67 GROUP   
     5 PHE5       78 GROUP   
     6 GLY6      125 GROUP   
     7 CUB7      154 GROUP   
@<TRIPOS>SET

