#    Name: 5oal_4_SY9_CAVITY_N1_4
#    Modification time : Fri May 22 19:13:42 2020

@<TRIPOS>MOLECULE
5oal_4_SY9_CAVITY_N1_4
  140     0     7     0     0
SMALL
NO_CHARGES


@<TRIPOS>ATOM
      1 OG        -40.9800  -11.0000  -14.7000 O.3       1 SER1        0.0000 
      2 OG        -39.9500  -12.0500  -14.4200 O.3       1 SER1        0.0000 
      3 OG        -40.5500  -10.9600  -16.1400 O.3       1 SER1        0.0000 
      4 OG        -39.9800   -9.9300  -14.3700 O.3       1 SER1        0.0000 
      5 OG        -38.9500  -10.9700  -14.0900 O.3       1 SER1        0.0000 
      6 OG        -33.2000  -15.1800  -10.9400 O.3       1 SER1        0.0000 
      7 OG        -37.9500   -9.9000  -13.7700 O.3       1 SER1        0.0000 
      8 OG        -31.7400  -16.1900  -12.0900 O.3       1 SER1        0.0000 
      9 OG        -31.9200  -15.0700  -15.2500 O.3       1 SER1        0.0000 
     10 OG        -30.8800  -16.1100  -14.9700 O.3       1 SER1        0.0000 
     11 OG        -32.6300  -14.1500   -9.1700 O.3       1 SER1        0.0000 
     12 OG        -37.3800   -8.8700  -12.0100 O.3       1 SER1        0.0000 
     13 OG        -32.2000  -14.1100  -10.6100 O.3       1 SER1        0.0000 
     14 OG        -31.1600  -15.1600  -10.3300 O.3       1 SER1        0.0000 
     15 OG        -37.9900   -7.7800  -13.7200 O.3       1 SER1        0.0000 
     16 OG        -36.9500   -8.8300  -13.4400 O.3       1 SER1        0.0000 
     17 OG        -30.9200  -13.9900  -14.9200 O.3       1 SER1        0.0000 
     18 OG        -35.9600   -7.7600  -13.1200 O.3       1 SER1        0.0000 
     19 OG        -34.9600   -6.6900  -12.7900 O.3       1 SER1        0.0000 
     20 N         -36.8000  -17.3100  -13.6300 N.am      2 ALA2        0.0000 
     21 N         -36.9800  -16.1800  -16.7800 N.am      2 ALA2        0.0000 
     22 N         -36.5500  -16.1500  -18.2200 N.am      2 ALA2        0.0000 
     23 O         -35.1900  -17.3300  -11.5900 O.2       2 ALA2        0.0000 
     24 N         -35.8000  -16.2400  -13.3000 N.am      2 ALA2        0.0000 
     25 N         -35.3700  -16.2000  -14.7400 N.am      2 ALA2        0.0000 
     26 N         -33.9100  -17.2100  -15.9000 N.am      2 ALA2        0.0000 
     27 N         -33.7700  -16.2200  -12.7000 N.am      2 ALA2        0.0000 
     28 N         -32.7300  -17.2600  -12.4200 N.am      2 ALA2        0.0000 
     29 N         -33.3400  -16.1800  -14.1400 N.am      2 ALA2        0.0000 
     30 N         -32.3100  -17.2200  -13.8600 N.am      2 ALA2        0.0000 
     31 N         -31.8800  -17.1900  -15.2900 N.am      2 ALA2        0.0000 
     32 N         -34.4200  -13.0100  -14.3700 N.am      2 ALA2        0.0000 
     33 N         -34.8800  -10.9300  -12.8800 N.am      2 ALA2        0.0000 
     34 N         -33.8500  -11.9700  -12.6100 N.am      2 ALA2        0.0000 
     35 N         -32.8100  -13.0200  -12.3300 N.am      2 ALA2        0.0000 
     36 N         -34.4500  -10.8900  -14.3200 N.am      2 ALA2        0.0000 
     37 N         -33.4200  -11.9400  -14.0400 N.am      2 ALA2        0.0000 
     38 N         -32.3800  -12.9800  -13.7600 N.am      2 ALA2        0.0000 
     39 N         -31.3500  -14.0300  -13.4900 N.am      2 ALA2        0.0000 
     40 N         -31.9600  -12.9400  -15.2000 N.am      2 ALA2        0.0000 
     41 N         -33.2700  -10.9400  -10.8400 N.am      2 ALA2        0.0000 
     42 N         -33.8800   -9.8500  -12.5600 N.am      2 ALA2        0.0000 
     43 N         -30.7800  -13.0000  -11.7200 N.am      2 ALA2        0.0000 
     44 N         -30.3500  -12.9600  -13.1600 N.am      2 ALA2        0.0000 
     45 OD1       -32.6700  -12.0300   -9.1300 O.co2     3 ASP3        0.0000 
     46 OD1       -32.2400  -11.9900  -10.5600 O.co2     3 ASP3        0.0000 
     47 OD1       -29.7800  -11.9300  -11.4000 O.co2     3 ASP3        0.0000 
     48 NZ        -37.4100  -16.2200  -15.3400 N.4       4 LYS4        0.0000 
     49 NZ        -37.5900  -15.1000  -18.5000 N.4       4 LYS4        0.0000 
     50 NZ        -38.9100  -13.0900  -14.1400 N.4       4 LYS4        0.0000 
     51 NZ        -37.8700  -14.1400  -13.8600 N.4       4 LYS4        0.0000 
     52 NZ        -39.5200  -12.0100  -15.8600 N.4       4 LYS4        0.0000 
     53 NZ        -38.4800  -13.0500  -15.5800 N.4       4 LYS4        0.0000 
     54 NZ        -37.4500  -14.1000  -15.3000 N.4       4 LYS4        0.0000 
     55 NZ        -36.4100  -15.1500  -15.0200 N.4       4 LYS4        0.0000 
     56 NZ        -38.0600  -13.0200  -17.0100 N.4       4 LYS4        0.0000 
     57 NZ        -37.0200  -14.0600  -16.7400 N.4       4 LYS4        0.0000 
     58 CZ        -37.8300  -16.2600  -13.9100 C.ar      5 PHE5        0.0000 
     59 CZ        -37.6900  -15.2700  -10.7100 C.ar      5 PHE5        0.0000 
     60 CZ        -36.6600  -16.3200  -10.4300 C.ar      5 PHE5        0.0000 
     61 CZ        -38.3000  -14.1800  -12.4200 C.ar      5 PHE5        0.0000 
     62 CZ        -37.2600  -15.2300  -12.1400 C.ar      5 PHE5        0.0000 
     63 CZ        -36.2300  -16.2800  -11.8700 C.ar      5 PHE5        0.0000 
     64 CZ        -35.9800  -15.1100  -16.4600 C.ar      5 PHE5        0.0000 
     65 CZ        -34.9500  -16.1600  -16.1800 C.ar      5 PHE5        0.0000 
     66 CZ        -35.5600  -15.0700  -17.8900 C.ar      5 PHE5        0.0000 
     67 CZ        -36.6900  -14.2000  -10.3800 C.ar      5 PHE5        0.0000 
     68 CZ        -37.3000  -13.1100  -12.1000 C.ar      5 PHE5        0.0000 
     69 CZ        -36.2700  -14.1600  -11.8200 C.ar      5 PHE5        0.0000 
     70 CZ        -37.9100  -12.0200  -13.8100 C.ar      5 PHE5        0.0000 
     71 CZ        -36.8800  -13.0700  -13.5400 C.ar      5 PHE5        0.0000 
     72 CZ        -39.5600   -9.8900  -15.8100 C.ar      5 PHE5        0.0000 
     73 CZ        -38.5200  -10.9300  -15.5300 C.ar      5 PHE5        0.0000 
     74 CZ        -37.0600  -11.9400  -16.6900 C.ar      5 PHE5        0.0000 
     75 CZ        -34.9900  -14.0400  -16.1300 C.ar      5 PHE5        0.0000 
     76 CZ        -33.9500  -15.0900  -15.8500 C.ar      5 PHE5        0.0000 
     77 CZ        -32.9100  -16.1400  -15.5700 C.ar      5 PHE5        0.0000 
     78 CZ        -35.6000  -12.9500  -17.8500 C.ar      5 PHE5        0.0000 
     79 CZ        -31.4500  -17.1500  -16.7300 C.ar      5 PHE5        0.0000 
     80 CZ        -35.7000  -13.1200  -10.0600 C.ar      5 PHE5        0.0000 
     81 CZ        -37.3400  -10.9900  -12.0500 C.ar      5 PHE5        0.0000 
     82 CZ        -36.3100  -12.0400  -11.7700 C.ar      5 PHE5        0.0000 
     83 CZ        -37.5200   -9.8600  -15.2100 C.ar      5 PHE5        0.0000 
     84 CZ        -36.4900  -10.9100  -14.9300 C.ar      5 PHE5        0.0000 
     85 CZ        -36.0600  -10.8700  -16.3600 C.ar      5 PHE5        0.0000 
     86 CZ        -35.0200  -11.9200  -16.0800 C.ar      5 PHE5        0.0000 
     87 CZ        -33.9900  -12.9700  -15.8100 C.ar      5 PHE5        0.0000 
     88 CZ        -32.9500  -14.0200  -15.5300 C.ar      5 PHE5        0.0000 
     89 CZ        -35.1300  -12.0900   -8.2900 C.ar      5 PHE5        0.0000 
     90 CZ        -35.7300  -11.0000  -10.0100 C.ar      5 PHE5        0.0000 
     91 CZ        -34.7000  -12.0500   -9.7300 C.ar      5 PHE5        0.0000 
     92 CZ        -36.3400   -9.9200  -11.7300 C.ar      5 PHE5        0.0000 
     93 CZ        -35.3100  -10.9700  -11.4500 C.ar      5 PHE5        0.0000 
     94 CZ        -36.5300   -8.7900  -14.8800 C.ar      5 PHE5        0.0000 
     95 CZ        -35.4900   -9.8400  -14.6000 C.ar      5 PHE5        0.0000 
     96 CZ        -35.3500   -8.8400  -11.4000 C.ar      5 PHE5        0.0000 
     97 CZ        -34.3100   -9.8900  -11.1200 C.ar      5 PHE5        0.0000 
     98 CZ        -36.5600   -6.6700  -14.8300 C.ar      5 PHE5        0.0000 
     99 CZ        -34.3500   -7.7700  -11.0800 C.ar      5 PHE5        0.0000 
    100 CZ        -33.3100   -8.8200  -10.8000 C.ar      5 PHE5        0.0000 
    101 CA        -36.5900  -14.0300  -18.1700 C.3       6 GLY6        0.0000 
    102 CA        -36.0800  -15.2800   -8.6600 C.3       6 GLY6        0.0000 
    103 CA        -35.6600  -15.2500  -10.1000 C.3       6 GLY6        0.0000 
    104 CA        -35.2300  -15.2100  -11.5400 C.3       6 GLY6        0.0000 
    105 CA        -34.2000  -16.2500  -11.2600 C.3       6 GLY6        0.0000 
    106 CA        -36.1200  -13.1600   -8.6200 C.3       6 GLY6        0.0000 
    107 CA        -35.0900  -14.2100   -8.3400 C.3       6 GLY6        0.0000 
    108 CA        -34.6600  -14.1700   -9.7800 C.3       6 GLY6        0.0000 
    109 CA        -34.2300  -14.1300  -11.2100 C.3       6 GLY6        0.0000 
    110 CA        -30.7000  -17.2400  -11.8100 C.3       6 GLY6        0.0000 
    111 CA        -34.0900  -13.1400   -8.0100 C.3       6 GLY6        0.0000 
    112 CA        -33.6600  -13.1000   -9.4500 C.3       6 GLY6        0.0000 
    113 CA        -30.7400  -15.1200  -11.7700 C.3       6 GLY6        0.0000 
    114 CA        -30.3100  -15.0800  -13.2100 C.3       6 GLY6        0.0000 
    115 CA        -34.9200   -8.8100  -12.8400 C.3       6 GLY6        0.0000 
    116 CA        -35.5300   -7.7200  -14.5500 C.3       6 GLY6        0.0000 
    117 CA        -34.4900   -8.7700  -14.2800 C.3       6 GLY6        0.0000 
    118 CA        -33.9200   -7.7300  -12.5100 C.3       6 GLY6        0.0000 
    119 DU        -36.8400  -15.1900  -13.5800 H         7 CUB7        0.0000 
    120 DU        -35.8400  -14.1200  -13.2600 H         7 CUB7        0.0000 
    121 DU        -34.8000  -15.1700  -12.9800 H         7 CUB7        0.0000 
    122 DU        -37.4800  -11.9800  -15.2500 H         7 CUB7        0.0000 
    123 DU        -36.4500  -13.0300  -14.9700 H         7 CUB7        0.0000 
    124 DU        -35.4100  -14.0800  -14.6900 H         7 CUB7        0.0000 
    125 DU        -34.3800  -15.1300  -14.4100 H         7 CUB7        0.0000 
    126 DU        -36.0200  -12.9900  -16.4100 H         7 CUB7        0.0000 
    127 DU        -35.2700  -13.0900  -11.4900 H         7 CUB7        0.0000 
    128 DU        -36.9100  -10.9500  -13.4900 H         7 CUB7        0.0000 
    129 DU        -35.8800  -12.0000  -13.2100 H         7 CUB7        0.0000 
    130 DU        -34.8400  -13.0500  -12.9300 H         7 CUB7        0.0000 
    131 DU        -33.8100  -14.1000  -12.6500 H         7 CUB7        0.0000 
    132 DU        -32.7700  -15.1400  -12.3700 H         7 CUB7        0.0000 
    133 DU        -35.4500  -11.9600  -14.6500 H         7 CUB7        0.0000 
    134 DU        -33.3800  -14.0600  -14.0900 H         7 CUB7        0.0000 
    135 DU        -32.3400  -15.1000  -13.8100 H         7 CUB7        0.0000 
    136 DU        -31.3100  -16.1500  -13.5300 H         7 CUB7        0.0000 
    137 DU        -34.2700  -12.0100  -11.1700 H         7 CUB7        0.0000 
    138 DU        -33.2400  -13.0600  -10.8900 H         7 CUB7        0.0000 
    139 DU        -35.9200   -9.8800  -13.1600 H         7 CUB7        0.0000 
    140 DU        -31.7700  -14.0700  -12.0500 H         7 CUB7        0.0000 
@<TRIPOS>BOND
@<TRIPOS>SUBSTRUCTURE
     1 SER1        1 GROUP   
     2 ALA2       20 GROUP   
     3 ASP3       45 GROUP   
     4 LYS4       48 GROUP   
     5 PHE5       58 GROUP   
     6 GLY6      101 GROUP   
     7 CUB7      119 GROUP   
@<TRIPOS>SET

