#    Name: 6mlq_1_TA1
#    Modification time : Fri May 22 19:27:03 2020

@<TRIPOS>MOLECULE
6mlq_1_TA1
   62    69     1     0     0
SMALL
NO_CHARGES


@<TRIPOS>ATOM
      1 O01        22.4490   63.1640  126.4550 O.3       1 TA1601      0.0000 
      2 C01        22.0950   62.9500  125.0870 C.3       1 TA1601      0.0000 
      3 C02        20.9130   63.8220  124.8250 C.3       1 TA1601      0.0000 
      4 O02        21.3790   65.0000  125.5320 O.3       1 TA1601      0.0000 
      5 C03        20.5540   65.6640  126.5270 C.2       1 TA1601      0.0000 
      6 O03        19.4580   65.2850  126.8120 O.2       1 TA1601      0.0000 
      7 C04        21.2060   66.9060  127.1940 C.ar      1 TA1601      0.0000 
      8 C05        21.4500   66.9300  128.5560 C.ar      1 TA1601      0.0000 
      9 C06        22.0520   68.0520  129.1170 C.ar      1 TA1601      0.0000 
     10 C07        22.4080   69.1190  128.3200 C.ar      1 TA1601      0.0000 
     11 C08        22.1680   69.0870  126.9520 C.ar      1 TA1601      0.0000 
     12 C09        21.5700   67.9740  126.3910 C.ar      1 TA1601      0.0000 
     13 C10        20.6360   64.1640  123.3340 C.3       1 TA1601      0.0000 
     14 C11        20.4240   65.8350  123.0750 C.3       1 TA1601      0.0000 
     15 O04        21.5560   66.6750  123.3840 O.3       1 TA1601      0.0000 
     16 C12        22.7900   66.6300  122.6240 C.2       1 TA1601      0.0000 
     17 O05        23.0270   65.7820  121.8000 O.2       1 TA1601      0.0000 
     18 C13        23.7780   67.6690  122.9010 C.3       1 TA1601      0.0000 
     19 C14        19.3490   66.5180  123.5510 Du        1 TA1601      0.0000 
     20 O06        18.7090   66.3850  122.1230 O.3       1 TA1601      0.0000 
     21 C15        19.9410   66.2140  121.6770 C.3       1 TA1601      0.0000 
     22 C16        19.8950   65.0370  120.7490 C.3       1 TA1601      0.0000 
     23 C17        19.0360   63.8350  121.3470 C.3       1 TA1601      0.0000 
     24 O07        17.6880   64.2710  121.4010 O.3       1 TA1601      0.0000 
     25 C18        19.5300   63.3420  122.6490 C.3       1 TA1601      0.0000 
     26 C19        18.3630   63.2020  123.5810 C.3       1 TA1601      0.0000 
     27 C20        19.8760   61.8000  122.2770 C.2       1 TA1601      0.0000 
     28 O08        18.9650   61.0850  122.0440 O.2       1 TA1601      0.0000 
     29 C21        21.3170   61.1880  122.2020 C.3       1 TA1601      0.0000 
     30 O09        21.1780   59.9820  121.6080 O.3       1 TA1601      0.0000 
     31 C22        21.7920   59.9130  120.3210 C.2       1 TA1601      0.0000 
     32 O10        22.0410   60.9760  119.6820 O.2       1 TA1601      0.0000 
     33 C23        22.1590   58.5780  119.7350 C.3       1 TA1601      0.0000 
     34 C24        22.2990   60.9810  123.4860 C.2       1 TA1601      0.0000 
     35 C25        23.4520   61.1060  123.2290 C.2       1 TA1601      0.0000 
     36 C26        24.0640   62.4370  123.1570 C.3       1 TA1601      0.0000 
     37 O11        24.0910   62.9210  121.8510 O.3       1 TA1601      0.0000 
     38 C27        25.4330   63.0320  121.2790 C.2       1 TA1601      0.0000 
     39 O12        26.2000   62.1200  121.3330 O.2       1 TA1601      0.0000 
     40 C28        25.8770   64.3210  120.6130 C.3       1 TA1601      0.0000 
     41 O13        26.8960   64.0660  119.6830 O.3       1 TA1601      0.0000 
     42 C29        26.3920   65.2330  121.7060 C.3       1 TA1601      0.0000 
     43 N01        27.5780   64.6460  122.3270 N.am      1 TA1601      0.0000 
     44 C30        27.4740   64.3800  123.7410 C.2       1 TA1601      0.0000 
     45 O14        26.4360   64.6580  124.3120 O.2       1 TA1601      0.0000 
     46 C31        28.6560   63.7430  124.5750 C.ar      1 TA1601      0.0000 
     47 C32        29.8300   64.4420  124.7620 C.ar      1 TA1601      0.0000 
     48 C33        30.8660   63.8670  125.5170 C.ar      1 TA1601      0.0000 
     49 C34        30.7080   62.6290  126.0630 C.ar      1 TA1601      0.0000 
     50 C35        29.5230   61.9240  125.8730 C.ar      1 TA1601      0.0000 
     51 C36        28.4920   62.4950  125.1260 C.ar      1 TA1601      0.0000 
     52 C37        26.7060   66.6200  121.1640 C.ar      1 TA1601      0.0000 
     53 C38        25.9700   67.1420  120.1040 C.ar      1 TA1601      0.0000 
     54 C39        26.2560   68.4210  119.6240 C.ar      1 TA1601      0.0000 
     55 C40        27.2660   69.1430  120.1980 C.ar      1 TA1601      0.0000 
     56 C41        27.9990   68.6190  121.2510 C.ar      1 TA1601      0.0000 
     57 C42        27.7060   67.3340  121.7390 C.ar      1 TA1601      0.0000 
     58 C43        23.3320   63.5100  124.1870 C.3       1 TA1601      0.0000 
     59 C44        24.2940   59.8740  122.7640 C.3       1 TA1601      0.0000 
     60 C45        21.8940   61.3540  124.8950 C.3       1 TA1601      0.0000 
     61 C46        22.7950   60.6230  125.9980 C.3       1 TA1601      0.0000 
     62 C47        20.5180   60.8450  125.4300 C.3       1 TA1601      0.0000 
@<TRIPOS>BOND
     1    1    2 1    
     2    2    3 1    
     3    2   58 1    
     4    2   60 1    
     5    3    4 1    
     6    3   13 1    
     7    4    5 1    
     8    5    6 2    
     9    5    7 1    
    10    7    8 ar   
    11    7   12 ar   
    12    8    9 ar   
    13    9   10 ar   
    14   10   11 ar   
    15   11   12 ar   
    16   13   14 1    
    17   13   25 1    
    18   14   15 1    
    19   14   19 du   
    20   14   21 1    
    21   15   16 1    
    22   16   17 2    
    23   16   18 1    
    24   19   20 du   
    25   19   21 du   
    26   20   21 1    
    27   21   22 1    
    28   22   23 1    
    29   23   24 1    
    30   23   25 1    
    31   25   26 1    
    32   25   27 1    
    33   27   28 2    
    34   27   29 1    
    35   29   30 1    
    36   29   34 1    
    37   30   31 1    
    38   31   32 2    
    39   31   33 1    
    40   34   35 2    
    41   34   60 1    
    42   35   36 1    
    43   35   59 1    
    44   36   37 1    
    45   36   58 1    
    46   37   38 1    
    47   38   39 2    
    48   38   40 1    
    49   40   41 1    
    50   40   42 1    
    51   42   43 1    
    52   42   52 1    
    53   43   44 am   
    54   44   45 2    
    55   44   46 1    
    56   46   47 ar   
    57   46   51 ar   
    58   47   48 ar   
    59   48   49 ar   
    60   49   50 ar   
    61   50   51 ar   
    62   52   53 ar   
    63   52   57 ar   
    64   53   54 ar   
    65   54   55 ar   
    66   55   56 ar   
    67   56   57 ar   
    68   60   61 1    
    69   60   62 1    
@<TRIPOS>SUBSTRUCTURE
     1 TA1601      1 GROUP   
@<TRIPOS>SET

