#    Name: 6mlq_3_GDP
#    Modification time : Fri May 22 19:27:26 2020

@<TRIPOS>MOLECULE
6mlq_3_GDP
   28    30     1     0     1
SMALL
NO_CHARGES


@<TRIPOS>ATOM
      1 PB         34.9440   81.3110  141.7290 P.3       1 GDP600      0.0000 
      2 O1B        36.0270   81.2050  140.6860 O.co2     1 GDP600      0.0000 
      3 O2B        35.2610   80.4320  142.9080 O.co2     1 GDP600      0.0000 
      4 O3B        34.8150   82.7400  142.1920 O.co2     1 GDP600      0.0000 
      5 O3A        33.5590   80.8470  141.0720 O.3       1 GDP600      0.0000 
      6 PA         33.1250   81.5140  139.6830 P.3       1 GDP600      0.0000 
      7 O1A        33.7170   80.7390  138.5360 O.co2     1 GDP600      0.0000 
      8 O2A        33.5440   82.9590  139.6180 O.co2     1 GDP600      0.0000 
      9 O5'        31.5240   81.4070  139.6990 O.3       1 GDP600      0.0000 
     10 C5'        30.7860   82.6110  139.5400 C.3       1 GDP600      0.0000 
     11 C4'        29.3490   82.3080  139.1640 C.3       1 GDP600      0.0000 
     12 O4'        29.3200   81.2140  138.2560 O.3       1 GDP600      0.0000 
     13 C3'        28.5200   81.9040  140.3650 C.3       1 GDP600      0.0000 
     14 O3'        27.6710   82.9850  140.7500 O.3       1 GDP600      0.0000 
     15 C2'        27.6780   80.7450  139.8880 C.3       1 GDP600      0.0000 
     16 O2'        26.3160   81.1600  139.8250 O.3       1 GDP600      0.0000 
     17 C1'        28.1700   80.4120  138.4930 C.3       1 GDP600      0.0000 
     18 N9         28.5390   78.9830  138.4590 N.pl3     1 GDP600      0.0000 
     19 C8         29.4450   78.3890  139.2480 C.2       1 GDP600      0.0000 
     20 N7         29.5470   77.0680  138.9620 N.2       1 GDP600      0.0000 
     21 C5         28.6910   76.8120  137.9650 C.2       1 GDP600      0.0000 
     22 C6         28.2960   75.6280  137.1870 C.2       1 GDP600      0.0000 
     23 O6         28.8180   74.5220  137.4090 O.2       1 GDP600      0.0000 
     24 N1         27.3730   75.7800  136.2390 N.am      1 GDP600      0.0000 
     25 C2         26.8050   76.9670  135.9830 C.2       1 GDP600      0.0000 
     26 N2         25.8760   77.0370  135.0040 N.pl3     1 GDP600      0.0000 
     27 N3         27.1160   78.0960  136.6550 N.2       1 GDP600      0.0000 
     28 C4         28.0280   78.0740  137.6410 C.2       1 GDP600      0.0000 
@<TRIPOS>BOND
     1    1    2 ar   
     2    1    3 ar   
     3    1    4 ar   
     4    1    5 1    
     5    5    6 1    
     6    6    7 ar   
     7    6    8 ar   
     8    6    9 1    
     9    9   10 1    
    10   10   11 1    
    11   11   12 1    
    12   11   13 1    
    13   12   17 1    
    14   13   14 1    
    15   13   15 1    
    16   15   16 1    
    17   15   17 1    
    18   17   18 1    
    19   18   19 1    
    20   18   28 1    
    21   19   20 2    
    22   20   21 1    
    23   21   22 1    
    24   21   28 2    
    25   22   23 2    
    26   22   24 am   
    27   24   25 1    
    28   25   26 1    
    29   25   27 2    
    30   27   28 1    
@<TRIPOS>SUBSTRUCTURE
     1 GDP600      1 GROUP   
@<TRIPOS>SET
ATOM$ORANGE STATIC     ATOMS   COLORGROUP SYSTEM 
20 10 10 11 11 13 13 15 15 17 17 19 19 21 21 22 22 25 \
25 28 28 

