#    Name: 6mlq_3_GDP_CAVITY_N1_4
#    Modification time : Fri May 22 19:27:28 2020

@<TRIPOS>MOLECULE
6mlq_3_GDP_CAVITY_N1_4
  120     0     6     0     0
SMALL
NO_CHARGES


@<TRIPOS>ATOM
      1 OG         23.3700   77.9800  137.4600 O.3       1 SER1        0.0000 
      2 OG         24.7300   78.0300  139.0900 O.3       1 SER1        0.0000 
      3 OG         26.0900   78.0800  140.7200 O.3       1 SER1        0.0000 
      4 OG         25.0900   79.0300  140.1500 O.3       1 SER1        0.0000 
      5 OG         24.0300   78.4600  141.0500 O.3       1 SER1        0.0000 
      6 OG         26.4400   79.0800  141.7800 O.3       1 SER1        0.0000 
      7 OG         31.0300   82.3700  139.2500 O.3       1 SER1        0.0000 
      8 OG         30.0300   83.3300  138.6700 O.3       1 SER1        0.0000 
      9 OG         29.2700   82.2300  142.1000 O.3       1 SER1        0.0000 
     10 OG         28.2600   83.1900  141.5300 O.3       1 SER1        0.0000 
     11 OG         27.2600   84.1400  140.9500 O.3       1 SER1        0.0000 
     12 OG         27.2000   82.6200  142.4200 O.3       1 SER1        0.0000 
     13 OG         26.2000   83.5700  141.8500 O.3       1 SER1        0.0000 
     14 OG         29.6200   83.2300  143.1600 O.3       1 SER1        0.0000 
     15 O          27.9000   77.3000  132.3400 O.2       2 ALA2        0.0000 
     16 O          26.8400   76.7300  133.2300 O.2       2 ALA2        0.0000 
     17 N          25.8400   77.6900  132.6600 N.am      2 ALA2        0.0000 
     18 O          26.7900   75.2000  134.7000 O.2       2 ALA2        0.0000 
     19 N          28.2600   78.3000  133.3900 N.am      2 ALA2        0.0000 
     20 N          27.2500   79.2600  132.8200 N.am      2 ALA2        0.0000 
     21 O          28.2000   76.7800  134.8600 O.2       2 ALA2        0.0000 
     22 N          27.2000   77.7300  134.2900 N.am      2 ALA2        0.0000 
     23 N          29.1500   74.2900  136.9100 N.am      2 ALA2        0.0000 
     24 N          28.1500   75.2500  136.3300 N.am      2 ALA2        0.0000 
     25 O          27.1400   76.2100  135.7600 O.2       2 ALA2        0.0000 
     26 N          26.1400   77.1600  135.1900 N.am      2 ALA2        0.0000 
     27 N          24.0800   77.5500  135.5100 N.am      2 ALA2        0.0000 
     28 N          29.5600   76.8200  136.4900 N.am      2 ALA2        0.0000 
     29 N          27.5500   78.7400  135.3500 N.am      2 ALA2        0.0000 
     30 N          27.5000   77.2100  136.8200 N.am      2 ALA2        0.0000 
     31 N          26.4900   78.1700  136.2400 N.am      2 ALA2        0.0000 
     32 N          25.4400   77.6000  137.1400 N.am      2 ALA2        0.0000 
     33 N          31.9200   75.9100  138.7000 N.am      2 ALA2        0.0000 
     34 N          27.9100   79.7400  136.4000 N.am      2 ALA2        0.0000 
     35 N          27.8500   78.2100  137.8700 N.am      2 ALA2        0.0000 
     36 O          26.8500   79.1700  137.3000 O.2       2 ALA2        0.0000 
     37 O          25.7900   78.6000  138.2000 O.2       2 ALA2        0.0000 
     38 O          23.7300   78.9900  138.5200 O.2       2 ALA2        0.0000 
     39 N          29.3200   81.3200  136.5600 N.am      2 ALA2        0.0000 
     40 N          28.2600   80.7500  137.4600 N.am      2 ALA2        0.0000 
     41 O          31.2100   76.3500  140.6500 O.2       2 ALA2        0.0000 
     42 O          27.2000   80.1700  138.3600 O.2       2 ALA2        0.0000 
     43 O          26.1400   79.6000  139.2500 O.2       2 ALA2        0.0000 
     44 N          27.6700   84.2300  136.4700 N.am      2 ALA2        0.0000 
     45 O          26.6100   83.6600  137.3700 O.2       2 ALA2        0.0000 
     46 O          26.5500   82.1400  138.8400 O.2       2 ALA2        0.0000 
     47 O          25.5500   83.0900  138.2700 O.2       2 ALA2        0.0000 
     48 O          25.4900   81.5600  139.7400 O.2       2 ALA2        0.0000 
     49 O          24.4900   82.5200  139.1600 O.2       2 ALA2        0.0000 
     50 O          23.4900   83.4800  138.5900 O.2       2 ALA2        0.0000 
     51 O          29.0200   84.2800  138.1000 O.2       2 ALA2        0.0000 
     52 N          28.0200   85.2400  137.5300 N.am      2 ALA2        0.0000 
     53 O          24.8500   83.5300  140.2200 O.2       2 ALA2        0.0000 
     54 N          30.3200   82.8000  141.2000 N.am      2 ALA2        0.0000 
     55 O          25.2000   84.5300  141.2800 O.2       2 ALA2        0.0000 
     56 N          29.6700   84.7600  141.6900 N.am      2 ALA2        0.0000 
     57 NZ         24.0800   79.9900  139.5800 N.4       3 LYS4        0.0000 
     58 NZ         23.0800   80.9500  139.0000 N.4       3 LYS4        0.0000 
     59 NZ         25.4400   80.0400  141.2100 N.4       3 LYS4        0.0000 
     60 NZ         24.4400   80.9900  140.6300 N.4       3 LYS4        0.0000 
     61 NZ         28.6700   85.7200  141.1100 N.4       3 LYS4        0.0000 
     62 CZ         26.0800   75.6300  136.6600 C.ar      4 PHE5        0.0000 
     63 CZ         29.5000   75.3000  137.9600 C.ar      4 PHE5        0.0000 
     64 CZ         28.5000   76.2500  137.3900 C.ar      4 PHE5        0.0000 
     65 CZ         29.4500   73.7700  139.4300 C.ar      4 PHE5        0.0000 
     66 CZ         27.4400   75.6800  138.2900 C.ar      4 PHE5        0.0000 
     67 CZ         26.4400   76.6400  137.7100 C.ar      4 PHE5        0.0000 
     68 CZ         24.3800   77.0200  138.0400 C.ar      4 PHE5        0.0000 
     69 CZ         28.8000   75.7300  139.9200 C.ar      4 PHE5        0.0000 
     70 CZ         27.7900   76.6900  139.3400 C.ar      4 PHE5        0.0000 
     71 CZ         26.7900   77.6400  138.7700 C.ar      4 PHE5        0.0000 
     72 CZ         28.1500   77.6900  140.4000 C.ar      4 PHE5        0.0000 
     73 CZ         27.0900   77.1200  141.3000 C.ar      4 PHE5        0.0000 
     74 CA         26.9000   78.2600  131.7600 C.3       5 GLY6        0.0000 
     75 CA         25.7900   76.1600  134.1300 C.3       5 GLY6        0.0000 
     76 CA         24.7800   77.1100  133.5600 C.3       5 GLY6        0.0000 
     77 CA         25.0800   76.5900  136.0800 C.3       5 GLY6        0.0000 
     78 CA         30.5600   75.8700  137.0700 C.3       5 GLY6        0.0000 
     79 CA         30.5000   74.3400  138.5400 C.3       5 GLY6        0.0000 
     80 CA         30.4500   72.8100  140.0100 C.3       5 GLY6        0.0000 
     81 CA         30.9100   76.8700  138.1200 C.3       5 GLY6        0.0000 
     82 CA         30.8600   75.3400  139.5900 C.3       5 GLY6        0.0000 
     83 CA         28.8500   77.2600  138.4500 C.3       5 GLY6        0.0000 
     84 CA         29.2600   79.7900  138.0300 C.3       5 GLY6        0.0000 
     85 CA         27.2600   81.7000  136.8900 C.3       5 GLY6        0.0000 
     86 CA         29.2100   78.2600  139.5000 C.3       5 GLY6        0.0000 
     87 CA         30.6700   81.3600  138.1900 C.3       5 GLY6        0.0000 
     88 CA         29.6700   82.3200  137.6200 C.3       5 GLY6        0.0000 
     89 CA         28.6700   83.2800  137.0400 C.3       5 GLY6        0.0000 
     90 CA         30.6200   79.8400  139.6600 C.3       5 GLY6        0.0000 
     91 CA         29.6200   80.7900  139.0900 C.3       5 GLY6        0.0000 
     92 CA         27.6100   82.7100  137.9400 C.3       5 GLY6        0.0000 
     93 CA         26.9600   84.6700  138.4200 C.3       5 GLY6        0.0000 
     94 CA         24.9000   85.0500  138.7500 C.3       5 GLY6        0.0000 
     95 CA         25.8500   82.5700  140.7900 C.3       5 GLY6        0.0000 
     96 CA         25.7900   81.0400  142.2600 C.3       5 GLY6        0.0000 
     97 CA         29.3200   83.7600  140.6300 C.3       5 GLY6        0.0000 
     98 CA         28.3200   84.7200  140.0500 C.3       5 GLY6        0.0000 
     99 CA         27.3200   85.6700  139.4800 C.3       5 GLY6        0.0000 
    100 CA         26.2600   85.1000  140.3800 C.3       5 GLY6        0.0000 
    101 CA         26.6100   86.1100  141.4300 C.3       5 GLY6        0.0000 
    102 DU         29.8600   76.3000  139.0200 H         6 CUB7        0.0000 
    103 DU         30.2100   77.3000  140.0800 H         6 CUB7        0.0000 
    104 DU         28.2000   79.2200  138.9300 H         6 CUB7        0.0000 
    105 DU         27.1500   78.6500  139.8300 H         6 CUB7        0.0000 
    106 DU         28.6100   81.7500  138.5200 H         6 CUB7        0.0000 
    107 DU         29.5600   79.2700  140.5600 H         6 CUB7        0.0000 
    108 DU         28.5600   80.2200  139.9900 H         6 CUB7        0.0000 
    109 DU         27.5600   81.1800  139.4100 H         6 CUB7        0.0000 
    110 DU         27.5000   79.6500  140.8800 H         6 CUB7        0.0000 
    111 DU         26.5000   80.6100  140.3100 H         6 CUB7        0.0000 
    112 DU         30.9700   80.8400  140.7200 H         6 CUB7        0.0000 
    113 DU         29.9700   81.8000  140.1500 H         6 CUB7        0.0000 
    114 DU         28.9700   82.7500  139.5700 H         6 CUB7        0.0000 
    115 DU         27.9600   83.7100  139.0000 H         6 CUB7        0.0000 
    116 DU         27.9100   82.1800  140.4700 H         6 CUB7        0.0000 
    117 DU         26.9100   83.1400  139.9000 H         6 CUB7        0.0000 
    118 DU         25.9000   84.1000  139.3200 H         6 CUB7        0.0000 
    119 DU         27.8500   80.6600  141.9400 H         6 CUB7        0.0000 
    120 DU         26.8500   81.6100  141.3700 H         6 CUB7        0.0000 
@<TRIPOS>BOND
@<TRIPOS>SUBSTRUCTURE
     1 SER1        1 GROUP   
     2 ALA2       15 GROUP   
     3 LYS4       57 GROUP   
     4 PHE5       62 GROUP   
     5 GLY6       74 GROUP   
     6 CUB7      102 GROUP   
@<TRIPOS>SET

