#    Name: 6mlq_2_GTP
#    Modification time : Fri May 22 19:27:19 2020

@<TRIPOS>MOLECULE
6mlq_2_GTP
   32    34     1     0     1
SMALL
NO_CHARGES


@<TRIPOS>ATOM
      1 PG         35.3160   82.0880  101.0740 P.3       1 GTP502      0.0000 
      2 O1G        35.6470   81.0500  100.0390 O.co2     1 GTP502      0.0000 
      3 O2G        36.5300   82.4670  101.8810 O.co2     1 GTP502      0.0000 
      4 O3G        34.2780   81.5730  102.0320 O.co2     1 GTP502      0.0000 
      5 O3B        34.7500   83.3940  100.3430 O.3       1 GTP502      0.0000 
      6 PB         34.5080   83.5310   98.7630 P.3       1 GTP502      0.0000 
      7 O1B        35.8160   83.3680   98.0420 O.co2     1 GTP502      0.0000 
      8 O2B        33.9200   84.8930   98.4990 O.co2     1 GTP502      0.0000 
      9 O3A        33.5230   82.3400   98.3470 O.3       1 GTP502      0.0000 
     10 PA         32.2130   82.0030   99.2060 P.3       1 GTP502      0.0000 
     11 O1A        32.4380   80.7600  100.0160 O.co2     1 GTP502      0.0000 
     12 O2A        31.8990   83.1720  100.1030 O.co2     1 GTP502      0.0000 
     13 O5'        31.0290   81.7750   98.1390 O.3       1 GTP502      0.0000 
     14 C5'        30.5750   82.8100   97.3050 C.3       1 GTP502      0.0000 
     15 C4'        29.0540   82.9020   97.3790 C.3       1 GTP502      0.0000 
     16 O4'        28.4900   82.0290   96.4250 O.3       1 GTP502      0.0000 
     17 C3'        28.5230   82.4830   98.7330 C.3       1 GTP502      0.0000 
     18 O3'        28.0920   83.6150   99.4380 O.3       1 GTP502      0.0000 
     19 C2'        27.3430   81.5870   98.4340 C.3       1 GTP502      0.0000 
     20 O2'        26.1520   82.2920   98.6670 O.3       1 GTP502      0.0000 
     21 C1'        27.4430   81.2520   96.9610 C.3       1 GTP502      0.0000 
     22 N9         27.8570   79.8570   96.7880 N.pl3     1 GTP502      0.0000 
     23 C8         28.7360   79.1740   97.5790 C.2       1 GTP502      0.0000 
     24 N7         28.8780   77.9280   97.0880 N.2       1 GTP502      0.0000 
     25 C5         28.0990   77.8120   96.0010 C.2       1 GTP502      0.0000 
     26 C6         27.8800   76.7570   95.1450 C.2       1 GTP502      0.0000 
     27 O6         28.4550   75.6940   95.3320 O.2       1 GTP502      0.0000 
     28 N1         27.0170   76.9130   94.0910 N.am      1 GTP502      0.0000 
     29 C2         26.3880   78.1230   93.9080 C.2       1 GTP502      0.0000 
     30 N2         25.5520   78.2840   92.8910 N.pl3     1 GTP502      0.0000 
     31 N3         26.6110   79.1710   94.7660 N.2       1 GTP502      0.0000 
     32 C4         27.4570   79.0150   95.7960 C.2       1 GTP502      0.0000 
@<TRIPOS>BOND
     1    1    2 ar   
     2    1    3 ar   
     3    1    4 ar   
     4    1    5 1    
     5    5    6 1    
     6    6    7 ar   
     7    6    8 ar   
     8    6    9 1    
     9    9   10 1    
    10   10   11 ar   
    11   10   12 ar   
    12   10   13 1    
    13   13   14 1    
    14   14   15 1    
    15   15   16 1    
    16   15   17 1    
    17   16   21 1    
    18   17   18 1    
    19   17   19 1    
    20   19   20 1    
    21   19   21 1    
    22   21   22 1    
    23   22   23 1    
    24   22   32 1    
    25   23   24 2    
    26   24   25 1    
    27   25   26 1    
    28   25   32 2    
    29   26   27 2    
    30   26   28 am   
    31   28   29 1    
    32   29   30 1    
    33   29   31 2    
    34   31   32 1    
@<TRIPOS>SUBSTRUCTURE
     1 GTP502      1 GROUP   
@<TRIPOS>SET
ATOM$ORANGE STATIC     ATOMS   COLORGROUP SYSTEM 
20 14 14 15 15 17 17 19 19 21 21 23 23 25 25 26 26 29 \
29 32 32 

