#    Name: 6o6q_1_AMP
#    Modification time : Fri May 22 19:35:39 2020

@<TRIPOS>MOLECULE
6o6q_1_AMP
   23    25     1     0     1
SMALL
NO_CHARGES


@<TRIPOS>ATOM
      1 P          34.9740    9.6670   -9.1610 P.3       1 AMP401      0.0000 
      2 O1P        34.2300    8.7540  -10.1060 O.co2     1 AMP401      0.0000 
      3 O2P        36.0080   10.5410   -9.8290 O.co2     1 AMP401      0.0000 
      4 O3P        34.0940   10.3860   -8.1660 O.co2     1 AMP401      0.0000 
      5 O5'        35.8370    8.6720   -8.2640 O.3       1 AMP401      0.0000 
      6 C5'        36.5770    9.1530   -7.1470 C.3       1 AMP401      0.0000 
      7 C4'        36.9480    8.0400   -6.1970 C.3       1 AMP401      0.0000 
      8 O4'        37.9490    7.1910   -6.8230 O.3       1 AMP401      0.0000 
      9 C3'        37.5460    8.4990   -4.8670 C.3       1 AMP401      0.0000 
     10 O3'        37.1240    7.6170   -3.8270 O.3       1 AMP401      0.0000 
     11 C2'        39.0460    8.3360   -5.0960 C.3       1 AMP401      0.0000 
     12 O2'        39.8030    8.1570   -3.9180 O.3       1 AMP401      0.0000 
     13 C1'        39.0870    7.1000   -5.9880 C.3       1 AMP401      0.0000 
     14 N9         40.2760    7.0210   -6.8410 N.pl3     1 AMP401      0.0000 
     15 C8         40.3850    7.5110   -8.0900 C.2       1 AMP401      0.0000 
     16 N7         41.6190    7.2720   -8.6050 N.2       1 AMP401      0.0000 
     17 C5         42.3260    6.6120   -7.6690 C.ar      1 AMP401      0.0000 
     18 C6         43.6960    6.0570   -7.5590 C.ar      1 AMP401      0.0000 
     19 N6         44.5800    6.1630   -8.5800 N.pl3     1 AMP401      0.0000 
     20 N1         44.0340    5.4410   -6.4050 N.ar      1 AMP401      0.0000 
     21 C2         43.1660    5.3290   -5.3820 C.ar      1 AMP401      0.0000 
     22 N3         41.9100    5.8080   -5.4130 N.ar      1 AMP401      0.0000 
     23 C4         41.4370    6.4490   -6.5090 C.ar      1 AMP401      0.0000 
@<TRIPOS>BOND
     1    1    2 ar   
     2    1    3 ar   
     3    1    4 ar   
     4    1    5 1    
     5    5    6 1    
     6    6    7 1    
     7    7    8 1    
     8    7    9 1    
     9    8   13 1    
    10    9   10 1    
    11    9   11 1    
    12   11   12 1    
    13   11   13 1    
    14   13   14 1    
    15   14   15 1    
    16   14   23 1    
    17   15   16 2    
    18   16   17 1    
    19   17   18 ar   
    20   17   23 ar   
    21   18   19 1    
    22   18   20 ar   
    23   20   21 ar   
    24   21   22 ar   
    25   22   23 ar   
@<TRIPOS>SUBSTRUCTURE
     1 AMP401      1 GROUP   
@<TRIPOS>SET
ATOM$ORANGE STATIC     ATOMS   COLORGROUP SYSTEM 
20 6 6 7 7 9 9 11 11 13 13 15 15 17 17 18 18 21 \
21 23 23 

