#    Name: 6o6q_2_AMP
#    Modification time : Fri May 22 19:35:42 2020

@<TRIPOS>MOLECULE
6o6q_2_AMP
   23    25     1     0     1
SMALL
NO_CHARGES


@<TRIPOS>ATOM
      1 P          80.3860    2.3070   12.5600 P.3       1 AMP401      0.0000 
      2 O1P        80.2350    1.2320   11.5110 O.co2     1 AMP401      0.0000 
      3 O2P        81.7170    2.2800   13.2720 O.co2     1 AMP401      0.0000 
      4 O3P        79.1940    2.4590   13.4740 O.co2     1 AMP401      0.0000 
      5 O5'        80.4450    3.6660   11.7270 O.3       1 AMP401      0.0000 
      6 C5'        79.3480    4.0960   10.9250 C.3       1 AMP401      0.0000 
      7 C4'        79.4850    3.6320    9.4940 C.3       1 AMP401      0.0000 
      8 O4'        78.8420    2.3410    9.3610 O.3       1 AMP401      0.0000 
      9 C3'        78.8470    4.5270    8.4430 C.3       1 AMP401      0.0000 
     10 O3'        79.5440    4.3740    7.2070 O.3       1 AMP401      0.0000 
     11 C2'        77.4430    3.9460    8.3140 C.3       1 AMP401      0.0000 
     12 O2'        76.8310    4.1790    7.0630 O.3       1 AMP401      0.0000 
     13 C1'        77.6800    2.4510    8.5560 C.3       1 AMP401      0.0000 
     14 N9         76.5920    1.7920    9.2820 N.pl3     1 AMP401      0.0000 
     15 C8         76.6500    1.4500   10.5830 C.2       1 AMP401      0.0000 
     16 N7         75.5010    0.8570   10.9910 N.2       1 AMP401      0.0000 
     17 C5         74.6780    0.8100    9.9280 C.ar      1 AMP401      0.0000 
     18 C6         73.3080    0.3130    9.6710 C.ar      1 AMP401      0.0000 
     19 N6         72.5790   -0.2680   10.6550 N.pl3     1 AMP401      0.0000 
     20 N1         72.8140    0.4540    8.4210 N.ar      1 AMP401      0.0000 
     21 C2         73.5320    1.0280    7.4380 C.ar      1 AMP401      0.0000 
     22 N3         74.7800    1.5040    7.6010 N.ar      1 AMP401      0.0000 
     23 C4         75.4000    1.4250    8.8020 C.ar      1 AMP401      0.0000 
@<TRIPOS>BOND
     1    1    2 ar   
     2    1    3 ar   
     3    1    4 ar   
     4    1    5 1    
     5    5    6 1    
     6    6    7 1    
     7    7    8 1    
     8    7    9 1    
     9    8   13 1    
    10    9   10 1    
    11    9   11 1    
    12   11   12 1    
    13   11   13 1    
    14   13   14 1    
    15   14   15 1    
    16   14   23 1    
    17   15   16 2    
    18   16   17 1    
    19   17   18 ar   
    20   17   23 ar   
    21   18   19 1    
    22   18   20 ar   
    23   20   21 ar   
    24   21   22 ar   
    25   22   23 ar   
@<TRIPOS>SUBSTRUCTURE
     1 AMP401      1 GROUP   
@<TRIPOS>SET
ATOM$ORANGE STATIC     ATOMS   COLORGROUP SYSTEM 
20 6 6 7 7 9 9 11 11 13 13 15 15 17 17 18 18 21 \
21 23 23 

