#    Name: 6awj_1_ADP
#    Modification time : Fri May 22 19:26:29 2020

@<TRIPOS>MOLECULE
6awj_1_ADP
   27    29     1     0     1
SMALL
NO_CHARGES


@<TRIPOS>ATOM
      1 PB         25.5670    7.0430   43.8180 P.3       1 ADP301      0.0000 
      2 O1B        26.4770    6.4040   42.7780 O.co2     1 ADP301      0.0000 
      3 O2B        25.6340    6.5350   45.2390 O.co2     1 ADP301      0.0000 
      4 O3B        25.5550    8.5500   43.8480 O.co2     1 ADP301      0.0000 
      5 PA         23.2090    7.0370   42.1140 P.3       1 ADP301      0.0000 
      6 O1A        24.0590    7.3980   40.9260 O.co2     1 ADP301      0.0000 
      7 O2A        22.1430    7.9910   42.5750 O.co2     1 ADP301      0.0000 
      8 O3A        24.0560    6.6610   43.4470 O.3       1 ADP301      0.0000 
      9 O5'        22.4080    5.6410   41.9040 O.3       1 ADP301      0.0000 
     10 C5'        23.1140    4.4450   41.5390 C.3       1 ADP301      0.0000 
     11 C4'        22.1330    3.3010   41.4560 C.3       1 ADP301      0.0000 
     12 O4'        21.3690    3.5590   40.3060 O.3       1 ADP301      0.0000 
     13 C3'        22.7010    1.9030   41.3170 C.3       1 ADP301      0.0000 
     14 O3'        22.9150    1.2400   42.5800 O.3       1 ADP301      0.0000 
     15 C2'        21.6330    1.2200   40.4910 C.3       1 ADP301      0.0000 
     16 O2'        20.5280    0.6950   41.2230 O.3       1 ADP301      0.0000 
     17 C1'        21.0650    2.3420   39.6520 C.3       1 ADP301      0.0000 
     18 N9         21.6490    2.4410   38.2960 N.pl3     1 ADP301      0.0000 
     19 C8         21.1110    3.2080   37.3270 C.2       1 ADP301      0.0000 
     20 N7         21.8630    3.0950   36.2380 N.2       1 ADP301      0.0000 
     21 C5         22.8640    2.2730   36.4950 C.ar      1 ADP301      0.0000 
     22 C6         24.0000    1.7500   35.7530 C.ar      1 ADP301      0.0000 
     23 N6         24.1430    2.1430   34.4950 N.pl3     1 ADP301      0.0000 
     24 N1         24.8760    0.9150   36.3350 N.ar      1 ADP301      0.0000 
     25 C2         24.7080    0.5710   37.6130 C.ar      1 ADP301      0.0000 
     26 N3         23.6810    1.0330   38.3490 N.ar      1 ADP301      0.0000 
     27 C4         22.7460    1.8460   37.8550 C.ar      1 ADP301      0.0000 
@<TRIPOS>BOND
     1    1    2 ar   
     2    1    3 ar   
     3    1    4 ar   
     4    1    8 1    
     5    5    6 ar   
     6    5    7 ar   
     7    5    8 1    
     8    5    9 1    
     9    9   10 1    
    10   10   11 1    
    11   11   12 1    
    12   11   13 1    
    13   12   17 1    
    14   13   14 1    
    15   13   15 1    
    16   15   16 1    
    17   15   17 1    
    18   17   18 1    
    19   18   19 1    
    20   18   27 1    
    21   19   20 2    
    22   20   21 1    
    23   21   22 ar   
    24   21   27 ar   
    25   22   23 1    
    26   22   24 ar   
    27   24   25 ar   
    28   25   26 ar   
    29   26   27 ar   
@<TRIPOS>SUBSTRUCTURE
     1 ADP301      1 GROUP   
@<TRIPOS>SET
ATOM$ORANGE STATIC     ATOMS   COLORGROUP SYSTEM 
20 10 10 11 11 13 13 15 15 17 17 19 19 21 21 22 22 25 \
25 27 27 

