#    Name: 6awj_4_ADP
#    Modification time : Fri May 22 19:26:44 2020

@<TRIPOS>MOLECULE
6awj_4_ADP
   27    29     1     0     1
SMALL
NO_CHARGES


@<TRIPOS>ATOM
      1 PB        -16.3590  -16.4210   16.0110 P.3       1 ADP301      0.0000 
      2 O1B       -17.7420  -16.9510   15.6410 O.co2     1 ADP301      0.0000 
      3 O2B       -16.2830  -14.9140   16.1130 O.co2     1 ADP301      0.0000 
      4 O3B       -15.6690  -17.1390   17.1610 O.co2     1 ADP301      0.0000 
      5 PA        -15.6270  -16.2440   13.1910 P.3       1 ADP301      0.0000 
      6 O1A       -15.9720  -17.2910   12.1530 O.co2     1 ADP301      0.0000 
      7 O2A       -16.5220  -15.0270   13.1700 O.co2     1 ADP301      0.0000 
      8 O3A       -15.5010  -16.8420   14.6950 O.3       1 ADP301      0.0000 
      9 O5'       -14.0730  -15.9140   12.8850 O.3       1 ADP301      0.0000 
     10 C5'       -13.3770  -14.9370   13.6340 C.3       1 ADP301      0.0000 
     11 C4'       -11.9490  -14.8340   13.1150 C.3       1 ADP301      0.0000 
     12 O4'       -11.9610  -14.3060   11.7880 O.3       1 ADP301      0.0000 
     13 C3'       -11.0950  -13.8870   13.9030 C.3       1 ADP301      0.0000 
     14 O3'       -10.4540  -14.5280   14.9910 O.3       1 ADP301      0.0000 
     15 C2'       -10.1330  -13.4200   12.8460 C.3       1 ADP301      0.0000 
     16 O2'        -9.1710  -14.4290   12.6850 O.3       1 ADP301      0.0000 
     17 C1'       -10.9160  -13.3880   11.5570 C.3       1 ADP301      0.0000 
     18 N9        -11.4940  -12.0660   11.1090 N.pl3     1 ADP301      0.0000 
     19 C8        -12.0820  -11.8940    9.9080 C.2       1 ADP301      0.0000 
     20 N7        -12.5110  -10.6280    9.7430 N.2       1 ADP301      0.0000 
     21 C5        -12.2050   -9.9410   10.8600 C.ar      1 ADP301      0.0000 
     22 C6        -12.3720   -8.5650   11.3500 C.ar      1 ADP301      0.0000 
     23 N6        -12.9590   -7.6260   10.6360 N.pl3     1 ADP301      0.0000 
     24 N1        -11.9240   -8.2330   12.5490 N.ar      1 ADP301      0.0000 
     25 C2        -11.3070   -9.1340   13.3390 C.ar      1 ADP301      0.0000 
     26 N3        -11.1420  -10.3960   12.9610 N.ar      1 ADP301      0.0000 
     27 C4        -11.5450  -10.8760   11.7510 C.ar      1 ADP301      0.0000 
@<TRIPOS>BOND
     1    1    2 ar   
     2    1    3 ar   
     3    1    4 ar   
     4    1    8 1    
     5    5    6 ar   
     6    5    7 ar   
     7    5    8 1    
     8    5    9 1    
     9    9   10 1    
    10   10   11 1    
    11   11   12 1    
    12   11   13 1    
    13   12   17 1    
    14   13   14 1    
    15   13   15 1    
    16   15   16 1    
    17   15   17 1    
    18   17   18 1    
    19   18   19 1    
    20   18   27 1    
    21   19   20 2    
    22   20   21 1    
    23   21   22 ar   
    24   21   27 ar   
    25   22   23 1    
    26   22   24 ar   
    27   24   25 ar   
    28   25   26 ar   
    29   26   27 ar   
@<TRIPOS>SUBSTRUCTURE
     1 ADP301      1 GROUP   
@<TRIPOS>SET
ATOM$ORANGE STATIC     ATOMS   COLORGROUP SYSTEM 
20 10 10 11 11 13 13 15 15 17 17 19 19 21 21 22 22 25 \
25 27 27 

