#    Name: 6awj_2_ADP
#    Modification time : Fri May 22 19:26:37 2020

@<TRIPOS>MOLECULE
6awj_2_ADP
   27    29     1     0     1
SMALL
NO_CHARGES


@<TRIPOS>ATOM
      1 PB          2.4830  -12.3550   64.3930 P.3       1 ADP301      0.0000 
      2 O1B         2.3540  -11.7070   63.0290 O.co2     1 ADP301      0.0000 
      3 O2B         2.4340  -13.8610   64.4090 O.co2     1 ADP301      0.0000 
      4 O3B         1.5510  -11.7890   65.3650 O.co2     1 ADP301      0.0000 
      5 PA          4.9610  -12.4050   66.1010 P.3       1 ADP301      0.0000 
      6 O1A         4.5790  -13.7200   66.7310 O.co2     1 ADP301      0.0000 
      7 O2A         5.1620  -11.2140   66.9870 O.co2     1 ADP301      0.0000 
      8 O3A         3.9290  -11.8560   64.9570 O.3       1 ADP301      0.0000 
      9 O5'         6.2800  -12.6170   65.2050 O.3       1 ADP301      0.0000 
     10 C5'         6.3520  -13.6210   64.1870 C.3       1 ADP301      0.0000 
     11 C4'         7.8110  -13.8410   63.7620 C.3       1 ADP301      0.0000 
     12 O4'         8.5410  -14.4440   64.7840 O.3       1 ADP301      0.0000 
     13 C3'         8.0000  -14.8130   62.6380 C.3       1 ADP301      0.0000 
     14 O3'         7.8330  -14.1010   61.4400 O.3       1 ADP301      0.0000 
     15 C2'         9.4270  -15.2610   62.8320 C.3       1 ADP301      0.0000 
     16 O2'        10.2950  -14.2460   62.3550 O.3       1 ADP301      0.0000 
     17 C1'         9.6240  -15.2580   64.3210 C.3       1 ADP301      0.0000 
     18 N9          9.5480  -16.5600   65.0390 N.pl3     1 ADP301      0.0000 
     19 C8          9.9590  -16.7060   66.3080 C.2       1 ADP301      0.0000 
     20 N7          9.7580  -17.9700   66.7460 N.2       1 ADP301      0.0000 
     21 C5          9.1970  -18.6380   65.7430 C.ar      1 ADP301      0.0000 
     22 C6          8.7280  -19.9990   65.5420 C.ar      1 ADP301      0.0000 
     23 N6          8.8190  -20.9090   66.5050 N.pl3     1 ADP301      0.0000 
     24 N1          8.2180  -20.3220   64.3640 N.ar      1 ADP301      0.0000 
     25 C2          8.0950  -19.4390   63.3540 C.ar      1 ADP301      0.0000 
     26 N3          8.5050  -18.1830   63.5020 N.ar      1 ADP301      0.0000 
     27 C4          9.0570  -17.7210   64.6360 C.ar      1 ADP301      0.0000 
@<TRIPOS>BOND
     1    1    2 ar   
     2    1    3 ar   
     3    1    4 ar   
     4    1    8 1    
     5    5    6 ar   
     6    5    7 ar   
     7    5    8 1    
     8    5    9 1    
     9    9   10 1    
    10   10   11 1    
    11   11   12 1    
    12   11   13 1    
    13   12   17 1    
    14   13   14 1    
    15   13   15 1    
    16   15   16 1    
    17   15   17 1    
    18   17   18 1    
    19   18   19 1    
    20   18   27 1    
    21   19   20 2    
    22   20   21 1    
    23   21   22 ar   
    24   21   27 ar   
    25   22   23 1    
    26   22   24 ar   
    27   24   25 ar   
    28   25   26 ar   
    29   26   27 ar   
@<TRIPOS>SUBSTRUCTURE
     1 ADP301      1 GROUP   
@<TRIPOS>SET
ATOM$ORANGE STATIC     ATOMS   COLORGROUP SYSTEM 
20 10 10 11 11 13 13 15 15 17 17 19 19 21 21 22 22 25 \
25 27 27 

