#    Name: 6gqi_1_FAD
#    Modification time : Fri May 22 19:25:05 2020

@<TRIPOS>MOLECULE
6gqi_1_FAD
   53    58     1     0     1
SMALL
NO_CHARGES


@<TRIPOS>ATOM
      1 PA          5.2450   19.0340   23.5080 P.3       1 FAD601      0.0000 
      2 O1A         5.5550   17.5870   23.7770 O.co2     1 FAD601      0.0000 
      3 O2A         6.3030   20.1150   23.2870 O.co2     1 FAD601      0.0000 
      4 O5B         4.3440   19.6330   24.7410 O.3       1 FAD601      0.0000 
      5 C5B         3.3720   18.7970   25.3280 C.3       1 FAD601      0.0000 
      6 C4B         3.1170   19.2530   26.7810 C.3       1 FAD601      0.0000 
      7 O4B         1.9200   18.6670   27.2700 O.3       1 FAD601      0.0000 
      8 C3B         4.2260   18.8440   27.7220 C.3       1 FAD601      0.0000 
      9 O3B         4.6930   20.0850   28.2220 O.3       1 FAD601      0.0000 
     10 C2B         3.5480   17.9950   28.7420 C.3       1 FAD601      0.0000 
     11 O2B         4.1620   18.0090   30.0600 O.3       1 FAD601      0.0000 
     12 C1B         2.1120   18.4800   28.6890 C.3       1 FAD601      0.0000 
     13 N9A         1.1710   17.4550   29.1280 N.pl3     1 FAD601      0.0000 
     14 C8A         1.0850   16.2000   28.5920 C.2       1 FAD601      0.0000 
     15 N7A         0.0320   15.5170   29.1340 N.2       1 FAD601      0.0000 
     16 C5A        -0.5120   16.3810   30.0630 C.ar      1 FAD601      0.0000 
     17 C6A        -1.6240   16.2770   31.0550 C.ar      1 FAD601      0.0000 
     18 N6A        -2.3440   15.1380   31.1790 N.pl3     1 FAD601      0.0000 
     19 N1A        -1.8880   17.3810   31.7520 N.ar      1 FAD601      0.0000 
     20 C2A        -1.1810   18.5300   31.6700 C.ar      1 FAD601      0.0000 
     21 N3A        -0.1340   18.7190   30.8360 N.ar      1 FAD601      0.0000 
     22 C4A         0.2230   17.6550   30.0180 C.ar      1 FAD601      0.0000 
     23 N1         10.3950   17.9830   16.0830 N.2       1 FAD601      0.0000 
     24 C2         10.7600   18.4910   14.9150 C.2       1 FAD601      0.0000 
     25 O2          9.8000   18.7890   14.1400 O.2       1 FAD601      0.0000 
     26 N3         12.0190   18.7070   14.5880 N.am      1 FAD601      0.0000 
     27 C4         13.0290   18.4470   15.3830 C.2       1 FAD601      0.0000 
     28 O4         14.2400   18.6480   15.0430 O.2       1 FAD601      0.0000 
     29 C4X        12.7290   17.9010   16.6960 C.2       1 FAD601      0.0000 
     30 N5         13.7050   17.5930   17.5950 N.2       1 FAD601      0.0000 
     31 C5X        13.3180   17.0500   18.8120 C.ar      1 FAD601      0.0000 
     32 C6         14.2930   16.8040   19.8020 C.ar      1 FAD601      0.0000 
     33 C7         13.9490   16.2060   21.0350 C.ar      1 FAD601      0.0000 
     34 C7M        15.0160   15.9080   22.0660 C.3       1 FAD601      0.0000 
     35 C8         12.5180   15.8900   21.3020 C.ar      1 FAD601      0.0000 
     36 C8M        12.0870   15.2840   22.6390 C.3       1 FAD601      0.0000 
     37 C9         11.5350   16.1770   20.4000 C.ar      1 FAD601      0.0000 
     38 C9A        11.8880   16.7630   19.1570 C.ar      1 FAD601      0.0000 
     39 N10        10.8920   17.0770   18.2460 N.pl3     1 FAD601      0.0000 
     40 C10        11.2990   17.6430   16.9870 C.2       1 FAD601      0.0000 
     41 C1'         9.4470   16.8690   18.5330 C.3       1 FAD601      0.0000 
     42 C2'         8.8560   18.0560   19.2720 C.3       1 FAD601      0.0000 
     43 O2'         8.1180   17.4230   20.3180 O.3       1 FAD601      0.0000 
     44 C3'         7.9770   18.9990   18.4400 C.3       1 FAD601      0.0000 
     45 O3'         8.8540   19.7440   17.6010 O.3       1 FAD601      0.0000 
     46 C4'         7.2660   20.0090   19.3240 C.3       1 FAD601      0.0000 
     47 O4'         8.1910   20.4810   20.3770 O.3       1 FAD601      0.0000 
     48 C5'         5.9710   19.4290   19.8920 C.3       1 FAD601      0.0000 
     49 O5'         5.3030   20.4900   20.5900 O.3       1 FAD601      0.0000 
     50 P           3.8510   20.1220   21.2070 P.3       1 FAD601      0.0000 
     51 O1P         3.3030   21.3480   21.9060 O.co2     1 FAD601      0.0000 
     52 O2P         2.9550   19.3240   20.3370 O.co2     1 FAD601      0.0000 
     53 O3P         4.2120   18.9530   22.2770 O.3       1 FAD601      0.0000 
@<TRIPOS>BOND
     1    1    2 ar   
     2    1    3 ar   
     3    1    4 1    
     4    1   53 1    
     5    4    5 1    
     6    5    6 1    
     7    6    7 1    
     8    6    8 1    
     9    7   12 1    
    10    8    9 1    
    11    8   10 1    
    12   10   11 1    
    13   10   12 1    
    14   12   13 1    
    15   13   14 1    
    16   13   22 1    
    17   14   15 2    
    18   15   16 1    
    19   16   17 ar   
    20   16   22 ar   
    21   17   18 1    
    22   17   19 ar   
    23   19   20 ar   
    24   20   21 ar   
    25   21   22 ar   
    26   23   24 1    
    27   23   40 2    
    28   24   25 2    
    29   24   26 am   
    30   26   27 am   
    31   27   28 2    
    32   27   29 1    
    33   29   30 2    
    34   29   40 1    
    35   30   31 1    
    36   31   32 ar   
    37   31   38 ar   
    38   32   33 ar   
    39   33   34 1    
    40   33   35 ar   
    41   35   36 1    
    42   35   37 ar   
    43   37   38 ar   
    44   38   39 1    
    45   39   40 1    
    46   39   41 1    
    47   41   42 1    
    48   42   43 1    
    49   42   44 1    
    50   44   45 1    
    51   44   46 1    
    52   46   47 1    
    53   46   48 1    
    54   48   49 1    
    55   49   50 1    
    56   50   51 ar   
    57   50   52 ar   
    58   50   53 1    
@<TRIPOS>SUBSTRUCTURE
     1 FAD601      1 GROUP   
@<TRIPOS>SET
ATOM$ORANGE STATIC     ATOMS   COLORGROUP SYSTEM 
54 5 5 6 6 8 8 10 10 12 12 14 14 16 16 17 17 20 \
20 22 22 24 24 27 27 29 29 31 31 32 32 33 33 34 34 35 \
35 36 36 37 37 38 38 40 40 41 41 42 42 44 44 46 46 48 \
48 

