#    Name: 6ngu_2_H4B
#    Modification time : Fri May 22 19:31:35 2020

@<TRIPOS>MOLECULE
6ngu_2_H4B
   17    18     1     0     1
SMALL
NO_CHARGES


@<TRIPOS>ATOM
      1 N1         14.4800    3.4830   48.3140 N.2       1 H4B802      0.0000 
      2 C2         14.5850    2.8640   49.5270 C.2       1 H4B802      0.0000 
      3 N2         13.5770    2.0890   50.0170 N.pl3     1 H4B802      0.0000 
      4 N3         15.7060    3.0020   50.2680 N.am      1 H4B802      0.0000 
      5 C4         16.7370    3.7590   49.8300 C.2       1 H4B802      0.0000 
      6 O4         17.7680    3.8770   50.5250 O.2       1 H4B802      0.0000 
      7 C4A        16.6530    4.4090   48.6060 C.2       1 H4B802      0.0000 
      8 C8A        15.4990    4.2550   47.8460 C.2       1 H4B802      0.0000 
      9 N5         17.6760    5.1810   48.1590 N.3       1 H4B802      0.0000 
     10 N8         15.3870    4.8730   46.6400 N.pl3     1 H4B802      0.0000 
     11 C6         17.3970    6.1720   47.1140 C.3       1 H4B802      0.0000 
     12 C7         16.4900    5.6080   46.0150 C.3       1 H4B802      0.0000 
     13 C9         18.6540    6.7500   46.4660 C.3       1 H4B802      0.0000 
     14 O9         19.5080    5.6730   46.0740 O.3       1 H4B802      0.0000 
     15 C10        18.2900    7.5690   45.2240 C.3       1 H4B802      0.0000 
     16 C11        19.4970    8.2560   44.5830 C.3       1 H4B802      0.0000 
     17 O10        17.3330    8.5640   45.5950 O.3       1 H4B802      0.0000 
@<TRIPOS>BOND
     1    1    2 2    
     2    1    8 1    
     3    2    3 1    
     4    2    4 1    
     5    4    5 am   
     6    5    6 2    
     7    5    7 1    
     8    7    8 2    
     9    7    9 1    
    10    8   10 1    
    11    9   11 1    
    12   10   12 1    
    13   11   12 1    
    14   11   13 1    
    15   13   14 1    
    16   13   15 1    
    17   15   16 1    
    18   15   17 1    
@<TRIPOS>SUBSTRUCTURE
     1 H4B802      1 GROUP   
@<TRIPOS>SET
ATOM$ORANGE STATIC     ATOMS   COLORGROUP SYSTEM 
18 2 2 5 5 7 7 8 8 11 11 12 12 13 13 15 15 16 \
16 

