#    Name: 6ngu_2_H4B_CAVITY_N1_6
#    Modification time : Fri May 22 19:31:36 2020

@<TRIPOS>MOLECULE
6ngu_2_H4B_CAVITY_N1_6
   76     0     6     0     0
SMALL
NO_CHARGES


@<TRIPOS>ATOM
      1 OG         20.7200    4.5000   47.3900 O.3       1 SER1        0.0000 
      2 OG         23.8500    3.9300   48.4600 O.3       1 SER1        0.0000 
      3 OG         23.3800    2.6800   49.1500 O.3       1 SER1        0.0000 
      4 N          19.8900    6.9800   44.8000 N.am      2 ALA2        0.0000 
      5 N          18.5200    7.5600   44.9300 N.am      2 ALA2        0.0000 
      6 N          17.1400    8.1400   45.0600 N.am      2 ALA2        0.0000 
      7 N          18.0500    6.3100   45.6200 N.am      2 ALA2        0.0000 
      8 N          14.3700    4.9900   47.2700 N.am      2 ALA2        0.0000 
      9 N          18.8900    8.1600   46.2500 N.am      2 ALA2        0.0000 
     10 N          17.5200    8.7400   46.3800 N.am      2 ALA2        0.0000 
     11 N          19.8100    6.3300   46.8200 N.am      2 ALA2        0.0000 
     12 O          17.0500    7.4900   47.0800 O.2       2 ALA2        0.0000 
     13 O          16.5900    6.2500   47.7700 O.2       2 ALA2        0.0000 
     14 OD1        17.0400    3.1700   49.0300 O.co2     3 ASP3        0.0000 
     15 OD1        15.2000    2.5100   49.8500 O.co2     3 ASP3        0.0000 
     16 OD1        22.0100    3.2600   49.2800 O.co2     3 ASP3        0.0000 
     17 OD1        20.6300    3.8500   49.4000 O.co2     3 ASP3        0.0000 
     18 OD1        19.2500    4.4300   49.5300 O.co2     3 ASP3        0.0000 
     19 OD1        18.7900    3.1800   50.2300 O.co2     3 ASP3        0.0000 
     20 OD1        17.4100    3.7700   50.3500 O.co2     3 ASP3        0.0000 
     21 OD1        16.9500    2.5200   51.0500 O.co2     3 ASP3        0.0000 
     22 OD1        15.1100    1.8600   51.8700 O.co2     3 ASP3        0.0000 
     23 OD1        22.3800    3.8600   50.6000 O.co2     3 ASP3        0.0000 
     24 OD1        21.0000    4.4400   50.7300 O.co2     3 ASP3        0.0000 
     25 OD1        21.9200    2.6100   51.2900 O.co2     3 ASP3        0.0000 
     26 OD1        20.5400    3.2000   51.4200 O.co2     3 ASP3        0.0000 
     27 OD1        19.1600    3.7800   51.5500 O.co2     3 ASP3        0.0000 
     28 OD1        18.7000    2.5400   52.2400 O.co2     3 ASP3        0.0000 
     29 OD1        17.3200    3.1200   52.3700 O.co2     3 ASP3        0.0000 
     30 OD1        16.8600    1.8700   53.0600 O.co2     3 ASP3        0.0000 
     31 CZ         16.3000    6.3000   44.4300 C.ar      4 PHE5        0.0000 
     32 CZ         17.2100    4.4700   44.9900 C.ar      4 PHE5        0.0000 
     33 CZ         15.8400    5.0500   45.1200 C.ar      4 PHE5        0.0000 
     34 CZ         15.3700    3.8100   45.8200 C.ar      4 PHE5        0.0000 
     35 CZ         18.9700    4.4800   46.1900 C.ar      4 PHE5        0.0000 
     36 CZ         17.5900    5.0700   46.3200 C.ar      4 PHE5        0.0000 
     37 CZ         15.7500    4.4000   47.1400 C.ar      4 PHE5        0.0000 
     38 CZ         15.2900    3.1600   47.8300 C.ar      4 PHE5        0.0000 
     39 CZ         20.2700    7.5700   46.1300 C.ar      4 PHE5        0.0000 
     40 CZ         19.3400    5.0800   47.5100 C.ar      4 PHE5        0.0000 
     41 CZ         18.8800    3.8300   48.2100 C.ar      4 PHE5        0.0000 
     42 CZ         17.5000    4.4200   48.3400 C.ar      4 PHE5        0.0000 
     43 CZ         16.1300    5.0000   48.4600 C.ar      4 PHE5        0.0000 
     44 CZ         15.6600    3.7500   49.1600 C.ar      4 PHE5        0.0000 
     45 CZ         17.8800    5.0100   49.6600 C.ar      4 PHE5        0.0000 
     46 CZ         16.0400    4.3500   50.4800 C.ar      4 PHE5        0.0000 
     47 CZ         15.5700    3.1000   51.1700 C.ar      4 PHE5        0.0000 
     48 CZ         18.2500    5.6100   50.9800 C.ar      4 PHE5        0.0000 
     49 CZ         17.7900    4.3600   51.6800 C.ar      4 PHE5        0.0000 
     50 CZ         15.4800    2.4600   53.1900 C.ar      4 PHE5        0.0000 
     51 CA         16.6800    6.9000   45.7500 C.3       5 GLY6        0.0000 
     52 CA         16.2100    5.6500   46.4500 C.3       5 GLY6        0.0000 
     53 CA         14.8400    6.2300   46.5700 C.3       5 GLY6        0.0000 
     54 CA         13.9100    3.7400   47.9600 C.3       5 GLY6        0.0000 
     55 CA         19.3600    9.4000   45.5600 C.3       5 GLY6        0.0000 
     56 CA         21.1800    5.7400   46.6900 C.3       5 GLY6        0.0000 
     57 CA         18.4300    6.9100   46.9500 C.3       5 GLY6        0.0000 
     58 CA         21.5600    6.3400   48.0200 C.3       5 GLY6        0.0000 
     59 CA         20.1800    6.9200   48.1400 C.3       5 GLY6        0.0000 
     60 CA         22.4700    4.5100   48.5800 C.3       5 GLY6        0.0000 
     61 CA         21.0900    5.0900   48.7100 C.3       5 GLY6        0.0000 
     62 CA         19.7200    5.6800   48.8400 C.3       5 GLY6        0.0000 
     63 CA         18.3400    6.2600   48.9700 C.3       5 GLY6        0.0000 
     64 CA         22.8400    5.1100   49.9100 C.3       5 GLY6        0.0000 
     65 CA         21.4700    5.6900   50.0300 C.3       5 GLY6        0.0000 
     66 CA         19.6300    5.0300   50.8600 C.3       5 GLY6        0.0000 
     67 CA         23.2200    5.7000   51.2300 C.3       5 GLY6        0.0000 
     68 CA         21.3800    5.0400   52.0500 C.3       5 GLY6        0.0000 
     69 CA         20.0000    5.6200   52.1800 C.3       5 GLY6        0.0000 
     70 DU         17.9700    5.6600   47.6400 H         6 CUB7        0.0000 
     71 DU         22.7600    4.4600   51.9200 H         6 CUB7        0.0000 
     72 DU         22.2900    3.2100   52.6200 H         6 CUB7        0.0000 
     73 DU         20.9200    3.8000   52.7500 H         6 CUB7        0.0000 
     74 DU         19.5400    4.3800   52.8700 H         6 CUB7        0.0000 
     75 DU         20.4500    2.5500   53.4400 H         6 CUB7        0.0000 
     76 DU         18.6100    1.8900   54.2600 H         6 CUB7        0.0000 
@<TRIPOS>BOND
@<TRIPOS>SUBSTRUCTURE
     1 SER1        1 GROUP   
     2 ALA2        4 GROUP   
     3 ASP3       14 GROUP   
     4 PHE5       31 GROUP   
     5 GLY6       51 GROUP   
     6 CUB7       70 GROUP   
@<TRIPOS>SET

