#    Name: 6ngu_1_H4B
#    Modification time : Fri May 22 19:31:22 2020

@<TRIPOS>MOLECULE
6ngu_1_H4B
   17    18     1     0     1
SMALL
NO_CHARGES


@<TRIPOS>ATOM
      1 N1          9.7200    2.5450   33.9950 N.2       1 H4B802      0.0000 
      2 C2          9.8870    2.0400   32.7470 C.2       1 H4B802      0.0000 
      3 N2         11.1490    1.8180   32.2900 N.pl3     1 H4B802      0.0000 
      4 N3          8.8010    1.7600   31.9790 N.am      1 H4B802      0.0000 
      5 C4          7.5430    1.9840   32.4380 C.2       1 H4B802      0.0000 
      6 O4          6.5560    1.7270   31.7080 O.2       1 H4B802      0.0000 
      7 C4A         7.3620    2.5160   33.7140 C.2       1 H4B802      0.0000 
      8 C8A         8.4830    2.7880   34.4940 C.2       1 H4B802      0.0000 
      9 N5          6.1250    2.7560   34.2150 N.3       1 H4B802      0.0000 
     10 N8          8.3650    3.2860   35.7580 N.pl3     1 H4B802      0.0000 
     11 C6          6.0010    3.6950   35.3320 C.3       1 H4B802      0.0000 
     12 C7          7.0680    3.4660   36.3810 C.3       1 H4B802      0.0000 
     13 C9          4.6530    3.5940   36.0240 C.3       1 H4B802      0.0000 
     14 O9          4.4790    2.2460   36.4650 O.3       1 H4B802      0.0000 
     15 C10         4.5540    4.5160   37.2290 C.3       1 H4B802      0.0000 
     16 C11         3.1820    4.3690   37.8660 C.3       1 H4B802      0.0000 
     17 O10         4.7210    5.8820   36.8280 O.3       1 H4B802      0.0000 
@<TRIPOS>BOND
     1    1    2 2    
     2    1    8 1    
     3    2    3 1    
     4    2    4 1    
     5    4    5 am   
     6    5    6 2    
     7    5    7 1    
     8    7    8 2    
     9    7    9 1    
    10    8   10 1    
    11    9   11 1    
    12   10   12 1    
    13   11   12 1    
    14   11   13 1    
    15   13   14 1    
    16   13   15 1    
    17   15   16 1    
    18   15   17 1    
@<TRIPOS>SUBSTRUCTURE
     1 H4B802      1 GROUP   
@<TRIPOS>SET
ATOM$ORANGE STATIC     ATOMS   COLORGROUP SYSTEM 
18 2 2 5 5 7 7 8 8 11 11 12 12 13 13 15 15 16 \
16 

