#    Name: 6ngu_1_H4B_CAVITY_N1_4
#    Modification time : Fri May 22 19:31:23 2020

@<TRIPOS>MOLECULE
6ngu_1_H4B_CAVITY_N1_4
   63     0     7     0     0
SMALL
NO_CHARGES


@<TRIPOS>ATOM
      1 OG          2.9000    0.0900   34.0400 O.3       1 SER1        0.0000 
      2 OG          3.2700    0.6900   35.3600 O.3       1 SER1        0.0000 
      3 N          13.0100    1.5700   30.5000 N.am      2 ALA2        0.0000 
      4 N           4.1100    2.5300   35.9900 N.am      2 ALA2        0.0000 
      5 N           2.7400    3.1100   36.1200 N.am      2 ALA2        0.0000 
      6 O           5.8800    6.8700   35.2300 O.2       2 ALA2        0.0000 
      7 O           8.1700    4.4500   35.6700 O.2       2 ALA2        0.0000 
      8 O           6.7900    5.0400   35.8000 O.2       2 ALA2        0.0000 
      9 N           5.4200    5.6200   35.9300 N.am      2 ALA2        0.0000 
     10 N           4.0400    6.2000   36.0500 N.am      2 ALA2        0.0000 
     11 N           6.3300    3.7900   36.4900 N.am      2 ALA2        0.0000 
     12 N           4.9500    4.3700   36.6200 N.am      2 ALA2        0.0000 
     13 N           3.5800    4.9600   36.7500 N.am      2 ALA2        0.0000 
     14 N           3.1100    3.7100   37.4400 N.am      2 ALA2        0.0000 
     15 N           5.7900    6.2200   37.2500 N.am      2 ALA2        0.0000 
     16 O           5.3300    4.9700   37.9400 O.2       2 ALA2        0.0000 
     17 OD1         3.9900   -0.4400   30.5700 O.co2     3 ASP3        0.0000 
     18 OD1         8.9500   -0.3500   30.8100 O.co2     3 ASP3        0.0000 
     19 OD1        10.7100   -0.3400   32.0100 O.co2     3 ASP3        0.0000 
     20 OD1         9.3300    0.2500   32.1400 O.co2     3 ASP3        0.0000 
     21 OD1         6.5800    1.4100   32.3900 O.co2     3 ASP3        0.0000 
     22 OD1         4.7400    0.7500   33.2100 O.co2     3 ASP3        0.0000 
     23 OD1         8.3300    1.4300   33.5900 O.co2     3 ASP3        0.0000 
     24 OD1         6.9500    2.0100   33.7200 O.co2     3 ASP3        0.0000 
     25 NZ         12.6300    0.9800   29.1700 N.4       4 LYS4        0.0000 
     26 CZ         10.3500    3.3900   28.7300 C.ar      5 PHE5        0.0000 
     27 CZ          9.8800    2.1400   29.4300 C.ar      5 PHE5        0.0000 
     28 CZ         12.1000    3.4000   29.9300 C.ar      5 PHE5        0.0000 
     29 CZ         11.6300    2.1600   30.6200 C.ar      5 PHE5        0.0000 
     30 CZ          9.7900    1.4900   31.4400 C.ar      5 PHE5        0.0000 
     31 CZ          8.4200    2.0800   31.5700 C.ar      5 PHE5        0.0000 
     32 CZ          7.0400    2.6600   31.7000 C.ar      5 PHE5        0.0000 
     33 CZ         10.1700    2.0900   32.7700 C.ar      5 PHE5        0.0000 
     34 CZ          8.7900    2.6700   32.9000 C.ar      5 PHE5        0.0000 
     35 CZ          7.4200    3.2600   33.0200 C.ar      5 PHE5        0.0000 
     36 CZ          5.1100    1.3500   34.5400 C.ar      5 PHE5        0.0000 
     37 CZ          9.1700    3.2700   34.2200 C.ar      5 PHE5        0.0000 
     38 CZ          7.7900    3.8600   34.3500 C.ar      5 PHE5        0.0000 
     39 CZ          6.4200    4.4400   34.4700 C.ar      5 PHE5        0.0000 
     40 CZ          8.7000    2.0300   34.9100 C.ar      5 PHE5        0.0000 
     41 CZ          7.3300    2.6100   35.0400 C.ar      5 PHE5        0.0000 
     42 CZ          5.4900    1.9500   35.8600 C.ar      5 PHE5        0.0000 
     43 CZ          7.7000    3.2100   36.3600 C.ar      5 PHE5        0.0000 
     44 CA         12.1700   -0.2700   29.8700 C.3       6 GLY6        0.0000 
     45 CA         10.3300   -0.9300   30.6900 C.3       6 GLY6        0.0000 
     46 CA          4.8300    1.4000   31.2000 C.3       6 GLY6        0.0000 
     47 CA          3.4500    1.9800   31.3200 C.3       6 GLY6        0.0000 
     48 CA          2.9900    0.7400   32.0200 C.3       6 GLY6        0.0000 
     49 CA          5.2000    2.0000   32.5200 C.3       6 GLY6        0.0000 
     50 CA          3.3600    1.3400   33.3400 C.3       6 GLY6        0.0000 
     51 CA          5.5800    2.6000   33.8400 C.3       6 GLY6        0.0000 
     52 CA          3.7400    1.9300   34.6700 C.3       6 GLY6        0.0000 
     53 CA          2.3600    2.5200   34.7900 C.3       6 GLY6        0.0000 
     54 CA          5.0400    5.0200   34.6000 C.3       6 GLY6        0.0000 
     55 CA          3.6600    5.6100   34.7300 C.3       6 GLY6        0.0000 
     56 CA          4.5800    3.7800   35.3000 C.3       6 GLY6        0.0000 
     57 CA          3.2000    4.3600   35.4200 C.3       6 GLY6        0.0000 
     58 DU         11.7200    2.8100   28.6100 H         7 CUB7        0.0000 
     59 DU         11.2600    1.5600   29.3000 H         7 CUB7        0.0000 
     60 DU         10.7900    0.3100   29.9900 H         7 CUB7        0.0000 
     61 DU          9.4200    0.9000   30.1200 H         7 CUB7        0.0000 
     62 DU         11.1700    0.9100   31.3200 H         7 CUB7        0.0000 
     63 DU          5.9500    3.1900   35.1700 H         7 CUB7        0.0000 
@<TRIPOS>BOND
@<TRIPOS>SUBSTRUCTURE
     1 SER1        1 GROUP   
     2 ALA2        3 GROUP   
     3 ASP3       17 GROUP   
     4 LYS4       25 GROUP   
     5 PHE5       26 GROUP   
     6 GLY6       44 GROUP   
     7 CUB7       58 GROUP   
@<TRIPOS>SET

