#    Name: 5uii_1_NAP_CAVITY_N1_8
#    Modification time : Fri May 22 19:13:51 2020

@<TRIPOS>MOLECULE
5uii_1_NAP_CAVITY_N1_8
   74     0     6     0     0
SMALL
NO_CHARGES


@<TRIPOS>ATOM
      1 OG         11.4400   16.6300   16.0500 O.3       1 SER1        0.0000 
      2 OG         12.6100    9.7200   24.9500 O.3       1 SER1        0.0000 
      3 OG         13.0100   10.7000   23.8900 O.3       1 SER1        0.0000 
      4 O          13.9600   12.4200   15.2400 O.2       2 ALA2        0.0000 
      5 O          12.7300   13.2300   15.5200 O.2       2 ALA2        0.0000 
      6 O          11.9100   15.0200   14.7500 O.2       2 ALA2        0.0000 
      7 O          13.9200   11.2500   18.3800 O.2       2 ALA2        0.0000 
      8 O          13.9000   15.0000   15.4800 O.2       2 ALA2        0.0000 
      9 O          12.6700   15.8200   15.7700 O.2       2 ALA2        0.0000 
     10 N          15.5100   10.2500   20.1800 N.am      2 ALA2        0.0000 
     11 O          14.2800   11.0600   20.4600 O.2       2 ALA2        0.0000 
     12 O          18.3200    8.4300   21.6900 O.2       2 ALA2        0.0000 
     13 O          17.0900    9.2400   21.9700 O.2       2 ALA2        0.0000 
     14 O          18.3000   12.1900   18.7900 O.2       2 ALA2        0.0000 
     15 O          14.2400    9.8900   23.6100 O.2       2 ALA2        0.0000 
     16 O          14.6400   10.8700   22.5400 O.2       2 ALA2        0.0000 
     17 N          21.1200   10.3700   20.3000 N.am      2 ALA2        0.0000 
     18 N          19.0800    9.2200   22.7100 N.am      2 ALA2        0.0000 
     19 O          19.8900   11.1800   20.5800 O.2       2 ALA2        0.0000 
     20 O          17.8600   10.0400   22.9900 O.2       2 ALA2        0.0000 
     21 O          18.6600   12.0000   20.8700 O.2       2 ALA2        0.0000 
     22 O          16.6300   10.8500   23.2800 O.2       2 ALA2        0.0000 
     23 N          21.8800   11.1600   21.3200 N.am      2 ALA2        0.0000 
     24 N          20.6500   11.9800   21.6000 N.am      2 ALA2        0.0000 
     25 N          19.4200   12.7900   21.8900 N.am      2 ALA2        0.0000 
     26 N          21.4100   12.7700   22.6200 N.am      2 ALA2        0.0000 
     27 OD1        12.2500    9.9100   22.8700 O.co2     3 ASP3        0.0000 
     28 OD1        12.6500   10.8900   21.8100 O.co2     3 ASP3        0.0000 
     29 OD1        11.4200   11.7100   22.1000 O.co2     3 ASP3        0.0000 
     30 CZ         12.2900   11.0800   19.7300 C.ar      4 PHE5        0.0000 
     31 CZ         12.6900   12.0600   18.6700 C.ar      4 PHE5        0.0000 
     32 CZ         13.0900   13.0400   17.6000 C.ar      4 PHE5        0.0000 
     33 CZ         12.2700   14.8400   16.8300 C.ar      4 PHE5        0.0000 
     34 CZ         11.0400   15.6500   17.1100 C.ar      4 PHE5        0.0000 
     35 CZ         13.0500   11.8700   20.7500 C.ar      4 PHE5        0.0000 
     36 CZ         13.4500   12.8500   19.6900 C.ar      4 PHE5        0.0000 
     37 CA         13.5600   11.4400   16.3000 C.3       5 GLY6        0.0000 
     38 CA         12.3300   12.2500   16.5800 C.3       5 GLY6        0.0000 
     39 CA         13.1400   14.2100   14.4600 C.3       5 GLY6        0.0000 
     40 CA         11.5100   14.0400   15.8100 C.3       5 GLY6        0.0000 
     41 CA         10.2800   14.8600   16.0900 C.3       5 GLY6        0.0000 
     42 CA         14.3200   12.2300   17.3200 C.3       5 GLY6        0.0000 
     43 CA         14.7200   13.2100   16.2600 C.3       5 GLY6        0.0000 
     44 CA         13.5000   14.0200   16.5400 C.3       5 GLY6        0.0000 
     45 CA         17.1400   10.4100   18.8300 C.3       5 GLY6        0.0000 
     46 CA         15.9100   11.2300   19.1100 C.3       5 GLY6        0.0000 
     47 CA         16.3100   12.2100   18.0500 C.3       5 GLY6        0.0000 
     48 CA         13.4700    9.1000   22.5900 C.3       5 GLY6        0.0000 
     49 CA         13.8800   10.0800   21.5200 C.3       5 GLY6        0.0000 
     50 CA         15.0800   13.0200   18.3400 C.3       5 GLY6        0.0000 
     51 CA         13.8600   13.8300   18.6200 C.3       5 GLY6        0.0000 
     52 CA         18.7200    9.4100   20.6200 C.3       5 GLY6        0.0000 
     53 CA         19.1300   10.3900   19.5600 C.3       5 GLY6        0.0000 
     54 CA         17.5000   10.2200   20.9100 C.3       5 GLY6        0.0000 
     55 CA         17.9000   11.2100   19.8500 C.3       5 GLY6        0.0000 
     56 CA         15.8700   10.0600   22.2600 C.3       5 GLY6        0.0000 
     57 CA         16.6700   12.0200   20.1400 C.3       5 GLY6        0.0000 
     58 CA         17.0700   13.0000   19.0700 C.3       5 GLY6        0.0000 
     59 CA         15.4400   12.8300   20.4200 C.3       5 GLY6        0.0000 
     60 CA         15.8500   13.8100   19.3600 C.3       5 GLY6        0.0000 
     61 CA         20.7100    9.3900   21.3600 C.3       5 GLY6        0.0000 
     62 CA         19.4900   10.2000   21.6500 C.3       5 GLY6        0.0000 
     63 CA         17.4300   12.8100   21.1600 C.3       5 GLY6        0.0000 
     64 CA         21.4800   10.1800   22.3800 C.3       5 GLY6        0.0000 
     65 DU         14.6800   12.0400   19.4000 H         6 CUB7        0.0000 
     66 DU         16.2700   11.0400   21.2000 H         6 CUB7        0.0000 
     67 DU         15.0400   11.8500   21.4800 H         6 CUB7        0.0000 
     68 DU         13.4100   11.6800   22.8300 H         6 CUB7        0.0000 
     69 DU         13.8100   12.6600   21.7700 H         6 CUB7        0.0000 
     70 DU         14.2200   13.6500   20.7100 H         6 CUB7        0.0000 
     71 DU         18.2600   11.0200   21.9300 H         6 CUB7        0.0000 
     72 DU         17.0300   11.8300   22.2200 H         6 CUB7        0.0000 
     73 DU         20.2500   11.0000   22.6700 H         6 CUB7        0.0000 
     74 DU         19.0200   11.8100   22.9500 H         6 CUB7        0.0000 
@<TRIPOS>BOND
@<TRIPOS>SUBSTRUCTURE
     1 SER1        1 GROUP   
     2 ALA2        4 GROUP   
     3 ASP3       27 GROUP   
     4 PHE5       30 GROUP   
     5 GLY6       37 GROUP   
     6 CUB7       65 GROUP   
@<TRIPOS>SET

