#    Name: 5uii_1_NAP
#    Modification time : Fri May 22 19:13:49 2020

@<TRIPOS>MOLECULE
5uii_1_NAP
   45    47     1     0     1
SMALL
NO_CHARGES


@<TRIPOS>ATOM
      1 PA         13.3880   12.7710   15.9080 P.3       1 NAP201      0.0000 
      2 O1A        12.6790   11.7990   14.9680 O.co2     1 NAP201      0.0000 
      3 O2A        14.8220   13.2050   15.6310 O.co2     1 NAP201      0.0000 
      4 O5B        13.3040   12.0870   17.3440 O.3       1 NAP201      0.0000 
      5 C5B        13.8230   12.7510   18.4880 C.3       1 NAP201      0.0000 
      6 C4B        13.8210   11.7690   19.6310 C.3       1 NAP201      0.0000 
      7 O4B        14.8730   10.7920   19.4240 O.3       1 NAP201      0.0000 
      8 C3B        14.1260   12.3720   20.9900 C.3       1 NAP201      0.0000 
      9 O3B        12.9750   12.9800   21.5760 O.3       1 NAP201      0.0000 
     10 C2B        14.6170   11.1410   21.7410 C.3       1 NAP201      0.0000 
     11 O2B        13.5620   10.2370   22.0700 O.3       1 NAP201      0.0000 
     12 C1B        15.4650   10.4780   20.6710 C.3       1 NAP201      0.0000 
     13 N9A        16.8630   10.8840   20.6550 N.pl3     1 NAP201      0.0000 
     14 C8A        17.5000   11.7560   19.8050 C.2       1 NAP201      0.0000 
     15 N7A        18.7850   11.8750   20.0610 N.2       1 NAP201      0.0000 
     16 C5A        19.0060   11.0220   21.1290 C.ar      1 NAP201      0.0000 
     17 C6A        20.1590   10.6870   21.8660 C.ar      1 NAP201      0.0000 
     18 N6A        21.3670   11.2040   21.6240 N.pl3     1 NAP201      0.0000 
     19 N1A        20.0260    9.7960   22.8690 N.ar      1 NAP201      0.0000 
     20 C2A        18.8210    9.2760   23.1060 C.ar      1 NAP201      0.0000 
     21 N3A        17.6700    9.5110   22.4850 N.ar      1 NAP201      0.0000 
     22 C4A        17.8340   10.4010   21.4970 C.ar      1 NAP201      0.0000 
     23 O3         12.4470   14.0400   16.1800 O.3       1 NAP201      0.0000 
     24 PN         12.4750   15.5110   15.5600 P.3       1 NAP201      0.0000 
     25 O1N        12.3380   15.4290   14.0300 O.co2     1 NAP201      0.0000 
     26 O2N        13.6950   16.2320   16.1230 O.co2     1 NAP201      0.0000 
     27 O5D        11.1330   16.1240   16.2050 O.3       1 NAP201      0.0000 
     28 C5D         9.8900   15.7280   15.6500 C.3       1 NAP201      0.0000 
     29 P2B        12.8860   10.2390   23.5120 P.3       1 NAP201      0.0000 
     30 O1X        12.1250    8.9400   23.5260 O.co2     1 NAP201      0.0000 
     31 O2X        11.9890   11.4440   23.5520 O.co2     1 NAP201      0.0000 
     32 O3X        13.9900   10.2700   24.5380 O.co2     1 NAP201      0.0000 
     33 H51A       13.2640   13.5130   18.7080 H         1 NAP201      0.0000 
     34 H52A       14.7290   13.0480   18.3120 H         1 NAP201      0.0000 
     35 H4B        12.9640   11.3160   19.6650 H         1 NAP201      0.0000 
     36 H3B        14.8430   13.0210   20.9110 H         1 NAP201      0.0000 
     37 HO3A       13.1420   13.8110   21.6390 H         1 NAP201      0.0000 
     38 H2B        15.1430   11.3790   22.5210 H         1 NAP201      0.0000 
     39 H1B        15.4250    9.5170   20.7980 H         1 NAP201      0.0000 
     40 H8A        17.0650   12.2250   19.1300 H         1 NAP201      0.0000 
     41 H61A       22.0390   10.9700   22.1070 H         1 NAP201      0.0000 
     42 H62A       21.4700   11.7770   20.9910 H         1 NAP201      0.0000 
     43 H2A        18.7790    8.6670   23.8080 H         1 NAP201      0.0000 
     44 H51N        9.7640   14.7760   15.7860 H         1 NAP201      0.0000 
     45 H52N        9.8830   15.9220   14.7000 H         1 NAP201      0.0000 
@<TRIPOS>BOND
     1    1    2 ar   
     2    1    3 ar   
     3    1    4 1    
     4    1   23 1    
     5    4    5 1    
     6    5    6 1    
     7    5   33 1    
     8    5   34 1    
     9    6    7 1    
    10    6    8 1    
    11    6   35 1    
    12    7   12 1    
    13    8    9 1    
    14    8   10 1    
    15    8   36 1    
    16    9   37 1    
    17   10   11 1    
    18   10   12 1    
    19   10   38 1    
    20   11   29 1    
    21   12   13 1    
    22   12   39 1    
    23   13   14 1    
    24   13   22 1    
    25   14   15 2    
    26   15   16 1    
    27   14   40 1    
    28   16   17 ar   
    29   16   22 ar   
    30   17   18 1    
    31   17   19 ar   
    32   19   20 ar   
    33   18   41 1    
    34   18   42 1    
    35   20   21 ar   
    36   21   22 ar   
    37   20   43 1    
    38   23   24 1    
    39   24   25 ar   
    40   24   26 ar   
    41   24   27 1    
    42   27   28 1    
    43   28   44 1    
    44   28   45 1    
    45   29   30 ar   
    46   29   31 ar   
    47   29   32 ar   
@<TRIPOS>SUBSTRUCTURE
     1 NAP201      1 GROUP   
@<TRIPOS>SET
ATOM$ORANGE STATIC     ATOMS   COLORGROUP SYSTEM 
22 5 5 6 6 8 8 10 10 12 12 14 14 16 16 17 17 20 \
20 22 22 28 28 

