#    Name: 6op9_1_DB8
#    Modification time : Fri May 22 19:25:26 2020

@<TRIPOS>MOLECULE
6op9_1_DB8
   36    39     1     0     0
SMALL
NO_CHARGES


@<TRIPOS>ATOM
      1 CAA       -52.5580  -16.3930   13.3490 C.3       1 DB81101     0.0000 
      2 O02       -43.5090  -15.6330   12.9320 O.3       1 DB81101     0.0000 
      3 CAC       -55.9110  -12.3080   14.4150 C.3       1 DB81101     0.0000 
      4 NAD       -45.2170  -13.0730   10.0350 N.1       1 DB81101     0.0000 
      5 CL1       -42.5190  -17.3270   10.8120 Cl        1 DB81101     0.0000 
      6 CL2       -47.6290  -17.1700    8.9250 Cl        1 DB81101     0.0000 
      7 CAG       -46.2440  -13.0370   10.5110 C.1       1 DB81101     0.0000 
      8 CAH       -47.8280  -11.7700   11.2840 C.ar      1 DB81101     0.0000 
      9 CAI       -45.2270  -17.1300   10.0000 C.ar      1 DB81101     0.0000 
     10 CAJ       -45.7970  -15.5080   12.2040 C.ar      1 DB81101     0.0000 
     11 CAK       -51.2030  -11.7780   12.8050 C.ar      1 DB81101     0.0000 
     12 CAL       -50.6990  -14.5300   12.5300 C.ar      1 DB81101     0.0000 
     13 CAM       -55.4490  -11.2870   13.3650 C.3       1 DB81101     0.0000 
     14 CAN       -53.9170  -11.2070   13.3770 C.3       1 DB81101     0.0000 
     15 CAO       -59.4780  -10.5040   18.3510 C.3       1 DB81101     0.0000 
     16 CAP       -56.9320  -12.6050   16.5370 C.3       1 DB81101     0.0000 
     17 CAQ       -57.7590  -10.9100   15.0260 C.3       1 DB81101     0.0000 
     18 CAR       -57.7360  -11.9740   17.6750 C.3       1 DB81101     0.0000 
     19 CAS       -58.5440  -10.2490   16.1670 C.3       1 DB81101     0.0000 
     20 NAT       -49.0020  -11.3030   11.8340 N.ar      1 DB81101     0.0000 
     21 NAU       -48.1770  -15.4030   11.3740 N.pl3     1 DB81101     0.0000 
     22 OAV       -52.8770  -15.0320   13.5200 O.3       1 DB81101     0.0000 
     23 OAW       -53.4000  -12.4500   13.7800 O.3       1 DB81101     0.0000 
     24 CAX       -44.5180  -15.9730   12.0160 C.ar      1 DB81101     0.0000 
     25 CAY       -44.2260  -16.7870   10.9350 C.ar      1 DB81101     0.0000 
     26 CAZ       -46.5160  -16.6380   10.2100 C.ar      1 DB81101     0.0000 
     27 CBA       -47.6240  -13.1670   11.1530 C.ar      1 DB81101     0.0000 
     28 CBB       -46.7870  -15.8360   11.3000 C.ar      1 DB81101     0.0000 
     29 CBC       -51.9040  -14.1060   13.0800 C.ar      1 DB81101     0.0000 
     30 CBD       -52.1470  -12.7260   13.2140 C.ar      1 DB81101     0.0000 
     31 CBE       -48.5800  -14.0230   11.5770 C.ar      1 DB81101     0.0000 
     32 CBF       -49.9750  -12.2040   12.2490 C.ar      1 DB81101     0.0000 
     33 CBG       -49.7490  -13.5650   12.1230 C.ar      1 DB81101     0.0000 
     34 NBH       -56.5840  -11.6260   15.5170 N.4       1 DB81101     0.0000 
     35 NBI       -58.8820  -11.2000   17.2180 N.3       1 DB81101     0.0000 
     36 C01       -43.9140  -14.7900   13.9790 C.3       1 DB81101     0.0000 
@<TRIPOS>BOND
     1    1   22 1    
     2    2   24 1    
     3    2   36 1    
     4    3   13 1    
     5    3   34 1    
     6    4    7 3    
     7    5   25 1    
     8    6   26 1    
     9    7   27 1    
    10    8   20 ar   
    11    8   27 ar   
    12    9   25 ar   
    13    9   26 ar   
    14   10   24 ar   
    15   10   28 ar   
    16   11   30 ar   
    17   11   32 ar   
    18   12   29 ar   
    19   12   33 ar   
    20   13   14 1    
    21   14   23 1    
    22   15   35 1    
    23   16   18 1    
    24   16   34 1    
    25   17   19 1    
    26   17   34 1    
    27   18   35 1    
    28   19   35 1    
    29   20   32 ar   
    30   21   28 1    
    31   21   31 1    
    32   22   29 1    
    33   23   30 1    
    34   24   25 ar   
    35   26   28 ar   
    36   27   31 ar   
    37   29   30 ar   
    38   31   33 ar   
    39   32   33 ar   
@<TRIPOS>SUBSTRUCTURE
     1 DB81101     1 GROUP   
@<TRIPOS>SET

