#    Name: 6r0z_2_ADP
#    Modification time : Fri May 22 19:25:38 2020

@<TRIPOS>MOLECULE
6r0z_2_ADP
   27    29     1     0     1
SMALL
NO_CHARGES


@<TRIPOS>ATOM
      1 PB         75.0500   79.4240  212.3240 P.3       1 ADP603      0.0000 
      2 O1B        76.0040   80.2630  211.5130 O.co2     1 ADP603      0.0000 
      3 O2B        75.5490   78.0250  212.5800 O.co2     1 ADP603      0.0000 
      4 O3B        74.5060   80.1290  213.5370 O.co2     1 ADP603      0.0000 
      5 PA         72.5840   78.2010  211.5610 P.3       1 ADP603      0.0000 
      6 O1A        71.2790   78.8840  211.2260 O.co2     1 ADP603      0.0000 
      7 O2A        72.7180   77.5200  212.9030 O.co2     1 ADP603      0.0000 
      8 O3A        73.7630   79.2830  211.3630 O.3       1 ADP603      0.0000 
      9 O5'        72.8880   77.1450  210.3850 O.3       1 ADP603      0.0000 
     10 C5'        73.8100   76.0770  210.5750 C.3       1 ADP603      0.0000 
     11 C4'        74.7500   76.0130  209.3820 C.3       1 ADP603      0.0000 
     12 O4'        75.5110   74.8070  209.4220 O.3       1 ADP603      0.0000 
     13 C3'        73.9980   76.0160  208.0640 C.3       1 ADP603      0.0000 
     14 O3'        74.1820   77.2740  207.4200 O.3       1 ADP603      0.0000 
     15 C2'        74.6380   74.9410  207.2150 C.3       1 ADP603      0.0000 
     16 O2'        75.2070   75.5450  206.0510 O.3       1 ADP603      0.0000 
     17 C1'        75.7210   74.3290  208.0930 C.3       1 ADP603      0.0000 
     18 N9         75.6630   72.8450  208.0500 N.pl3     1 ADP603      0.0000 
     19 C8         74.5590   72.1070  207.8380 C.2       1 ADP603      0.0000 
     20 N7         74.8460   70.7810  207.8490 N.2       1 ADP603      0.0000 
     21 C5         76.1670   70.6550  208.0680 C.ar      1 ADP603      0.0000 
     22 C6         77.1250   69.5320  208.1990 C.ar      1 ADP603      0.0000 
     23 N6         76.7320   68.2420  208.0970 N.pl3     1 ADP603      0.0000 
     24 N1         78.4150   69.8390  208.4220 N.ar      1 ADP603      0.0000 
     25 C2         78.8360   71.1100  208.5310 C.ar      1 ADP603      0.0000 
     26 N3         78.0260   72.1780  208.4220 N.ar      1 ADP603      0.0000 
     27 C4         76.7020   72.0180  208.1930 C.ar      1 ADP603      0.0000 
@<TRIPOS>BOND
     1    1    2 ar   
     2    1    3 ar   
     3    1    4 ar   
     4    1    8 1    
     5    5    6 ar   
     6    5    7 ar   
     7    5    8 1    
     8    5    9 1    
     9    9   10 1    
    10   10   11 1    
    11   11   12 1    
    12   11   13 1    
    13   12   17 1    
    14   13   14 1    
    15   13   15 1    
    16   15   16 1    
    17   15   17 1    
    18   17   18 1    
    19   18   19 1    
    20   18   27 1    
    21   19   20 2    
    22   20   21 1    
    23   21   22 ar   
    24   21   27 ar   
    25   22   23 1    
    26   22   24 ar   
    27   24   25 ar   
    28   25   26 ar   
    29   26   27 ar   
@<TRIPOS>SUBSTRUCTURE
     1 ADP603      1 GROUP   
@<TRIPOS>SET
ATOM$ORANGE STATIC     ATOMS   COLORGROUP SYSTEM 
20 10 10 11 11 13 13 15 15 17 17 19 19 21 21 22 22 25 \
25 27 27 

