#    Name: 6r0z_1_ADP
#    Modification time : Fri May 22 19:25:29 2020

@<TRIPOS>MOLECULE
6r0z_1_ADP
   27    29     1     0     1
SMALL
NO_CHARGES


@<TRIPOS>ATOM
      1 PB         79.7630   95.3730  180.9610 P.3       1 ADP602      0.0000 
      2 O1B        78.4660   95.8080  180.3350 O.co2     1 ADP602      0.0000 
      3 O2B        79.9380   93.8790  181.0490 O.co2     1 ADP602      0.0000 
      4 O3B        80.1020   96.1170  182.2250 O.co2     1 ADP602      0.0000 
      5 PA         81.3890   97.3840  179.9730 P.3       1 ADP602      0.0000 
      6 O1A        80.1720   98.2290  180.2480 O.co2     1 ADP602      0.0000 
      7 O2A        82.5630   97.4280  180.9170 O.co2     1 ADP602      0.0000 
      8 O3A        80.8750   95.8640  179.9070 O.3       1 ADP602      0.0000 
      9 O5'        81.9370   97.7200  178.4970 O.3       1 ADP602      0.0000 
     10 C5'        82.4380   96.7120  177.6240 C.3       1 ADP602      0.0000 
     11 C4'        83.2810   97.3710  176.5370 C.3       1 ADP602      0.0000 
     12 O4'        82.4400   97.8460  175.4890 O.3       1 ADP602      0.0000 
     13 C3'        84.0540   98.5660  177.0640 C.3       1 ADP602      0.0000 
     14 O3'        85.4510   98.2790  177.1010 O.3       1 ADP602      0.0000 
     15 C2'        83.8110   99.6920  176.0860 C.3       1 ADP602      0.0000 
     16 O2'        85.0250  100.0110  175.4030 O.3       1 ADP602      0.0000 
     17 C1'        82.8020   99.1680  175.0880 C.3       1 ADP602      0.0000 
     18 N9         81.6000  100.0320  175.1410 N.pl3     1 ADP602      0.0000 
     19 C8         80.5160   99.7950  175.8950 C.2       1 ADP602      0.0000 
     20 N7         79.5820  100.7630  175.7370 N.2       1 ADP602      0.0000 
     21 C5         80.0730  101.6510  174.8560 C.ar      1 ADP602      0.0000 
     22 C6         79.6000  102.9120  174.2460 C.ar      1 ADP602      0.0000 
     23 N6         78.3870  103.4250  174.5500 N.pl3     1 ADP602      0.0000 
     24 N1         80.4180  103.5270  173.3680 N.ar      1 ADP602      0.0000 
     25 C2         81.6260  103.0240  173.0550 C.ar      1 ADP602      0.0000 
     26 N3         82.1200  101.8860  173.5740 N.ar      1 ADP602      0.0000 
     27 C4         81.4040  101.1640  174.4650 C.ar      1 ADP602      0.0000 
@<TRIPOS>BOND
     1    1    2 ar   
     2    1    3 ar   
     3    1    4 ar   
     4    1    8 1    
     5    5    6 ar   
     6    5    7 ar   
     7    5    8 1    
     8    5    9 1    
     9    9   10 1    
    10   10   11 1    
    11   11   12 1    
    12   11   13 1    
    13   12   17 1    
    14   13   14 1    
    15   13   15 1    
    16   15   16 1    
    17   15   17 1    
    18   17   18 1    
    19   18   19 1    
    20   18   27 1    
    21   19   20 2    
    22   20   21 1    
    23   21   22 ar   
    24   21   27 ar   
    25   22   23 1    
    26   22   24 ar   
    27   24   25 ar   
    28   25   26 ar   
    29   26   27 ar   
@<TRIPOS>SUBSTRUCTURE
     1 ADP602      1 GROUP   
@<TRIPOS>SET
ATOM$ORANGE STATIC     ATOMS   COLORGROUP SYSTEM 
20 10 10 11 11 13 13 15 15 17 17 19 19 21 21 22 22 25 \
25 27 27 

