#    Name: 6fpm_1_TAC
#    Modification time : Fri May 22 19:29:49 2020

@<TRIPOS>MOLECULE
6fpm_1_TAC
   32    35     1     0     0
SMALL
NO_CHARGES


@<TRIPOS>ATOM
      1 C1         19.9780   34.4180   34.6190 C.2       1 TAC301      0.0000 
      2 O1         19.4560   34.9830   33.6170 O.2       1 TAC301      0.0000 
      3 C2         19.3960   33.3750   35.4710 C.2       1 TAC301      0.0000 
      4 C21        18.1300   32.7150   35.0780 C.2       1 TAC301      0.0000 
      5 O21        17.6530   31.8180   35.7730 O.2       1 TAC301      0.0000 
      6 N21        17.5480   33.0990   33.9410 N.am      1 TAC301      0.0000 
      7 C3         20.1010   32.9890   36.5990 C.2       1 TAC301      0.0000 
      8 O3         20.0900   31.7490   37.0510 O.co2     1 TAC301      0.0000 
      9 C4         20.9870   33.9050   37.4120 C.3       1 TAC301      0.0000 
     10 N4         22.0840   33.0840   38.0660 N.4       1 TAC301      0.0000 
     11 C42        22.6840   33.8590   39.2000 C.3       1 TAC301      0.0000 
     12 C43        23.2160   32.6700   37.1960 C.3       1 TAC301      0.0000 
     13 C41        21.3980   35.0880   36.5260 C.3       1 TAC301      0.0000 
     14 C5         20.4570   36.2830   36.7000 C.3       1 TAC301      0.0000 
     15 C51        21.0810   37.5150   36.0860 C.3       1 TAC301      0.0000 
     16 C6         20.0690   38.6620   36.0560 C.3       1 TAC301      0.0000 
     17 C62        19.5480   39.1000   37.4310 C.3       1 TAC301      0.0000 
     18 O6         18.8870   38.2090   35.3390 O.3       1 TAC301      0.0000 
     19 C61        20.6720   39.8360   35.3370 C.ar      1 TAC301      0.0000 
     20 C7         20.3020   41.1310   35.6780 C.ar      1 TAC301      0.0000 
     21 C8         20.8180   42.2150   34.9920 C.ar      1 TAC301      0.0000 
     22 C9         21.7210   42.0580   33.9580 C.ar      1 TAC301      0.0000 
     23 C10        22.1440   40.8100   33.5290 C.ar      1 TAC301      0.0000 
     24 O10        23.0430   40.6840   32.5080 O.co2     1 TAC301      0.0000 
     25 C1A        21.6070   39.6360   34.2260 C.ar      1 TAC301      0.0000 
     26 C11        22.0220   38.2540   33.8530 C.2       1 TAC301      0.0000 
     27 O11        22.7170   38.0380   32.9000 O.2       1 TAC301      0.0000 
     28 C1B        21.6370   37.1720   34.7170 C.2       1 TAC301      0.0000 
     29 C12        21.9060   35.9190   34.2870 C.2       1 TAC301      0.0000 
     30 O12        22.6680   35.6910   33.1910 O.co2     1 TAC301      0.0000 
     31 C1C        21.3860   34.7350   35.0290 C.3       1 TAC301      0.0000 
     32 O1C        22.1720   33.5640   34.7670 O.3       1 TAC301      0.0000 
@<TRIPOS>BOND
     1   20   21 ar   
     2   21   22 ar   
     3   22   23 ar   
     4   23   24 ar   
     5   23   25 ar   
     6   25   26 1    
     7   26   27 2    
     8   26   28 1    
     9   28   29 2    
    10   29   30 ar   
    11   29   31 1    
    12   31   32 1    
    13    1    2 2    
    14    1    3 1    
    15    1   31 1    
    16    3    4 1    
    17    3    7 2    
    18    4    5 2    
    19    4    6 am   
    20    7    8 ar   
    21    7    9 1    
    22    9   10 1    
    23    9   13 1    
    24   10   11 1    
    25   10   12 1    
    26   13   14 1    
    27   13   31 1    
    28   14   15 1    
    29   15   16 1    
    30   15   28 1    
    31   16   17 1    
    32   16   18 1    
    33   16   19 1    
    34   19   20 ar   
    35   19   25 ar   
@<TRIPOS>SUBSTRUCTURE
     1 TAC301      1 GROUP   
@<TRIPOS>SET

