#    Name: 5nu7_1_RTL
#    Modification time : Fri May 22 19:13:16 2020

@<TRIPOS>MOLECULE
5nu7_1_RTL
   21    21     1     0     0
SMALL
NO_CHARGES


@<TRIPOS>ATOM
      1 C1         18.1000    8.8750   -0.3930 C.3       1 RTL201      0.0000 
      2 C2         19.4580    8.2560   -0.7110 C.3       1 RTL201      0.0000 
      3 C3         19.5300    6.8410   -0.1630 C.3       1 RTL201      0.0000 
      4 C4         18.5130    5.9600   -0.8660 C.3       1 RTL201      0.0000 
      5 C5         17.1400    6.5980   -0.8670 C.2       1 RTL201      0.0000 
      6 C6         16.9550    7.9170   -0.6680 C.2       1 RTL201      0.0000 
      7 C7         15.5920    8.4760   -0.5450 C.2       1 RTL201      0.0000 
      8 C8         14.6010    7.6800   -0.1760 C.2       1 RTL201      0.0000 
      9 C9         13.2680    8.2520    0.0990 C.2       1 RTL201      0.0000 
     10 C10        12.3660    7.4930    0.7390 C.2       1 RTL201      0.0000 
     11 C11        11.0340    7.9690    1.1150 C.2       1 RTL201      0.0000 
     12 C12        10.2530    7.1070    1.7640 C.2       1 RTL201      0.0000 
     13 C13         8.8820    7.4140    2.2100 C.2       1 RTL201      0.0000 
     14 C14         8.2000    6.4370    2.8260 C.2       1 RTL201      0.0000 
     15 C15         6.7850    6.6430    3.3090 C.3       1 RTL201      0.0000 
     16 O1          5.9030    5.8130    2.5390 O.3       1 RTL201      0.0000 
     17 C16        17.9140   10.1810   -1.1610 C.3       1 RTL201      0.0000 
     18 C17        18.0340    9.1540    1.1050 C.3       1 RTL201      0.0000 
     19 C18        15.9700    5.6950   -1.1690 C.3       1 RTL201      0.0000 
     20 C19        12.9610    9.6750   -0.2700 C.3       1 RTL201      0.0000 
     21 C20         8.2540    8.7560    1.9750 C.3       1 RTL201      0.0000 
@<TRIPOS>BOND
     1    1    2 1    
     2    1    6 1    
     3    1   17 1    
     4    1   18 1    
     5    2    3 1    
     6    3    4 1    
     7    4    5 1    
     8    5    6 2    
     9    5   19 1    
    10    6    7 1    
    11    7    8 2    
    12    8    9 1    
    13    9   10 2    
    14    9   20 1    
    15   10   11 1    
    16   11   12 2    
    17   12   13 1    
    18   13   14 2    
    19   13   21 1    
    20   14   15 1    
    21   15   16 1    
@<TRIPOS>SUBSTRUCTURE
     1 RTL201      1 GROUP   
@<TRIPOS>SET

