#    Name: 6d88_5_ACP
#    Modification time : Fri May 22 19:25:32 2020

@<TRIPOS>MOLECULE
6d88_5_ACP
   45    47     1     0     1
SMALL
NO_CHARGES


@<TRIPOS>ATOM
      1 PG          8.2480  -49.5940  -93.3090 P.3       1 ACP401      0.0000 
      2 O1G         7.0590  -50.3360  -93.8810 O.co2     1 ACP401      0.0000 
      3 O2G         7.7810  -48.6270  -92.2390 O.co2     1 ACP401      0.0000 
      4 O3G         9.2130  -50.5870  -92.6950 O.co2     1 ACP401      0.0000 
      5 PB          9.8750  -50.0230  -95.7520 P.3       1 ACP401      0.0000 
      6 O1B         8.8630  -51.1330  -95.9410 O.co2     1 ACP401      0.0000 
      7 O2B        11.1160  -50.5290  -95.0510 O.co2     1 ACP401      0.0000 
      8 C3B         9.0990  -48.6920  -94.7080 C.3       1 ACP401      0.0000 
      9 PA         10.7020  -50.6890  -98.4090 P.3       1 ACP401      0.0000 
     10 O1A         9.6210  -51.7160  -98.6600 O.co2     1 ACP401      0.0000 
     11 O2A        11.9220  -51.4180  -97.9040 O.co2     1 ACP401      0.0000 
     12 O3A        10.2590  -49.5670  -97.2810 O.3       1 ACP401      0.0000 
     13 O5'        11.0840  -49.8300  -99.7680 O.3       1 ACP401      0.0000 
     14 C5'        10.5330  -50.1420 -101.0180 C.3       1 ACP401      0.0000 
     15 C4'         9.3820  -49.1670 -101.3940 C.3       1 ACP401      0.0000 
     16 O4'         9.2700  -49.1240 -102.6950 O.3       1 ACP401      0.0000 
     17 C3'         8.0830  -49.7450 -100.8040 C.3       1 ACP401      0.0000 
     18 O3'         7.4600  -48.8380 -100.0020 O.3       1 ACP401      0.0000 
     19 C2'         7.2440  -50.0560 -102.0520 C.3       1 ACP401      0.0000 
     20 O2'         6.2540  -48.9400 -102.1940 O.3       1 ACP401      0.0000 
     21 C1'         8.0180  -50.0520 -103.0940 C.3       1 ACP401      0.0000 
     22 N9          8.4880  -51.3710 -103.4230 N.pl3     1 ACP401      0.0000 
     23 C8          8.9940  -52.3070 -102.6190 C.2       1 ACP401      0.0000 
     24 N7          9.3060  -53.3740 -103.3460 N.2       1 ACP401      0.0000 
     25 C5          8.9740  -53.0960 -104.6060 C.ar      1 ACP401      0.0000 
     26 C6          9.0780  -53.8460 -105.7380 C.ar      1 ACP401      0.0000 
     27 N6          9.5710  -55.1830 -105.9790 N.pl3     1 ACP401      0.0000 
     28 N1          8.6810  -53.3420 -106.8860 N.ar      1 ACP401      0.0000 
     29 C2          8.1660  -52.0900 -106.9420 C.ar      1 ACP401      0.0000 
     30 N3          8.0640  -51.3490 -105.8190 N.ar      1 ACP401      0.0000 
     31 C4          8.4720  -51.8650 -104.6570 C.ar      1 ACP401      0.0000 
     32 H3B1        8.4550  -48.1850  -95.2270 H         1 ACP401      0.0000 
     33 H3B2        9.7780  -48.0920  -94.3620 H         1 ACP401      0.0000 
     34 H5'1       10.1840  -51.0470 -100.9920 H         1 ACP401      0.0000 
     35 H5'2       11.2280  -50.0840 -101.6920 H         1 ACP401      0.0000 
     36 H4'         9.5100  -48.2610 -101.0740 H         1 ACP401      0.0000 
     37 H3'         8.2560  -50.5460 -100.2860 H         1 ACP401      0.0000 
     38 HO3'        6.9270  -49.2420  -99.4780 H         1 ACP401      0.0000 
     39 H2'         6.8520  -50.9400 -101.9710 H         1 ACP401      0.0000 
     40 HO2'        5.4750  -49.2640 -102.2930 H         1 ACP401      0.0000 
     41 H1'         7.5280  -49.6830 -103.8460 H         1 ACP401      0.0000 
     42 H8          9.1100  -52.2250 -101.7000 H         1 ACP401      0.0000 
     43 HN61       10.2490  -55.4770 -105.5390 H         1 ACP401      0.0000 
     44 HN62        9.1860  -55.6840 -106.5610 H         1 ACP401      0.0000 
     45 H2          7.8830  -51.7410 -107.7560 H         1 ACP401      0.0000 
@<TRIPOS>BOND
     1    1    2 ar   
     2    1    3 ar   
     3    1    4 ar   
     4    1    8 1    
     5    5    6 ar   
     6    5    7 ar   
     7    5    8 1    
     8    5   12 1    
     9    8   32 1    
    10    8   33 1    
    11    9   10 ar   
    12    9   11 ar   
    13    9   12 1    
    14    9   13 1    
    15   13   14 1    
    16   14   15 1    
    17   14   34 1    
    18   14   35 1    
    19   15   16 1    
    20   15   17 1    
    21   15   36 1    
    22   16   21 1    
    23   17   18 1    
    24   17   19 1    
    25   17   37 1    
    26   18   38 1    
    27   19   20 1    
    28   19   21 1    
    29   19   39 1    
    30   21   41 1    
    31   21   22 1    
    32   20   40 1    
    33   22   23 1    
    34   22   31 1    
    35   23   24 2    
    36   24   25 1    
    37   23   42 1    
    38   25   26 ar   
    39   25   31 ar   
    40   26   27 1    
    41   26   28 ar   
    42   28   29 ar   
    43   27   43 1    
    44   27   44 1    
    45   29   30 ar   
    46   30   31 ar   
    47   29   45 1    
@<TRIPOS>SUBSTRUCTURE
     1 ACP401      1 GROUP   
@<TRIPOS>SET
ATOM$ORANGE STATIC     ATOMS   COLORGROUP SYSTEM 
22 8 8 14 14 15 15 17 17 19 19 21 21 23 23 25 25 26 \
26 29 29 31 31 

