#    Name: 6gfo_1_NAD
#    Modification time : Fri May 22 19:27:21 2020

@<TRIPOS>MOLECULE
6gfo_1_NAD
   44    48     1     0     1
SMALL
NO_CHARGES


@<TRIPOS>ATOM
      1 PA         45.5550   47.6880   75.8820 P.3       1 NAD1001     0.0000 
      2 O1A        46.1690   48.4910   76.9800 O.co2     1 NAD1001     0.0000 
      3 O2A        45.1080   46.2830   76.1750 O.co2     1 NAD1001     0.0000 
      4 O5B        46.4040   47.7240   74.5320 O.3       1 NAD1001     0.0000 
      5 C5B        47.4080   48.7060   74.2610 C.3       1 NAD1001     0.0000 
      6 C4B        48.6630   47.9920   73.7660 C.3       1 NAD1001     0.0000 
      7 O4B        49.5570   48.8900   73.0700 O.3       1 NAD1001     0.0000 
      8 C3B        49.4320   47.4480   74.9580 C.3       1 NAD1001     0.0000 
      9 O3B        49.9930   46.1690   74.6130 O.3       1 NAD1001     0.0000 
     10 C2B        50.5340   48.4880   75.1390 C.3       1 NAD1001     0.0000 
     11 O2B        51.6900   48.0450   75.8670 O.3       1 NAD1001     0.0000 
     12 C1B        50.8380   48.9000   73.7160 C.3       1 NAD1001     0.0000 
     13 N9A        51.3870   50.2780   73.6280 N.pl3     1 NAD1001     0.0000 
     14 C8A        51.1270   51.3340   74.4350 C.2       1 NAD1001     0.0000 
     15 N7A        51.7950   52.4440   74.0240 N.2       1 NAD1001     0.0000 
     16 C5A        52.4950   52.0960   72.9300 C.ar      1 NAD1001     0.0000 
     17 C6A        53.4250   52.7630   71.9920 C.ar      1 NAD1001     0.0000 
     18 N6A        53.7630   54.0660   72.1250 N.pl3     1 NAD1001     0.0000 
     19 N1A        53.9240   52.0200   70.9880 N.ar      1 NAD1001     0.0000 
     20 C2A        53.6320   50.7180   70.8250 C.ar      1 NAD1001     0.0000 
     21 N3A        52.8020   50.0440   71.6360 N.ar      1 NAD1001     0.0000 
     22 C4A        52.2250   50.6690   72.6830 C.ar      1 NAD1001     0.0000 
     23 O3         44.2400   48.5190   75.3850 O.3       1 NAD1001     0.0000 
     24 PN         43.0590   47.9230   74.4460 P.3       1 NAD1001     0.0000 
     25 O1N        43.6520   46.9210   73.4930 O.co2     1 NAD1001     0.0000 
     26 O2N        41.9110   47.5260   75.3460 O.co2     1 NAD1001     0.0000 
     27 O5D        42.6360   49.2040   73.6050 O.3       1 NAD1001     0.0000 
     28 C5D        43.4400   49.6690   72.5240 C.3       1 NAD1001     0.0000 
     29 C4D        42.6340   50.6660   71.7100 C.3       1 NAD1001     0.0000 
     30 O4D        41.4260   50.0730   71.2320 O.3       1 NAD1001     0.0000 
     31 C3D        42.2020   51.8300   72.5710 C.3       1 NAD1001     0.0000 
     32 O3D        42.1160   52.9260   71.6680 O.3       1 NAD1001     0.0000 
     33 C2D        40.7900   51.5030   72.9880 C.3       1 NAD1001     0.0000 
     34 O2D        40.0820   52.7130   73.2310 O.3       1 NAD1001     0.0000 
     35 C1D        40.2810   50.7730   71.7570 C.3       1 NAD1001     0.0000 
     36 N1N        39.1760   49.8260   71.9940 N.pl3     1 NAD1001     0.0000 
     37 C2N        39.1450   49.0100   73.0640 C.ar      1 NAD1001     0.0000 
     38 C3N        38.0780   48.1170   73.2280 C.ar      1 NAD1001     0.0000 
     39 C7N        37.9720   47.1740   74.4020 C.2       1 NAD1001     0.0000 
     40 O7N        36.8590   46.7530   74.7090 O.2       1 NAD1001     0.0000 
     41 N7N        39.0660   46.7770   75.0670 N.am      1 NAD1001     0.0000 
     42 C4N        37.0670   48.0720   72.2740 C.ar      1 NAD1001     0.0000 
     43 C5N        37.1260   48.9080   71.1760 C.ar      1 NAD1001     0.0000 
     44 C6N        38.2040   49.7750   71.0620 C.ar      1 NAD1001     0.0000 
@<TRIPOS>BOND
     1    1    2 ar   
     2    1    3 ar   
     3    1    4 1    
     4    1   23 1    
     5    4    5 1    
     6    5    6 1    
     7    6    7 1    
     8    6    8 1    
     9    7   12 1    
    10    8    9 1    
    11    8   10 1    
    12   10   11 1    
    13   10   12 1    
    14   12   13 1    
    15   13   14 1    
    16   13   22 1    
    17   14   15 2    
    18   15   16 1    
    19   16   17 ar   
    20   16   22 ar   
    21   17   18 1    
    22   17   19 ar   
    23   19   20 ar   
    24   20   21 ar   
    25   21   22 ar   
    26   23   24 1    
    27   24   25 ar   
    28   24   26 ar   
    29   24   27 1    
    30   27   28 1    
    31   28   29 1    
    32   29   30 1    
    33   29   31 1    
    34   30   35 1    
    35   31   32 1    
    36   31   33 1    
    37   33   34 1    
    38   33   35 1    
    39   35   36 1    
    40   36   37 ar   
    41   36   44 ar   
    42   37   38 ar   
    43   38   39 1    
    44   38   42 ar   
    45   39   40 2    
    46   39   41 am   
    47   42   43 ar   
    48   43   44 ar   
@<TRIPOS>SUBSTRUCTURE
     1 NAD1001     1 GROUP   
@<TRIPOS>SET
ATOM$ORANGE STATIC     ATOMS   COLORGROUP SYSTEM 
42 5 5 6 6 8 8 10 10 12 12 14 14 16 16 17 17 20 \
20 22 22 28 28 29 29 31 31 33 33 35 35 37 37 38 38 39 \
39 42 42 43 43 44 44 

