#    Name: 6gfo_3_NAD
#    Modification time : Fri May 22 19:27:34 2020

@<TRIPOS>MOLECULE
6gfo_3_NAD
   44    48     1     0     1
SMALL
NO_CHARGES


@<TRIPOS>ATOM
      1 PA         17.7800   36.2860  102.2830 P.3       1 NAD1001     0.0000 
      2 O1A        17.6850   34.9870  101.5620 O.co2     1 NAD1001     0.0000 
      3 O2A        19.1460   36.8410  102.6930 O.co2     1 NAD1001     0.0000 
      4 O5B        16.8870   36.2060  103.6050 O.3       1 NAD1001     0.0000 
      5 C5B        15.7080   35.3910  103.7360 C.3       1 NAD1001     0.0000 
      6 C4B        15.7580   34.7570  105.1270 C.3       1 NAD1001     0.0000 
      7 O4B        14.5330   34.0900  105.4020 O.3       1 NAD1001     0.0000 
      8 C3B        16.8520   33.6900  105.1900 C.3       1 NAD1001     0.0000 
      9 O3B        17.5180   33.7970  106.4570 O.3       1 NAD1001     0.0000 
     10 C2B        16.1030   32.3710  105.0730 C.3       1 NAD1001     0.0000 
     11 O2B        16.7780   31.2370  105.6470 O.3       1 NAD1001     0.0000 
     12 C1B        14.7970   32.7260  105.7750 C.3       1 NAD1001     0.0000 
     13 N9A        13.6260   31.8970  105.3980 N.pl3     1 NAD1001     0.0000 
     14 C8A        13.3500   31.3880  104.1790 C.2       1 NAD1001     0.0000 
     15 N7A        12.1750   30.6900  104.2070 N.2       1 NAD1001     0.0000 
     16 C5A        11.6820   30.7490  105.4640 C.ar      1 NAD1001     0.0000 
     17 C6A        10.4820   30.2350  106.1830 C.ar      1 NAD1001     0.0000 
     18 N6A         9.5430   29.4820  105.5560 N.pl3     1 NAD1001     0.0000 
     19 N1A        10.3610   30.5330  107.4980 N.ar      1 NAD1001     0.0000 
     20 C2A        11.2800   31.2690  108.1530 C.ar      1 NAD1001     0.0000 
     21 N3A        12.3880   31.7590  107.5650 N.ar      1 NAD1001     0.0000 
     22 C4A        12.6440   31.5420  106.2460 C.ar      1 NAD1001     0.0000 
     23 O3         16.9930   37.3180  101.3190 O.3       1 NAD1001     0.0000 
     24 PN         16.8880   38.9270  101.4830 P.3       1 NAD1001     0.0000 
     25 O1N        16.9510   39.3190  102.9400 O.co2     1 NAD1001     0.0000 
     26 O2N        17.8380   39.5300  100.4740 O.co2     1 NAD1001     0.0000 
     27 O5D        15.3780   39.0950  100.9850 O.3       1 NAD1001     0.0000 
     28 C5D        14.2750   38.9380  101.8870 C.3       1 NAD1001     0.0000 
     29 C4D        13.0810   39.7290  101.3580 C.3       1 NAD1001     0.0000 
     30 O4D        13.4450   41.1110  101.2980 O.3       1 NAD1001     0.0000 
     31 C3D        12.6830   39.3350   99.9410 C.3       1 NAD1001     0.0000 
     32 O3D        11.2570   39.4870   99.8460 O.3       1 NAD1001     0.0000 
     33 C2D        13.3810   40.3740   99.0730 C.3       1 NAD1001     0.0000 
     34 O2D        12.7880   40.5700   97.7820 O.3       1 NAD1001     0.0000 
     35 C1D        13.2730   41.6060   99.9590 C.3       1 NAD1001     0.0000 
     36 N1N        14.2450   42.6750   99.7040 N.pl3     1 NAD1001     0.0000 
     37 C2N        15.5540   42.4170   99.4940 C.ar      1 NAD1001     0.0000 
     38 C3N        16.4340   43.4770   99.2730 C.ar      1 NAD1001     0.0000 
     39 C7N        17.9100   43.2370   99.0300 C.2       1 NAD1001     0.0000 
     40 O7N        18.5520   44.0680   98.4050 O.2       1 NAD1001     0.0000 
     41 N7N        18.4790   42.1310   99.5030 N.am      1 NAD1001     0.0000 
     42 C4N        15.9680   44.7920   99.2960 C.ar      1 NAD1001     0.0000 
     43 C5N        14.6210   45.0320   99.5060 C.ar      1 NAD1001     0.0000 
     44 C6N        13.7780   43.9440   99.7240 C.ar      1 NAD1001     0.0000 
@<TRIPOS>BOND
     1    1    2 ar   
     2    1    3 ar   
     3    1    4 1    
     4    1   23 1    
     5    4    5 1    
     6    5    6 1    
     7    6    7 1    
     8    6    8 1    
     9    7   12 1    
    10    8    9 1    
    11    8   10 1    
    12   10   11 1    
    13   10   12 1    
    14   12   13 1    
    15   13   14 1    
    16   13   22 1    
    17   14   15 2    
    18   15   16 1    
    19   16   17 ar   
    20   16   22 ar   
    21   17   18 1    
    22   17   19 ar   
    23   19   20 ar   
    24   20   21 ar   
    25   21   22 ar   
    26   23   24 1    
    27   24   25 ar   
    28   24   26 ar   
    29   24   27 1    
    30   27   28 1    
    31   28   29 1    
    32   29   30 1    
    33   29   31 1    
    34   30   35 1    
    35   31   32 1    
    36   31   33 1    
    37   33   34 1    
    38   33   35 1    
    39   35   36 1    
    40   36   37 ar   
    41   36   44 ar   
    42   37   38 ar   
    43   38   39 1    
    44   38   42 ar   
    45   39   40 2    
    46   39   41 am   
    47   42   43 ar   
    48   43   44 ar   
@<TRIPOS>SUBSTRUCTURE
     1 NAD1001     1 GROUP   
@<TRIPOS>SET
ATOM$ORANGE STATIC     ATOMS   COLORGROUP SYSTEM 
42 5 5 6 6 8 8 10 10 12 12 14 14 16 16 17 17 20 \
20 22 22 28 28 29 29 31 31 33 33 35 35 37 37 38 38 39 \
39 42 42 43 43 44 44 

