#    Name: 6gfo_3_NAD_CAVITY_N1_4
#    Modification time : Fri May 22 19:27:36 2020

@<TRIPOS>MOLECULE
6gfo_3_NAD_CAVITY_N1_4
   77     0     6     0     0
SMALL
NO_CHARGES


@<TRIPOS>ATOM
      1 OG         15.0100   40.1400   95.4300 O.3       1 SER1        0.0000 
      2 OG         15.9300   40.9500   96.2900 O.3       1 SER1        0.0000 
      3 N          14.1200   43.3200   95.9900 N.am      2 ALA2        0.0000 
      4 O          16.9700   38.1500   97.8200 O.2       2 ALA2        0.0000 
      5 N          12.7200   40.8500   99.7900 N.am      2 ALA2        0.0000 
      6 N          13.7600   38.0500  101.3100 N.am      2 ALA2        0.0000 
      7 O          12.8600   39.2300  101.1500 O.2       2 ALA2        0.0000 
      8 N          11.9500   40.4200  101.0000 N.am      2 ALA2        0.0000 
      9 N          16.7100   43.3800   95.7900 N.am      2 ALA2        0.0000 
     10 N          15.9400   42.9500   97.0100 N.am      2 ALA2        0.0000 
     11 N          15.0300   44.1400   96.8500 N.am      2 ALA2        0.0000 
     12 N          13.5000   43.2800   99.2800 N.am      2 ALA2        0.0000 
     13 N          13.6400   41.6600  100.6500 N.am      2 ALA2        0.0000 
     14 N          14.6800   38.8600  102.1700 N.am      2 ALA2        0.0000 
     15 N          13.7700   40.0500  102.0200 N.am      2 ALA2        0.0000 
     16 N          16.8500   43.7600   97.8700 N.am      2 ALA2        0.0000 
     17 N          15.1800   44.5200   98.9400 N.am      2 ALA2        0.0000 
     18 O          17.2700   38.9200  101.9800 O.2       2 ALA2        0.0000 
     19 O          18.6800   43.3900   98.8900 O.2       2 ALA2        0.0000 
     20 N          17.7700   44.5700   98.7400 N.am      2 ALA2        0.0000 
     21 OD1        14.0900   39.3300   94.5600 O.co2     3 ASP3        0.0000 
     22 CZ         14.4100   44.0900  100.1500 C.ar      4 PHE5        0.0000 
     23 CA         14.2300   37.7100   95.9300 C.3       5 GLY6        0.0000 
     24 CA         10.7500   40.8400   96.6900 C.3       5 GLY6        0.0000 
     25 CA         15.1500   38.5200   96.8000 C.3       5 GLY6        0.0000 
     26 CA         13.6100   37.6700   99.2300 C.3       5 GLY6        0.0000 
     27 CA         17.7500   40.5800   97.3100 C.3       5 GLY6        0.0000 
     28 CA         16.8400   41.7600   97.1600 C.3       5 GLY6        0.0000 
     29 CA         17.8900   38.9600   98.6800 C.3       5 GLY6        0.0000 
     30 CA         16.9800   40.1500   98.5300 C.3       5 GLY6        0.0000 
     31 CA         18.0300   37.3500  100.0500 C.3       5 GLY6        0.0000 
     32 CA         15.3100   40.9100   99.5900 C.3       5 GLY6        0.0000 
     33 CA         14.4000   42.0900   99.4400 C.3       5 GLY6        0.0000 
     34 CA         14.5400   40.4800  100.8100 C.3       5 GLY6        0.0000 
     35 CA         18.6700   41.3900   98.1800 C.3       5 GLY6        0.0000 
     36 CA         17.7600   42.5800   98.0300 C.3       5 GLY6        0.0000 
     37 CA         16.9900   42.1500   99.2400 C.3       5 GLY6        0.0000 
     38 CA         16.0900   43.3300   99.0900 C.3       5 GLY6        0.0000 
     39 CA         18.0400   39.3500  100.7600 C.3       5 GLY6        0.0000 
     40 CA         17.1300   40.5300  100.6100 C.3       5 GLY6        0.0000 
     41 CA         16.2300   41.7200  100.4600 C.3       5 GLY6        0.0000 
     42 CA         15.3200   42.9000  100.3000 C.3       5 GLY6        0.0000 
     43 CA         16.3600   40.1000  101.8300 C.3       5 GLY6        0.0000 
     44 CA         18.8200   41.7700  100.2600 C.3       5 GLY6        0.0000 
     45 CA         17.9100   42.9600  100.1100 C.3       5 GLY6        0.0000 
     46 CA         17.0000   44.1500   99.9600 C.3       5 GLY6        0.0000 
     47 DU         12.4100   38.0900   94.9100 H         6 CUB7        0.0000 
     48 DU         10.6000   40.4600   94.6100 H         6 CUB7        0.0000 
     49 DU         13.1900   40.5100   94.4100 H         6 CUB7        0.0000 
     50 DU         12.2800   41.7000   94.2600 H         6 CUB7        0.0000 
     51 DU         13.3300   38.9000   95.7800 H         6 CUB7        0.0000 
     52 DU         11.5100   41.2700   95.4700 H         6 CUB7        0.0000 
     53 DU         13.4600   37.2800   97.1500 H         6 CUB7        0.0000 
     54 DU         12.5600   38.4700   96.9900 H         6 CUB7        0.0000 
     55 DU         14.1000   41.3300   95.2800 H         6 CUB7        0.0000 
     56 DU         13.2000   42.5100   95.1200 H         6 CUB7        0.0000 
     57 DU         14.2400   39.7100   96.6400 H         6 CUB7        0.0000 
     58 DU         15.2900   36.9100   98.1600 H         6 CUB7        0.0000 
     59 DU         14.3800   38.1000   98.0100 H         6 CUB7        0.0000 
     60 DU         13.4800   39.2800   97.8600 H         6 CUB7        0.0000 
     61 DU         12.5700   40.4700   97.7100 H         6 CUB7        0.0000 
     62 DU         15.0200   42.1400   96.1400 H         6 CUB7        0.0000 
     63 DU         16.0700   39.3400   97.6600 H         6 CUB7        0.0000 
     64 DU         15.1600   40.5200   97.5100 H         6 CUB7        0.0000 
     65 DU         16.2000   37.7200   99.0300 H         6 CUB7        0.0000 
     66 DU         13.4900   41.2800   98.5700 H         6 CUB7        0.0000 
     67 DU         15.4400   37.2900  100.2500 H         6 CUB7        0.0000 
     68 DU         14.5300   38.4800  100.0900 H         6 CUB7        0.0000 
     69 DU         13.6200   39.6600   99.9400 H         6 CUB7        0.0000 
     70 DU         16.0800   41.3400   98.3800 H         6 CUB7        0.0000 
     71 DU         15.1700   42.5200   98.2200 H         6 CUB7        0.0000 
     72 DU         14.2600   43.7100   98.0700 H         6 CUB7        0.0000 
     73 DU         17.1200   38.5300   99.9000 H         6 CUB7        0.0000 
     74 DU         16.2100   39.7200   99.7400 H         6 CUB7        0.0000 
     75 DU         16.3500   38.1000  101.1100 H         6 CUB7        0.0000 
     76 DU         15.4500   39.2900  100.9600 H         6 CUB7        0.0000 
     77 DU         17.9000   40.9600   99.4000 H         6 CUB7        0.0000 
@<TRIPOS>BOND
@<TRIPOS>SUBSTRUCTURE
     1 SER1        1 GROUP   
     2 ALA2        3 GROUP   
     3 ASP3       21 GROUP   
     4 PHE5       22 GROUP   
     5 GLY6       23 GROUP   
     6 CUB7       47 GROUP   
@<TRIPOS>SET

