#    Name: 6gfo_4_NAD
#    Modification time : Fri May 22 19:27:47 2020

@<TRIPOS>MOLECULE
6gfo_4_NAD
   44    48     1     0     1
SMALL
NO_CHARGES


@<TRIPOS>ATOM
      1 PA         50.7560   51.5450   94.4540 P.3       1 NAD1001     0.0000 
      2 O1A        51.0750   51.3770   92.9890 O.co2     1 NAD1001     0.0000 
      3 O2A        49.3210   51.6530   94.9180 O.co2     1 NAD1001     0.0000 
      4 O5B        51.5250   52.8430   95.0340 O.3       1 NAD1001     0.0000 
      5 C5B        52.6530   53.4080   94.3620 C.3       1 NAD1001     0.0000 
      6 C4B        52.4850   54.9250   94.3390 C.3       1 NAD1001     0.0000 
      7 O4B        53.7370   55.5620   94.0760 O.3       1 NAD1001     0.0000 
      8 C3B        51.5460   55.3380   93.2170 C.3       1 NAD1001     0.0000 
      9 O3B        50.8000   56.4660   93.6660 O.3       1 NAD1001     0.0000 
     10 C2B        52.4750   55.7750   92.1070 C.3       1 NAD1001     0.0000 
     11 O2B        51.8330   56.6940   91.2280 O.3       1 NAD1001     0.0000 
     12 C1B        53.6000   56.3930   92.9210 C.3       1 NAD1001     0.0000 
     13 N9A        54.9030   56.4530   92.2220 N.pl3     1 NAD1001     0.0000 
     14 C8A        55.4210   55.5570   91.3590 C.2       1 NAD1001     0.0000 
     15 N7A        56.6510   55.9660   90.9340 N.2       1 NAD1001     0.0000 
     16 C5A        56.9230   57.1400   91.5310 C.ar      1 NAD1001     0.0000 
     17 C6A        58.0400   58.1140   91.5180 C.ar      1 NAD1001     0.0000 
     18 N6A        59.1370   57.8780   90.7540 N.pl3     1 NAD1001     0.0000 
     19 N1A        57.9270   59.2200   92.2890 N.ar      1 NAD1001     0.0000 
     20 C2A        56.8440   59.4480   93.0500 C.ar      1 NAD1001     0.0000 
     21 N3A        55.7840   58.6100   93.0970 N.ar      1 NAD1001     0.0000 
     22 C4A        55.7700   57.4610   92.3760 C.ar      1 NAD1001     0.0000 
     23 O3         51.5200   50.3630   95.2370 O.3       1 NAD1001     0.0000 
     24 PN         51.4280   50.0180   96.8070 P.3       1 NAD1001     0.0000 
     25 O1N        51.1650   51.2430   97.6480 O.co2     1 NAD1001     0.0000 
     26 O2N        50.5240   48.8170   96.9230 O.co2     1 NAD1001     0.0000 
     27 O5D        52.9380   49.5070   97.0540 O.3       1 NAD1001     0.0000 
     28 C5D        54.0330   50.4150   97.2940 C.3       1 NAD1001     0.0000 
     29 C4D        55.2170   49.6490   97.8790 C.3       1 NAD1001     0.0000 
     30 O4D        54.8670   49.1260   99.1690 O.3       1 NAD1001     0.0000 
     31 C3D        55.5870   48.4520   97.0140 C.3       1 NAD1001     0.0000 
     32 O3D        57.0090   48.2660   97.0870 O.3       1 NAD1001     0.0000 
     33 C2D        54.9010   47.2800   97.6950 C.3       1 NAD1001     0.0000 
     34 O2D        55.5790   46.0560   97.4360 O.3       1 NAD1001     0.0000 
     35 C1D        54.9960   47.6810   99.1540 C.3       1 NAD1001     0.0000 
     36 N1N        53.9670   47.0160   99.9580 N.pl3     1 NAD1001     0.0000 
     37 C2N        52.7040   46.8720   99.4910 C.ar      1 NAD1001     0.0000 
     38 C3N        51.7290   46.2300  100.2600 C.ar      1 NAD1001     0.0000 
     39 C7N        50.3060   46.0380   99.7630 C.2       1 NAD1001     0.0000 
     40 O7N        49.6520   45.0880  100.1750 O.2       1 NAD1001     0.0000 
     41 N7N        49.7730   46.8650   98.8650 N.am      1 NAD1001     0.0000 
     42 C4N        52.0770   45.7590  101.5260 C.ar      1 NAD1001     0.0000 
     43 C5N        53.3840   45.9240  101.9840 C.ar      1 NAD1001     0.0000 
     44 C6N        54.3110   46.5690  101.1720 C.ar      1 NAD1001     0.0000 
@<TRIPOS>BOND
     1    1    2 ar   
     2    1    3 ar   
     3    1    4 1    
     4    1   23 1    
     5    4    5 1    
     6    5    6 1    
     7    6    7 1    
     8    6    8 1    
     9    7   12 1    
    10    8    9 1    
    11    8   10 1    
    12   10   11 1    
    13   10   12 1    
    14   12   13 1    
    15   13   14 1    
    16   13   22 1    
    17   14   15 2    
    18   15   16 1    
    19   16   17 ar   
    20   16   22 ar   
    21   17   18 1    
    22   17   19 ar   
    23   19   20 ar   
    24   20   21 ar   
    25   21   22 ar   
    26   23   24 1    
    27   24   25 ar   
    28   24   26 ar   
    29   24   27 1    
    30   27   28 1    
    31   28   29 1    
    32   29   30 1    
    33   29   31 1    
    34   30   35 1    
    35   31   32 1    
    36   31   33 1    
    37   33   34 1    
    38   33   35 1    
    39   35   36 1    
    40   36   37 ar   
    41   36   44 ar   
    42   37   38 ar   
    43   38   39 1    
    44   38   42 ar   
    45   39   40 2    
    46   39   41 am   
    47   42   43 ar   
    48   43   44 ar   
@<TRIPOS>SUBSTRUCTURE
     1 NAD1001     1 GROUP   
@<TRIPOS>SET
ATOM$ORANGE STATIC     ATOMS   COLORGROUP SYSTEM 
42 5 5 6 6 8 8 10 10 12 12 14 14 16 16 17 17 20 \
20 22 22 28 28 29 29 31 31 33 33 35 35 37 37 38 38 39 \
39 42 42 43 43 44 44 

