#    Name: 6u0t_1_GDP_CAVITY_N1_4
#    Modification time : Fri May 22 19:27:57 2020

@<TRIPOS>MOLECULE
6u0t_1_GDP_CAVITY_N1_4
  105     0     6     0     0
SMALL
NO_CHARGES


@<TRIPOS>ATOM
      1 OG        362.2300  365.3800  543.7600 O.3       1 SER1        0.0000 
      2 OG        361.4200  364.1400  543.9700 O.3       1 SER1        0.0000 
      3 OG        363.5300  364.8000  545.3300 O.3       1 SER1        0.0000 
      4 OG        362.7200  363.5500  545.5400 O.3       1 SER1        0.0000 
      5 OG        361.9200  362.3100  545.7500 O.3       1 SER1        0.0000 
      6 OG        363.1800  361.5000  545.8400 O.3       1 SER1        0.0000 
      7 OG        361.8600  367.8800  546.4300 O.3       1 SER1        0.0000 
      8 OG        363.9300  368.3200  546.3000 O.3       1 SER1        0.0000 
      9 OG        358.2100  365.1700  548.4500 O.3       1 SER1        0.0000 
     10 OG        362.1000  357.4100  549.5200 O.3       1 SER1        0.0000 
     11 OG        364.1700  357.8500  549.4000 O.3       1 SER1        0.0000 
     12 N         358.0900  364.5000  544.0100 N.am      2 ALA2        0.0000 
     13 N         360.9700  366.1900  543.6700 N.am      2 ALA2        0.0000 
     14 N         360.1600  364.9400  543.8800 N.am      2 ALA2        0.0000 
     15 N         359.3500  363.7000  544.0900 N.am      2 ALA2        0.0000 
     16 N         363.0400  366.6300  543.5500 N.am      2 ALA2        0.0000 
     17 O         358.4800  368.0200  544.9800 O.2       2 ALA2        0.0000 
     18 N         359.7500  367.2200  545.0700 N.am      2 ALA2        0.0000 
     19 N         361.8200  367.6600  544.9400 N.am      2 ALA2        0.0000 
     20 N         361.0100  366.4100  545.1500 N.am      2 ALA2        0.0000 
     21 O         361.5600  359.0100  546.2600 O.2       2 ALA2        0.0000 
     22 O         362.8200  358.2100  546.3500 O.2       2 ALA2        0.0000 
     23 N         357.8100  361.6500  547.4800 N.am      2 ALA2        0.0000 
     24 N         359.0800  360.8500  547.5700 N.am      2 ALA2        0.0000 
     25 O         364.0300  362.9700  547.1100 O.2       2 ALA2        0.0000 
     26 O         362.0500  357.1900  548.0400 O.2       2 ALA2        0.0000 
     27 O         364.1300  357.6300  547.9200 O.2       2 ALA2        0.0000 
     28 N         359.9300  362.3200  548.8400 N.am      2 ALA2        0.0000 
     29 N         360.3800  360.2700  549.1400 N.am      2 ALA2        0.0000 
     30 N         362.4500  360.7100  549.0100 N.am      2 ALA2        0.0000 
     31 N         361.6400  359.4600  549.2200 N.am      2 ALA2        0.0000 
     32 N         360.8300  358.2200  549.4300 N.am      2 ALA2        0.0000 
     33 N         363.3000  362.1800  550.2800 N.am      2 ALA2        0.0000 
     34 N         362.4900  360.9300  550.5000 N.am      2 ALA2        0.0000 
     35 N         361.6800  359.6900  550.7100 N.am      2 ALA2        0.0000 
     36 N         360.8700  358.4400  550.9200 N.am      2 ALA2        0.0000 
     37 N         362.9500  358.8800  550.7900 N.am      2 ALA2        0.0000 
     38 O         364.2100  358.0700  550.8800 O.2       2 ALA2        0.0000 
     39 O         363.4000  356.8300  551.0900 O.2       2 ALA2        0.0000 
     40 N         362.5300  361.1600  551.9800 N.am      2 ALA2        0.0000 
     41 NZ        364.3400  366.0400  545.1200 N.4       3 LYS4        0.0000 
     42 NZ        360.6000  368.6900  546.3400 N.4       3 LYS4        0.0000 
     43 NZ        359.7900  367.4400  546.5500 N.4       3 LYS4        0.0000 
     44 NZ        361.0500  366.6300  546.6400 N.4       3 LYS4        0.0000 
     45 NZ        364.3800  366.2700  546.6000 N.4       3 LYS4        0.0000 
     46 NZ        363.5800  365.0200  546.8100 N.4       3 LYS4        0.0000 
     47 NZ        364.8400  364.2200  546.9000 N.4       3 LYS4        0.0000 
     48 NZ        359.0200  366.4200  548.2400 N.4       3 LYS4        0.0000 
     49 NZ        361.9000  368.1000  547.9100 N.4       3 LYS4        0.0000 
     50 NZ        361.0900  366.8600  548.1200 N.4       3 LYS4        0.0000 
     51 NZ        360.2800  365.6100  548.3300 N.4       3 LYS4        0.0000 
     52 NZ        363.6200  365.2500  548.2900 N.4       3 LYS4        0.0000 
     53 NZ        364.0700  363.2000  548.5900 N.4       3 LYS4        0.0000 
     54 NZ        362.1400  357.6400  551.0000 N.4       3 LYS4        0.0000 
     55 CZ        358.9400  365.9700  545.2800 C.ar      4 PHE5        0.0000 
     56 CZ        358.1300  364.7200  545.4900 C.ar      4 PHE5        0.0000 
     57 CZ        358.9800  366.1900  546.7600 C.ar      4 PHE5        0.0000 
     58 CZ        358.1700  364.9500  546.9700 C.ar      4 PHE5        0.0000 
     59 CA        362.3300  360.0300  544.5700 C.3       5 GLY6        0.0000 
     60 CA        363.5900  359.2300  544.6500 C.3       5 GLY6        0.0000 
     61 CA        359.3900  363.9200  545.5800 C.3       5 GLY6        0.0000 
     62 CA        358.5800  362.6700  545.7900 C.3       5 GLY6        0.0000 
     63 CA        363.0800  366.8500  545.0300 C.3       5 GLY6        0.0000 
     64 CA        360.6500  363.1100  545.6600 C.3       5 GLY6        0.0000 
     65 CA        359.8400  361.8700  545.8700 C.3       5 GLY6        0.0000 
     66 CA        361.1100  361.0600  545.9600 C.3       5 GLY6        0.0000 
     67 CA        362.3700  360.2600  546.0500 C.3       5 GLY6        0.0000 
     68 CA        363.6300  359.4500  546.1300 C.3       5 GLY6        0.0000 
     69 CA        360.3400  360.0400  547.6500 C.3       5 GLY6        0.0000 
     70 CA        363.2200  361.7300  547.3200 C.3       5 GLY6        0.0000 
     71 CA        362.4100  360.4800  547.5300 C.3       5 GLY6        0.0000 
     72 CA        361.6000  359.2400  547.7400 C.3       5 GLY6        0.0000 
     73 CA        363.6700  359.6800  547.6200 C.3       5 GLY6        0.0000 
     74 CA        362.8600  358.4300  547.8300 C.3       5 GLY6        0.0000 
     75 CA        363.1600  367.3000  548.0000 C.3       5 GLY6        0.0000 
     76 CA        362.3500  366.0500  548.2100 C.3       5 GLY6        0.0000 
     77 CA        362.8100  364.0000  548.5000 C.3       5 GLY6        0.0000 
     78 CA        363.2600  361.9500  548.8000 C.3       5 GLY6        0.0000 
     79 CA        363.7100  359.9000  549.1000 C.3       5 GLY6        0.0000 
     80 CA        362.4000  366.2800  549.6900 C.3       5 GLY6        0.0000 
     81 CA        361.5900  365.0300  549.9000 C.3       5 GLY6        0.0000 
     82 CA        362.0400  362.9800  550.2000 C.3       5 GLY6        0.0000 
     83 DU        360.2000  365.1600  545.3700 H         6 CUB7        0.0000 
     84 DU        362.2700  365.6000  545.2400 H         6 CUB7        0.0000 
     85 DU        361.4600  364.3600  545.4500 H         6 CUB7        0.0000 
     86 DU        360.2400  365.3900  546.8500 H         6 CUB7        0.0000 
     87 DU        359.4300  364.1400  547.0600 H         6 CUB7        0.0000 
     88 DU        358.6200  362.9000  547.2700 H         6 CUB7        0.0000 
     89 DU        363.1200  367.0700  546.5100 H         6 CUB7        0.0000 
     90 DU        362.3100  365.8300  546.7200 H         6 CUB7        0.0000 
     91 DU        361.5000  364.5800  546.9300 H         6 CUB7        0.0000 
     92 DU        360.6900  363.3400  547.1500 H         6 CUB7        0.0000 
     93 DU        359.8900  362.0900  547.3600 H         6 CUB7        0.0000 
     94 DU        362.7700  363.7800  547.0200 H         6 CUB7        0.0000 
     95 DU        361.9600  362.5300  547.2300 H         6 CUB7        0.0000 
     96 DU        361.1500  361.2900  547.4400 H         6 CUB7        0.0000 
     97 DU        359.4700  364.3700  548.5400 H         6 CUB7        0.0000 
     98 DU        358.6600  363.1200  548.7500 H         6 CUB7        0.0000 
     99 DU        361.5400  364.8100  548.4200 H         6 CUB7        0.0000 
    100 DU        360.7400  363.5600  548.6300 H         6 CUB7        0.0000 
    101 DU        362.0000  362.7600  548.7200 H         6 CUB7        0.0000 
    102 DU        361.1900  361.5100  548.9300 H         6 CUB7        0.0000 
    103 DU        362.9000  358.6600  549.3100 H         6 CUB7        0.0000 
    104 DU        360.7800  363.7900  550.1100 H         6 CUB7        0.0000 
    105 DU        361.2300  361.7400  550.4100 H         6 CUB7        0.0000 
@<TRIPOS>BOND
@<TRIPOS>SUBSTRUCTURE
     1 SER1        1 GROUP   
     2 ALA2       12 GROUP   
     3 LYS4       41 GROUP   
     4 PHE5       55 GROUP   
     5 GLY6       59 GROUP   
     6 CUB7       83 GROUP   
@<TRIPOS>SET

