#    Name: 6u0t_10_GDP
#    Modification time : Fri May 22 19:29:02 2020

@<TRIPOS>MOLECULE
6u0t_10_GDP
   28    30     1     0     1
SMALL
NO_CHARGES


@<TRIPOS>ATOM
      1 PB        363.8900  306.1680  557.8410 P.3       1 GDP501      0.0000 
      2 O1B       364.4380  305.9270  556.4690 O.co2     1 GDP501      0.0000 
      3 O2B       362.5400  305.5240  557.9750 O.co2     1 GDP501      0.0000 
      4 O3B       364.8260  305.5940  558.8460 O.co2     1 GDP501      0.0000 
      5 O3A       363.7550  307.8020  558.0840 O.3       1 GDP501      0.0000 
      6 PA        362.7020  308.7730  557.2270 P.3       1 GDP501      0.0000 
      7 O1A       362.0540  307.9520  556.1090 O.co2     1 GDP501      0.0000 
      8 O2A       361.6050  309.3000  558.1810 O.co2     1 GDP501      0.0000 
      9 O5'       363.5390  310.0600  556.5790 O.3       1 GDP501      0.0000 
     10 C5'       363.6650  311.2130  557.3390 C.3       1 GDP501      0.0000 
     11 C4'       363.7870  312.4170  556.4210 C.3       1 GDP501      0.0000 
     12 O4'       362.6460  312.3610  555.2690 O.3       1 GDP501      0.0000 
     13 C3'       363.5890  313.5040  557.0980 C.3       1 GDP501      0.0000 
     14 O3'       364.5720  314.5190  556.6930 O.3       1 GDP501      0.0000 
     15 C2'       362.1530  314.0000  556.6900 C.3       1 GDP501      0.0000 
     16 O2'       362.0790  315.3410  556.7800 O.3       1 GDP501      0.0000 
     17 C1'       362.1070  313.5800  555.2450 C.3       1 GDP501      0.0000 
     18 N9        360.7140  313.5400  554.7020 N.pl3     1 GDP501      0.0000 
     19 C8        359.9940  312.6260  555.3570 C.2       1 GDP501      0.0000 
     20 N7        358.7620  312.6460  554.7980 N.2       1 GDP501      0.0000 
     21 C5        358.7480  313.5600  553.8250 C.2       1 GDP501      0.0000 
     22 C6        357.6670  314.0240  552.8650 C.2       1 GDP501      0.0000 
     23 O6        356.5920  313.5560  552.9000 O.2       1 GDP501      0.0000 
     24 N1        357.9600  315.0600  551.8970 N.am      1 GDP501      0.0000 
     25 C2        359.2640  315.6410  551.8480 C.2       1 GDP501      0.0000 
     26 N2        359.5750  316.7150  550.8470 N.pl3     1 GDP501      0.0000 
     27 N3        360.2900  315.1920  552.7660 N.2       1 GDP501      0.0000 
     28 C4        359.9750  314.1210  553.7680 C.2       1 GDP501      0.0000 
@<TRIPOS>BOND
     1    1    2 ar   
     2    1    3 ar   
     3    1    4 ar   
     4    1    5 1    
     5    5    6 1    
     6    6    7 ar   
     7    6    8 ar   
     8    6    9 1    
     9    9   10 1    
    10   10   11 1    
    11   11   12 1    
    12   11   13 1    
    13   12   17 1    
    14   13   14 1    
    15   13   15 1    
    16   15   16 1    
    17   15   17 1    
    18   17   18 1    
    19   18   19 1    
    20   18   28 1    
    21   19   20 2    
    22   20   21 1    
    23   21   22 1    
    24   21   28 2    
    25   22   23 2    
    26   22   24 am   
    27   24   25 1    
    28   25   26 1    
    29   25   27 2    
    30   27   28 1    
@<TRIPOS>SUBSTRUCTURE
     1 GDP501      1 GROUP   
@<TRIPOS>SET
ATOM$ORANGE STATIC     ATOMS   COLORGROUP SYSTEM 
20 10 10 11 11 13 13 15 15 17 17 19 19 21 21 22 22 25 \
25 28 28 

