#    Name: 6u0t_3_GTP
#    Modification time : Fri May 22 19:28:16 2020

@<TRIPOS>MOLECULE
6u0t_3_GTP
   32    34     1     0     1
SMALL
NO_CHARGES


@<TRIPOS>ATOM
      1 PG        363.6240  356.9120  427.4370 P.3       1 GTP501      0.0000 
      2 O1G       364.0770  357.3270  428.8210 O.co2     1 GTP501      0.0000 
      3 O2G       363.2110  355.4570  427.4320 O.co2     1 GTP501      0.0000 
      4 O3G       362.4710  357.7880  426.9950 O.co2     1 GTP501      0.0000 
      5 O3B       364.8630  357.1180  426.3620 O.3       1 GTP501      0.0000 
      6 PB        364.5720  357.8730  424.9270 P.3       1 GTP501      0.0000 
      7 O1B       363.3400  357.2630  424.2840 O.co2     1 GTP501      0.0000 
      8 O2B       365.7650  357.7320  424.0140 O.co2     1 GTP501      0.0000 
      9 O3A       364.2670  359.4550  425.2890 O.3       1 GTP501      0.0000 
     10 PA        363.1920  360.3940  424.4440 P.3       1 GTP501      0.0000 
     11 O1A       361.8310  360.3410  425.1290 O.co2     1 GTP501      0.0000 
     12 O2A       363.0740  359.8800  423.0290 O.co2     1 GTP501      0.0000 
     13 O5'       363.7690  361.9310  424.4400 O.3       1 GTP501      0.0000 
     14 C5'       362.8780  362.9730  424.5340 C.3       1 GTP501      0.0000 
     15 C4'       362.6510  363.5380  423.0930 C.3       1 GTP501      0.0000 
     16 O4'       361.7180  362.8390  422.5110 O.3       1 GTP501      0.0000 
     17 C3'       362.1220  364.9640  423.1670 C.3       1 GTP501      0.0000 
     18 O3'       363.0350  365.8320  422.6500 O.3       1 GTP501      0.0000 
     19 C2'       360.8570  364.9790  422.2810 C.3       1 GTP501      0.0000 
     20 O2'       360.9410  366.1450  421.3620 O.3       1 GTP501      0.0000 
     21 C1'       360.9120  363.8890  421.6000 C.3       1 GTP501      0.0000 
     22 N9        359.5630  363.3930  421.3570 N.pl3     1 GTP501      0.0000 
     23 C8        358.9130  362.5800  422.2370 C.2       1 GTP501      0.0000 
     24 N7        357.6880  362.2990  421.7150 N.2       1 GTP501      0.0000 
     25 C5        357.5860  362.9220  420.5420 C.2       1 GTP501      0.0000 
     26 C6        356.4520  362.9880  419.4950 C.2       1 GTP501      0.0000 
     27 O6        355.4320  362.4030  419.6800 O.2       1 GTP501      0.0000 
     28 N1        356.6310  363.7660  418.2910 N.am      1 GTP501      0.0000 
     29 C2        357.8720  364.4780  418.0750 C.2       1 GTP501      0.0000 
     30 N2        358.0690  365.2630  416.8690 N.pl3     1 GTP501      0.0000 
     31 N3        358.9550  364.4080  419.0860 N.2       1 GTP501      0.0000 
     32 C4        358.7640  363.6050  420.3220 C.2       1 GTP501      0.0000 
@<TRIPOS>BOND
     1    1    2 ar   
     2    1    3 ar   
     3    1    4 ar   
     4    1    5 1    
     5    5    6 1    
     6    6    7 ar   
     7    6    8 ar   
     8    6    9 1    
     9    9   10 1    
    10   10   11 ar   
    11   10   12 ar   
    12   10   13 1    
    13   13   14 1    
    14   14   15 1    
    15   15   16 1    
    16   15   17 1    
    17   16   21 1    
    18   17   18 1    
    19   17   19 1    
    20   19   20 1    
    21   19   21 1    
    22   21   22 1    
    23   22   23 1    
    24   22   32 1    
    25   23   24 2    
    26   24   25 1    
    27   25   26 1    
    28   25   32 2    
    29   26   27 2    
    30   26   28 am   
    31   28   29 1    
    32   29   30 1    
    33   29   31 2    
    34   31   32 1    
@<TRIPOS>SUBSTRUCTURE
     1 GTP501      1 GROUP   
@<TRIPOS>SET
ATOM$ORANGE STATIC     ATOMS   COLORGROUP SYSTEM 
20 14 14 15 15 17 17 19 19 21 21 23 23 25 25 26 26 29 \
29 32 32 

