#    Name: 6u0t_8_GDP
#    Modification time : Fri May 22 19:28:47 2020

@<TRIPOS>MOLECULE
6u0t_8_GDP
   28    30     1     0     1
SMALL
NO_CHARGES


@<TRIPOS>ATOM
      1 PB        363.7320  358.1770  466.8510 P.3       1 GDP501      0.0000 
      2 O1B       362.6340  357.7550  465.9270 O.co2     1 GDP501      0.0000 
      3 O2B       363.3940  357.7830  468.2590 O.co2     1 GDP501      0.0000 
      4 O3B       365.0050  357.5230  466.4470 O.co2     1 GDP501      0.0000 
      5 O3A       363.8920  359.8220  466.7580 O.3       1 GDP501      0.0000 
      6 PA        363.3110  360.6780  465.4510 P.3       1 GDP501      0.0000 
      7 O1A       363.5570  359.8610  464.1850 O.co2     1 GDP501      0.0000 
      8 O2A       361.7970  360.9050  465.6330 O.co2     1 GDP501      0.0000 
      9 O5'       364.0860  362.1460  465.3300 O.3       1 GDP501      0.0000 
     10 C5'       363.4040  363.2860  465.7200 C.3       1 GDP501      0.0000 
     11 C4'       362.8590  363.9900  464.4920 C.3       1 GDP501      0.0000 
     12 O4'       361.6340  363.1400  463.8670 O.3       1 GDP501      0.0000 
     13 C3'       362.3730  365.1460  464.8220 C.3       1 GDP501      0.0000 
     14 O3'       363.2340  366.2120  464.2930 O.3       1 GDP501      0.0000 
     15 C2'       360.9540  365.2420  464.1390 C.3       1 GDP501      0.0000 
     16 O2'       360.8660  366.3790  463.4230 O.3       1 GDP501      0.0000 
     17 C1'       360.9240  364.0520  463.2110 C.3       1 GDP501      0.0000 
     18 N9        359.5260  363.5820  462.9750 N.pl3     1 GDP501      0.0000 
     19 C8        359.2730  362.5330  463.7620 C.2       1 GDP501      0.0000 
     20 N7        358.0030  362.1580  463.4940 N.2       1 GDP501      0.0000 
     21 C5        357.5070  362.9690  462.5620 C.2       1 GDP501      0.0000 
     22 C6        356.1560  363.0280  461.8800 C.2       1 GDP501      0.0000 
     23 O6        355.3210  362.2560  462.1620 O.2       1 GDP501      0.0000 
     24 N1        355.8950  364.0420  460.8800 N.am      1 GDP501      0.0000 
     25 C2        356.9160  364.9860  460.5430 C.2       1 GDP501      0.0000 
     26 N2        356.6550  366.0420  459.5080 N.pl3     1 GDP501      0.0000 
     27 N3        358.2070  364.9220  461.1990 N.2       1 GDP501      0.0000 
     28 C4        358.4630  363.8660  462.2340 C.2       1 GDP501      0.0000 
@<TRIPOS>BOND
     1    1    2 ar   
     2    1    3 ar   
     3    1    4 ar   
     4    1    5 1    
     5    5    6 1    
     6    6    7 ar   
     7    6    8 ar   
     8    6    9 1    
     9    9   10 1    
    10   10   11 1    
    11   11   12 1    
    12   11   13 1    
    13   12   17 1    
    14   13   14 1    
    15   13   15 1    
    16   15   16 1    
    17   15   17 1    
    18   17   18 1    
    19   18   19 1    
    20   18   28 1    
    21   19   20 2    
    22   20   21 1    
    23   21   22 1    
    24   21   28 2    
    25   22   23 2    
    26   22   24 am   
    27   24   25 1    
    28   25   26 1    
    29   25   27 2    
    30   27   28 1    
@<TRIPOS>SUBSTRUCTURE
     1 GDP501      1 GROUP   
@<TRIPOS>SET
ATOM$ORANGE STATIC     ATOMS   COLORGROUP SYSTEM 
20 10 10 11 11 13 13 15 15 17 17 19 19 21 21 22 22 25 \
25 28 28 

