#    Name: 6u0t_12_GDP
#    Modification time : Fri May 22 19:29:21 2020

@<TRIPOS>MOLECULE
6u0t_12_GDP
   28    30     1     0     1
SMALL
NO_CHARGES


@<TRIPOS>ATOM
      1 PB        363.6870  305.3050  392.8420 P.3       1 GDP501      0.0000 
      2 O1B       362.3910  305.0380  392.1380 O.co2     1 GDP501      0.0000 
      3 O2B       363.4900  305.1630  394.3230 O.co2     1 GDP501      0.0000 
      4 O3B       364.7200  304.3380  392.3800 O.co2     1 GDP501      0.0000 
      5 O3A       364.2060  306.8440  392.5100 O.3       1 GDP501      0.0000 
      6 PA        363.3270  307.9590  391.6350 P.3       1 GDP501      0.0000 
      7 O1A       362.6170  307.2720  390.4670 O.co2     1 GDP501      0.0000 
      8 O2A       362.2940  308.6270  392.5710 O.co2     1 GDP501      0.0000 
      9 O5'       364.3540  309.1330  391.0580 O.3       1 GDP501      0.0000 
     10 C5'       364.4320  310.3170  391.7730 C.3       1 GDP501      0.0000 
     11 C4'       364.2220  311.4930  390.8390 C.3       1 GDP501      0.0000 
     12 O4'       362.9140  311.2630  389.9130 O.3       1 GDP501      0.0000 
     13 C3'       363.9870  312.5640  391.5280 C.3       1 GDP501      0.0000 
     14 O3'       365.1810  313.4200  391.5240 O.3       1 GDP501      0.0000 
     15 C2'       362.8110  313.3080  390.7880 C.3       1 GDP501      0.0000 
     16 O2'       363.1880  314.5650  390.4830 O.3       1 GDP501      0.0000 
     17 C1'       362.6080  312.4990  389.5260 C.3       1 GDP501      0.0000 
     18 N9        361.1990  312.5890  389.0320 N.pl3     1 GDP501      0.0000 
     19 C8        360.4250  311.7530  389.7280 C.2       1 GDP501      0.0000 
     20 N7        359.1780  311.8870  389.2200 N.2       1 GDP501      0.0000 
     21 C5        359.2050  312.7920  388.2460 C.2       1 GDP501      0.0000 
     22 C6        358.1240  313.3460  387.3340 C.2       1 GDP501      0.0000 
     23 O6        357.0170  312.9700  387.4330 O.2       1 GDP501      0.0000 
     24 N1        358.4590  314.3460  386.3430 N.am      1 GDP501      0.0000 
     25 C2        359.8090  314.8060  386.2250 C.2       1 GDP501      0.0000 
     26 N2        360.1690  315.8420  385.2020 N.pl3     1 GDP501      0.0000 
     27 N3        360.8340  314.2710  387.0990 N.2       1 GDP501      0.0000 
     28 C4        360.4750  313.2340  388.1240 C.2       1 GDP501      0.0000 
@<TRIPOS>BOND
     1    1    2 ar   
     2    1    3 ar   
     3    1    4 ar   
     4    1    5 1    
     5    5    6 1    
     6    6    7 ar   
     7    6    8 ar   
     8    6    9 1    
     9    9   10 1    
    10   10   11 1    
    11   11   12 1    
    12   11   13 1    
    13   12   17 1    
    14   13   14 1    
    15   13   15 1    
    16   15   16 1    
    17   15   17 1    
    18   17   18 1    
    19   18   19 1    
    20   18   28 1    
    21   19   20 2    
    22   20   21 1    
    23   21   22 1    
    24   21   28 2    
    25   22   23 2    
    26   22   24 am   
    27   24   25 1    
    28   25   26 1    
    29   25   27 2    
    30   27   28 1    
@<TRIPOS>SUBSTRUCTURE
     1 GDP501      1 GROUP   
@<TRIPOS>SET
ATOM$ORANGE STATIC     ATOMS   COLORGROUP SYSTEM 
20 10 10 11 11 13 13 15 15 17 17 19 19 21 21 22 22 25 \
25 28 28 

