#    Name: 6u0t_9_GDP
#    Modification time : Fri May 22 19:28:57 2020

@<TRIPOS>MOLECULE
6u0t_9_GDP
   28    30     1     0     1
SMALL
NO_CHARGES


@<TRIPOS>ATOM
      1 PB        363.7540  357.7610  382.9960 P.3       1 GDP501      0.0000 
      2 O1B       365.1150  357.1640  383.0050 O.co2     1 GDP501      0.0000 
      3 O2B       363.7200  358.9850  383.8600 O.co2     1 GDP501      0.0000 
      4 O3B       362.7580  356.7680  383.5080 O.co2     1 GDP501      0.0000 
      5 O3A       363.3720  358.1950  381.4470 O.3       1 GDP501      0.0000 
      6 PA        362.0790  359.1940  381.1240 P.3       1 GDP501      0.0000 
      7 O1A       361.2590  358.6090  379.9760 O.co2     1 GDP501      0.0000 
      8 O2A       361.2100  359.2890  382.3960 O.co2     1 GDP501      0.0000 
      9 O5'       362.6330  360.7070  380.7160 O.3       1 GDP501      0.0000 
     10 C5'       362.5880  361.6980  381.6830 C.3       1 GDP501      0.0000 
     11 C4'       362.5090  363.0540  381.0050 C.3       1 GDP501      0.0000 
     12 O4'       361.3920  363.0090  379.8290 O.3       1 GDP501      0.0000 
     13 C3'       362.1310  363.9570  381.8540 C.3       1 GDP501      0.0000 
     14 O3'       362.8280  365.2180  381.5640 O.3       1 GDP501      0.0000 
     15 C2'       360.5900  364.1360  381.5900 C.3       1 GDP501      0.0000 
     16 O2'       360.1880  365.3720  381.9430 O.3       1 GDP501      0.0000 
     17 C1'       360.5230  363.9880  380.0900 C.3       1 GDP501      0.0000 
     18 N9        359.1530  363.6120  379.6210 N.pl3     1 GDP501      0.0000 
     19 C8        358.6560  362.6430  380.3940 C.2       1 GDP501      0.0000 
     20 N7        357.4290  362.3580  379.9020 N.2       1 GDP501      0.0000 
     21 C5        357.2030  363.1440  378.8500 C.2       1 GDP501      0.0000 
     22 C6        356.0180  363.2740  377.9140 C.2       1 GDP501      0.0000 
     23 O6        355.0760  362.5940  378.0640 O.2       1 GDP501      0.0000 
     24 N1        356.0510  364.2390  376.8360 N.am      1 GDP501      0.0000 
     25 C2        357.2040  365.0670  376.6590 C.2       1 GDP501      0.0000 
     26 N2        357.2490  366.0710  375.5460 N.pl3     1 GDP501      0.0000 
     27 N3        358.3330  364.9350  377.5570 N.2       1 GDP501      0.0000 
     28 C4        358.2830  363.9340  378.6750 C.2       1 GDP501      0.0000 
@<TRIPOS>BOND
     1    1    2 ar   
     2    1    3 ar   
     3    1    4 ar   
     4    1    5 1    
     5    5    6 1    
     6    6    7 ar   
     7    6    8 ar   
     8    6    9 1    
     9    9   10 1    
    10   10   11 1    
    11   11   12 1    
    12   11   13 1    
    13   12   17 1    
    14   13   14 1    
    15   13   15 1    
    16   15   16 1    
    17   15   17 1    
    18   17   18 1    
    19   18   19 1    
    20   18   28 1    
    21   19   20 2    
    22   20   21 1    
    23   21   22 1    
    24   21   28 2    
    25   22   23 2    
    26   22   24 am   
    27   24   25 1    
    28   25   26 1    
    29   25   27 2    
    30   27   28 1    
@<TRIPOS>SUBSTRUCTURE
     1 GDP501      1 GROUP   
@<TRIPOS>SET
ATOM$ORANGE STATIC     ATOMS   COLORGROUP SYSTEM 
20 10 10 11 11 13 13 15 15 17 17 19 19 21 21 22 22 25 \
25 28 28 

