#    Name: 6u0t_5_GTP
#    Modification time : Fri May 22 19:28:26 2020

@<TRIPOS>MOLECULE
6u0t_5_GTP
   32    34     1     0     1
SMALL
NO_CHARGES


@<TRIPOS>ATOM
      1 PG        363.9870  305.5700  519.3310 P.3       1 GTP501      0.0000 
      2 O1G       365.0280  305.5480  520.4310 O.co2     1 GTP501      0.0000 
      3 O2G       362.9050  304.5480  519.6020 O.co2     1 GTP501      0.0000 
      4 O3G       363.3670  306.9500  519.2300 O.co2     1 GTP501      0.0000 
      5 O3B       364.7110  305.2160  517.8860 O.3       1 GTP501      0.0000 
      6 PB        364.4370  306.1400  516.5440 P.3       1 GTP501      0.0000 
      7 O1B       362.9720  306.0470  516.1500 O.co2     1 GTP501      0.0000 
      8 O2B       365.3060  305.6430  515.4150 O.co2     1 GTP501      0.0000 
      9 O3A       364.7930  307.7150  516.9010 O.3       1 GTP501      0.0000 
     10 PA        363.9050  308.9580  516.2470 P.3       1 GTP501      0.0000 
     11 O1A       362.6020  309.0960  517.0310 O.co2     1 GTP501      0.0000 
     12 O2A       363.6150  308.6370  514.8000 O.co2     1 GTP501      0.0000 
     13 O5'       364.7240  310.3770  516.3260 O.3       1 GTP501      0.0000 
     14 C5'       363.9810  311.5230  516.1670 C.3       1 GTP501      0.0000 
     15 C4'       364.1440  312.0360  514.6990 C.3       1 GTP501      0.0000 
     16 O4'       363.0930  311.7200  513.9850 O.3       1 GTP501      0.0000 
     17 C3'       364.1880  313.5580  514.7150 C.3       1 GTP501      0.0000 
     18 O3'       365.1640  313.9990  513.8730 O.3       1 GTP501      0.0000 
     19 C2'       362.8050  313.9720  514.1730 C.3       1 GTP501      0.0000 
     20 O2'       362.8630  315.3360  513.5780 O.3       1 GTP501      0.0000 
     21 C1'       362.6320  313.0860  513.2640 C.3       1 GTP501      0.0000 
     22 N9        361.2300  313.0330  512.8710 N.pl3     1 GTP501      0.0000 
     23 C8        360.3580  312.1590  513.4430 C.2       1 GTP501      0.0000 
     24 N7        359.1410  312.3490  512.8680 N.2       1 GTP501      0.0000 
     25 C5        359.2580  313.3210  511.9650 C.2       1 GTP501      0.0000 
     26 C6        358.2340  313.9770  511.0120 C.2       1 GTP501      0.0000 
     27 O6        357.1040  313.6110  511.0100 O.2       1 GTP501      0.0000 
     28 N1        358.6450  315.0350  510.1210 N.am      1 GTP501      0.0000 
     29 C2        360.0210  315.4760  510.1330 C.2       1 GTP501      0.0000 
     30 N2        360.4440  316.5400  509.2390 N.pl3     1 GTP501      0.0000 
     31 N3        360.9990  314.8420  511.0540 N.2       1 GTP501      0.0000 
     32 C4        360.5690  313.7500  511.9700 C.2       1 GTP501      0.0000 
@<TRIPOS>BOND
     1    1    2 ar   
     2    1    3 ar   
     3    1    4 ar   
     4    1    5 1    
     5    5    6 1    
     6    6    7 ar   
     7    6    8 ar   
     8    6    9 1    
     9    9   10 1    
    10   10   11 ar   
    11   10   12 ar   
    12   10   13 1    
    13   13   14 1    
    14   14   15 1    
    15   15   16 1    
    16   15   17 1    
    17   16   21 1    
    18   17   18 1    
    19   17   19 1    
    20   19   20 1    
    21   19   21 1    
    22   21   22 1    
    23   22   23 1    
    24   22   32 1    
    25   23   24 2    
    26   24   25 1    
    27   25   26 1    
    28   25   32 2    
    29   26   27 2    
    30   26   28 am   
    31   28   29 1    
    32   29   30 1    
    33   29   31 2    
    34   31   32 1    
@<TRIPOS>SUBSTRUCTURE
     1 GTP501      1 GROUP   
@<TRIPOS>SET
ATOM$ORANGE STATIC     ATOMS   COLORGROUP SYSTEM 
20 14 14 15 15 17 17 19 19 21 21 23 23 25 25 26 26 29 \
29 32 32 

