#    Name: 6u0t_7_GTP
#    Modification time : Fri May 22 19:28:37 2020

@<TRIPOS>MOLECULE
6u0t_7_GTP
   32    34     1     0     1
SMALL
NO_CHARGES


@<TRIPOS>ATOM
      1 PG        365.0720  304.8800  353.3030 P.3       1 GTP501      0.0000 
      2 O1G       366.3590  304.6640  354.0680 O.co2     1 GTP501      0.0000 
      3 O2G       364.3230  303.5710  353.1710 O.co2     1 GTP501      0.0000 
      4 O3G       364.2150  305.8830  354.0490 O.co2     1 GTP501      0.0000 
      5 O3B       365.4120  305.4740  351.7950 O.3       1 GTP501      0.0000 
      6 PB        364.4320  306.5950  351.0730 P.3       1 GTP501      0.0000 
      7 O1B       363.0480  306.5330  351.6920 O.co2     1 GTP501      0.0000 
      8 O2B       364.3540  306.3200  349.5930 O.co2     1 GTP501      0.0000 
      9 O3A       365.0590  308.1100  351.2870 O.3       1 GTP501      0.0000 
     10 PA        364.7390  309.3360  350.2100 P.3       1 GTP501      0.0000 
     11 O1A       363.2330  309.5760  350.1620 O.co2     1 GTP501      0.0000 
     12 O2A       365.2350  308.9770  348.8300 O.co2     1 GTP501      0.0000 
     13 O5'       365.4780  310.7060  350.7270 O.3       1 GTP501      0.0000 
     14 C5'       364.7810  311.8760  350.5640 C.3       1 GTP501      0.0000 
     15 C4'       364.7350  312.2240  349.0410 C.3       1 GTP501      0.0000 
     16 O4'       363.6520  311.7360  348.4890 O.3       1 GTP501      0.0000 
     17 C3'       364.6380  313.7390  348.9040 C.3       1 GTP501      0.0000 
     18 O3'       365.5910  314.1960  348.0440 O.3       1 GTP501      0.0000 
     19 C2'       363.2280  313.9690  348.3150 C.3       1 GTP501      0.0000 
     20 O2'       363.2050  315.2060  347.4850 O.3       1 GTP501      0.0000 
     21 C1'       363.0730  312.9310  347.5790 C.3       1 GTP501      0.0000 
     22 N9        361.6610  312.7390  347.2660 N.pl3     1 GTP501      0.0000 
     23 C8        360.8810  311.8410  347.9280 C.2       1 GTP501      0.0000 
     24 N7        359.6290  311.9110  347.3960 N.2       1 GTP501      0.0000 
     25 C5        359.6380  312.8270  346.4290 C.2       1 GTP501      0.0000 
     26 C6        358.5340  313.3490  345.4800 C.2       1 GTP501      0.0000 
     27 O6        357.4310  312.9060  345.5450 O.2       1 GTP501      0.0000 
     28 N1        358.8390  314.3750  344.5110 N.am      1 GTP501      0.0000 
     29 C2        360.1810  314.9110  344.4390 C.2       1 GTP501      0.0000 
     30 N2        360.5040  315.9450  343.4710 N.pl3     1 GTP501      0.0000 
     31 N3        361.2340  314.4060  345.3570 N.2       1 GTP501      0.0000 
     32 C4        360.9140  313.3470  346.3530 C.2       1 GTP501      0.0000 
@<TRIPOS>BOND
     1    1    2 ar   
     2    1    3 ar   
     3    1    4 ar   
     4    1    5 1    
     5    5    6 1    
     6    6    7 ar   
     7    6    8 ar   
     8    6    9 1    
     9    9   10 1    
    10   10   11 ar   
    11   10   12 ar   
    12   10   13 1    
    13   13   14 1    
    14   14   15 1    
    15   15   16 1    
    16   15   17 1    
    17   16   21 1    
    18   17   18 1    
    19   17   19 1    
    20   19   20 1    
    21   19   21 1    
    22   21   22 1    
    23   22   23 1    
    24   22   32 1    
    25   23   24 2    
    26   24   25 1    
    27   25   26 1    
    28   25   32 2    
    29   26   27 2    
    30   26   28 am   
    31   28   29 1    
    32   29   30 1    
    33   29   31 2    
    34   31   32 1    
@<TRIPOS>SUBSTRUCTURE
     1 GTP501      1 GROUP   
@<TRIPOS>SET
ATOM$ORANGE STATIC     ATOMS   COLORGROUP SYSTEM 
20 14 14 15 15 17 17 19 19 21 21 23 23 25 25 26 26 29 \
29 32 32 

