#    Name: 6u0t_2_GTP
#    Modification time : Fri May 22 19:28:06 2020

@<TRIPOS>MOLECULE
6u0t_2_GTP
   32    34     1     0     1
SMALL
NO_CHARGES


@<TRIPOS>ATOM
      1 PG        363.4410  356.5450  509.1020 P.3       1 GTP501      0.0000 
      2 O1G       364.0200  355.8760  510.3320 O.co2     1 GTP501      0.0000 
      3 O2G       362.7690  355.5120  508.2260 O.co2     1 GTP501      0.0000 
      4 O3G       362.4320  357.5970  509.5150 O.co2     1 GTP501      0.0000 
      5 O3B       364.6490  357.2710  508.2340 O.3       1 GTP501      0.0000 
      6 PB        364.3290  358.0810  506.8290 P.3       1 GTP501      0.0000 
      7 O1B       363.0650  357.5100  506.2110 O.co2     1 GTP501      0.0000 
      8 O2B       365.4810  357.9150  505.8690 O.co2     1 GTP501      0.0000 
      9 O3A       364.0560  359.6790  507.1630 O.3       1 GTP501      0.0000 
     10 PA        362.8340  360.5250  506.4150 P.3       1 GTP501      0.0000 
     11 O1A       361.5370  360.2940  507.1860 O.co2     1 GTP501      0.0000 
     12 O2A       362.6920  360.0240  504.9980 O.co2     1 GTP501      0.0000 
     13 O5'       363.1660  362.1360  506.3830 O.3       1 GTP501      0.0000 
     14 C5'       362.1300  362.9980  506.0900 C.3       1 GTP501      0.0000 
     15 C4'       362.4740  363.8140  504.7970 C.3       1 GTP501      0.0000 
     16 O4'       361.7050  363.4300  503.8130 O.3       1 GTP501      0.0000 
     17 C3'       362.1630  365.2850  505.0160 C.3       1 GTP501      0.0000 
     18 O3'       363.0160  366.0580  504.2890 O.3       1 GTP501      0.0000 
     19 C2'       360.7270  365.4470  504.4730 C.3       1 GTP501      0.0000 
     20 O2'       360.5320  366.8360  503.9710 O.3       1 GTP501      0.0000 
     21 C1'       360.6500  364.6100  503.4990 C.3       1 GTP501      0.0000 
     22 N9        359.2990  364.0630  503.4630 N.pl3     1 GTP501      0.0000 
     23 C8        358.8000  363.3790  504.5300 C.2       1 GTP501      0.0000 
     24 N7        357.5340  362.9910  504.2260 N.2       1 GTP501      0.0000 
     25 C5        357.2550  363.4240  502.9990 C.2       1 GTP501      0.0000 
     26 C6        355.9880  363.2840  502.1320 C.2       1 GTP501      0.0000 
     27 O6        355.0410  362.7080  502.5580 O.2       1 GTP501      0.0000 
     28 N1        355.9450  363.8620  500.8120 N.am      1 GTP501      0.0000 
     29 C2        357.1050  364.5620  500.3180 C.2       1 GTP501      0.0000 
     30 N2        357.0650  365.1400  498.9890 N.pl3     1 GTP501      0.0000 
     31 N3        358.3250  364.6920  501.1570 N.2       1 GTP501      0.0000 
     32 C4        358.3610  364.0970  502.5190 C.2       1 GTP501      0.0000 
@<TRIPOS>BOND
     1    1    2 ar   
     2    1    3 ar   
     3    1    4 ar   
     4    1    5 1    
     5    5    6 1    
     6    6    7 ar   
     7    6    8 ar   
     8    6    9 1    
     9    9   10 1    
    10   10   11 ar   
    11   10   12 ar   
    12   10   13 1    
    13   13   14 1    
    14   14   15 1    
    15   15   16 1    
    16   15   17 1    
    17   16   21 1    
    18   17   18 1    
    19   17   19 1    
    20   19   20 1    
    21   19   21 1    
    22   21   22 1    
    23   22   23 1    
    24   22   32 1    
    25   23   24 2    
    26   24   25 1    
    27   25   26 1    
    28   25   32 2    
    29   26   27 2    
    30   26   28 am   
    31   28   29 1    
    32   29   30 1    
    33   29   31 2    
    34   31   32 1    
@<TRIPOS>SUBSTRUCTURE
     1 GTP501      1 GROUP   
@<TRIPOS>SET
ATOM$ORANGE STATIC     ATOMS   COLORGROUP SYSTEM 
20 14 14 15 15 17 17 19 19 21 21 23 23 25 25 26 26 29 \
29 32 32 

