#    Name: 6u0t_11_GDP
#    Modification time : Fri May 22 19:29:11 2020

@<TRIPOS>MOLECULE
6u0t_11_GDP
   28    30     1     0     1
SMALL
NO_CHARGES


@<TRIPOS>ATOM
      1 PB        364.1370  306.0590  477.1230 P.3       1 GDP501      0.0000 
      2 O1B       365.1690  305.1070  476.6280 O.co2     1 GDP501      0.0000 
      3 O2B       364.2740  306.2450  478.6060 O.co2     1 GDP501      0.0000 
      4 O3B       362.7790  305.5140  476.8070 O.co2     1 GDP501      0.0000 
      5 O3A       364.3390  307.5120  476.3590 O.3       1 GDP501      0.0000 
      6 PA        364.3860  307.6480  474.6970 P.3       1 GDP501      0.0000 
      7 O1A       364.9860  306.3760  474.1030 O.co2     1 GDP501      0.0000 
      8 O2A       362.9560  307.8480  474.1480 O.co2     1 GDP501      0.0000 
      9 O5'       365.3360  308.9550  474.3020 O.3       1 GDP501      0.0000 
     10 C5'       365.1680  310.1130  475.0410 C.3       1 GDP501      0.0000 
     11 C4'       364.9270  311.2740  474.0960 C.3       1 GDP501      0.0000 
     12 O4'       363.4930  311.1210  473.3610 O.3       1 GDP501      0.0000 
     13 C3'       364.8930  312.3910  474.7570 C.3       1 GDP501      0.0000 
     14 O3'       365.9610  313.2700  474.2620 O.3       1 GDP501      0.0000 
     15 C2'       363.5110  313.0620  474.4200 C.3       1 GDP501      0.0000 
     16 O2'       363.6840  314.3810  474.2110 O.3       1 GDP501      0.0000 
     17 C1'       363.1510  312.3840  473.1240 C.3       1 GDP501      0.0000 
     18 N9        361.6990  312.5000  472.8050 N.pl3     1 GDP501      0.0000 
     19 C8        360.9900  311.7220  473.6260 C.2       1 GDP501      0.0000 
     20 N7        359.6970  311.8750  473.2610 N.2       1 GDP501      0.0000 
     21 C5        359.6420  312.7300  472.2400 C.2       1 GDP501      0.0000 
     22 C6        358.4850  313.2760  471.4300 C.2       1 GDP501      0.0000 
     23 O6        357.3860  312.9460  471.6740 O.2       1 GDP501      0.0000 
     24 N1        358.7380  314.2130  470.3550 N.am      1 GDP501      0.0000 
     25 C2        360.0780  314.6180  470.0610 C.2       1 GDP501      0.0000 
     26 N2        360.3500  315.5880  468.9490 N.pl3     1 GDP501      0.0000 
     27 N3        361.1770  314.0900  470.8400 N.2       1 GDP501      0.0000 
     28 C4        360.8990  313.1250  471.9540 C.2       1 GDP501      0.0000 
@<TRIPOS>BOND
     1    1    2 ar   
     2    1    3 ar   
     3    1    4 ar   
     4    1    5 1    
     5    5    6 1    
     6    6    7 ar   
     7    6    8 ar   
     8    6    9 1    
     9    9   10 1    
    10   10   11 1    
    11   11   12 1    
    12   11   13 1    
    13   12   17 1    
    14   13   14 1    
    15   13   15 1    
    16   15   16 1    
    17   15   17 1    
    18   17   18 1    
    19   18   19 1    
    20   18   28 1    
    21   19   20 2    
    22   20   21 1    
    23   21   22 1    
    24   21   28 2    
    25   22   23 2    
    26   22   24 am   
    27   24   25 1    
    28   25   26 1    
    29   25   27 2    
    30   27   28 1    
@<TRIPOS>SUBSTRUCTURE
     1 GDP501      1 GROUP   
@<TRIPOS>SET
ATOM$ORANGE STATIC     ATOMS   COLORGROUP SYSTEM 
20 10 10 11 11 13 13 15 15 17 17 19 19 21 21 22 22 25 \
25 28 28 

