#    Name: 6u0t_1_GDP
#    Modification time : Fri May 22 19:27:56 2020

@<TRIPOS>MOLECULE
6u0t_1_GDP
   28    30     1     0     1
SMALL
NO_CHARGES


@<TRIPOS>ATOM
      1 PB        363.5030  358.0180  547.9020 P.3       1 GDP501      0.0000 
      2 O1B       363.5420  357.8000  546.4210 O.co2     1 GDP501      0.0000 
      3 O2B       362.4170  357.1810  548.5110 O.co2     1 GDP501      0.0000 
      4 O3B       364.8220  357.6430  548.4830 O.co2     1 GDP501      0.0000 
      5 O3A       363.1950  359.6170  548.2070 O.3       1 GDP501      0.0000 
      6 PA        361.9670  360.4540  547.4580 P.3       1 GDP501      0.0000 
      7 O1A       361.3950  359.6120  546.3180 O.co2     1 GDP501      0.0000 
      8 O2A       360.8650  360.7500  548.4980 O.co2     1 GDP501      0.0000 
      9 O5'       362.5570  361.8830  546.8440 O.3       1 GDP501      0.0000 
     10 C5'       362.2330  363.0550  547.5090 C.3       1 GDP501      0.0000 
     11 C4'       362.5300  364.2530  546.6240 C.3       1 GDP501      0.0000 
     12 O4'       361.5750  364.2250  545.3150 O.3       1 GDP501      0.0000 
     13 C3'       362.2330  365.3450  547.2440 C.3       1 GDP501      0.0000 
     14 O3'       362.9420  366.4690  546.6200 O.3       1 GDP501      0.0000 
     15 C2'       360.6950  365.5080  546.9810 C.3       1 GDP501      0.0000 
     16 O2'       360.3450  366.8010  547.1060 O.3       1 GDP501      0.0000 
     17 C1'       360.5700  365.0810  545.5360 C.3       1 GDP501      0.0000 
     18 N9        359.2650  364.3970  545.2890 N.pl3     1 GDP501      0.0000 
     19 C8        359.0460  363.4830  546.2390 C.2       1 GDP501      0.0000 
     20 N7        357.8580  362.9090  545.9450 N.2       1 GDP501      0.0000 
     21 C5        357.3790  363.4710  544.8340 C.2       1 GDP501      0.0000 
     22 C6        356.1110  363.2390  544.0410 C.2       1 GDP501      0.0000 
     23 O6        355.3430  362.4300  544.3990 O.2       1 GDP501      0.0000 
     24 N1        355.8450  364.0160  542.8490 N.am      1 GDP501      0.0000 
     25 C2        356.7880  365.0000  542.4230 C.2       1 GDP501      0.0000 
     26 N2        356.5280  365.8130  541.1910 N.pl3     1 GDP501      0.0000 
     27 N3        358.0010  365.2170  543.1850 N.2       1 GDP501      0.0000 
     28 C4        358.2600  364.4060  544.4220 C.2       1 GDP501      0.0000 
@<TRIPOS>BOND
     1    1    2 ar   
     2    1    3 ar   
     3    1    4 ar   
     4    1    5 1    
     5    5    6 1    
     6    6    7 ar   
     7    6    8 ar   
     8    6    9 1    
     9    9   10 1    
    10   10   11 1    
    11   11   12 1    
    12   11   13 1    
    13   12   17 1    
    14   13   14 1    
    15   13   15 1    
    16   15   16 1    
    17   15   17 1    
    18   17   18 1    
    19   18   19 1    
    20   18   28 1    
    21   19   20 2    
    22   20   21 1    
    23   21   22 1    
    24   21   28 2    
    25   22   23 2    
    26   22   24 am   
    27   24   25 1    
    28   25   26 1    
    29   25   27 2    
    30   27   28 1    
@<TRIPOS>SUBSTRUCTURE
     1 GDP501      1 GROUP   
@<TRIPOS>SET
ATOM$ORANGE STATIC     ATOMS   COLORGROUP SYSTEM 
20 10 10 11 11 13 13 15 15 17 17 19 19 21 21 22 22 25 \
25 28 28 

