#    Name: 6qf4_1_ADP
#    Modification time : Fri May 22 19:27:55 2020

@<TRIPOS>MOLECULE
6qf4_1_ADP
   39    41     1     0     1
SMALL
NO_CHARGES


@<TRIPOS>ATOM
      1 PB         24.2630   91.5120   -3.7660 P.3       1 ADP405      0.0000 
      2 O1B        23.6350   90.7540   -4.9530 O.co2     1 ADP405      0.0000 
      3 O2B        25.5730   92.0780   -4.1880 O.co2     1 ADP405      0.0000 
      4 O3B        23.3210   92.6440   -3.3530 O.co2     1 ADP405      0.0000 
      5 PA         24.0750   90.6690   -0.9550 P.3       1 ADP405      0.0000 
      6 O1A        23.4630   92.0770   -0.6830 O.co2     1 ADP405      0.0000 
      7 O2A        25.2760   90.4690   -0.1000 O.co2     1 ADP405      0.0000 
      8 O3A        24.4650   90.5430   -2.5060 O.3       1 ADP405      0.0000 
      9 O5'        22.9450   89.5130   -0.5760 O.3       1 ADP405      0.0000 
     10 C5'        21.7630   89.4620   -1.3450 C.3       1 ADP405      0.0000 
     11 C4'        20.5980   89.0600   -0.4780 C.3       1 ADP405      0.0000 
     12 O4'        20.8570   87.7820    0.1580 O.3       1 ADP405      0.0000 
     13 C3'        20.4490   90.0610    0.6630 C.3       1 ADP405      0.0000 
     14 O3'        19.5550   91.1170    0.3000 O.3       1 ADP405      0.0000 
     15 C2'        19.8620   89.1840    1.7620 C.3       1 ADP405      0.0000 
     16 O2'        18.4420   89.1340    1.6170 O.3       1 ADP405      0.0000 
     17 C1'        20.4460   87.7910    1.5090 C.3       1 ADP405      0.0000 
     18 N9         21.4940   87.5510    2.3070 N.pl3     1 ADP405      0.0000 
     19 C8         22.7760   87.9490    2.0910 C.2       1 ADP405      0.0000 
     20 N7         23.5530   87.5180    3.1080 N.2       1 ADP405      0.0000 
     21 C5         22.7650   86.8440    3.9710 C.ar      1 ADP405      0.0000 
     22 C6         23.0190   86.1880    5.1820 C.ar      1 ADP405      0.0000 
     23 N6         24.2500   86.1520    5.6980 N.pl3     1 ADP405      0.0000 
     24 N1         22.0090   85.5840    5.8400 N.ar      1 ADP405      0.0000 
     25 C2         20.7770   85.6420    5.2930 C.ar      1 ADP405      0.0000 
     26 N3         20.4810   86.2450    4.1570 N.ar      1 ADP405      0.0000 
     27 C4         21.4660   86.8620    3.4690 C.ar      1 ADP405      0.0000 
     28 H5'1       21.8720   88.8130   -2.0590 H         1 ADP405      0.0000 
     29 H5'2       21.5900   90.3360   -1.7290 H         1 ADP405      0.0000 
     30 H4'        19.7800   89.0190   -0.9970 H         1 ADP405      0.0000 
     31 H3'        21.3140   90.4090    0.9310 H         1 ADP405      0.0000 
     32 HO3'       19.4150   91.6150    0.9750 H         1 ADP405      0.0000 
     33 H2'        20.1150   89.5140    2.6380 H         1 ADP405      0.0000 
     34 HO2'       18.1120   89.9020    1.7700 H         1 ADP405      0.0000 
     35 H1'        19.7610   87.1190    1.6490 H         1 ADP405      0.0000 
     36 H8         23.0710   88.4420    1.3600 H         1 ADP405      0.0000 
     37 HN61       24.3930   85.7450    6.4420 H         1 ADP405      0.0000 
     38 HN62       24.9000   86.5360    5.2860 H         1 ADP405      0.0000 
     39 H2         20.0830   85.2250    5.7520 H         1 ADP405      0.0000 
@<TRIPOS>BOND
     1    1    2 ar   
     2    1    3 ar   
     3    1    4 ar   
     4    1    8 1    
     5    5    6 ar   
     6    5    7 ar   
     7    5    8 1    
     8    5    9 1    
     9    9   10 1    
    10   10   11 1    
    11   10   28 1    
    12   10   29 1    
    13   11   12 1    
    14   11   13 1    
    15   11   30 1    
    16   12   17 1    
    17   13   14 1    
    18   13   15 1    
    19   13   31 1    
    20   14   32 1    
    21   15   16 1    
    22   15   17 1    
    23   15   33 1    
    24   16   34 1    
    25   17   18 1    
    26   17   35 1    
    27   18   19 1    
    28   18   27 1    
    29   19   20 2    
    30   19   36 1    
    31   20   21 1    
    32   21   22 ar   
    33   21   27 ar   
    34   22   23 1    
    35   22   24 ar   
    36   23   37 1    
    37   23   38 1    
    38   24   25 ar   
    39   25   26 ar   
    40   25   39 1    
    41   26   27 ar   
@<TRIPOS>SUBSTRUCTURE
     1 ADP405      1 GROUP   
@<TRIPOS>SET
ATOM$ORANGE STATIC     ATOMS   COLORGROUP SYSTEM 
20 10 10 11 11 13 13 15 15 17 17 19 19 21 21 22 22 25 \
25 27 27 

