#    Name: 5xoo_1_ADN
#    Modification time : Fri May 22 19:12:06 2020

@<TRIPOS>MOLECULE
5xoo_1_ADN
   19    21     1     0     0
SMALL
NO_CHARGES


@<TRIPOS>ATOM
      1 O5'       114.4450  149.1490  188.2550 O.3       1 ADN506      0.0000 
      2 C5'       114.7980  147.9900  187.5090 C.3       1 ADN506      0.0000 
      3 C4'       115.7430  148.3140  186.3770 C.3       1 ADN506      0.0000 
      4 O4'       115.3860  147.5290  185.2210 O.3       1 ADN506      0.0000 
      5 C3'       115.7260  149.7490  185.8980 C.3       1 ADN506      0.0000 
      6 O3'       116.9480  150.0400  185.2240 O.3       1 ADN506      0.0000 
      7 C2'       114.5760  149.7480  184.8910 C.3       1 ADN506      0.0000 
      8 O2'       114.7120  150.6970  183.8550 O.3       1 ADN506      0.0000 
      9 C1'       114.5810  148.3050  184.3470 C.3       1 ADN506      0.0000 
     10 N9        113.2480  147.6960  184.3040 N.pl3     1 ADN506      0.0000 
     11 C8        112.2670  147.9080  185.1850 C.2       1 ADN506      0.0000 
     12 N7        111.2070  147.1890  184.8190 N.2       1 ADN506      0.0000 
     13 C5        111.5300  146.5270  183.7010 C.ar      1 ADN506      0.0000 
     14 C6        110.8080  145.6590  182.9210 C.ar      1 ADN506      0.0000 
     15 N6        109.4610  145.1220  182.9800 N.pl3     1 ADN506      0.0000 
     16 N1        111.3520  145.1200  181.8430 N.ar      1 ADN506      0.0000 
     17 C2        112.6270  145.4310  181.5120 C.ar      1 ADN506      0.0000 
     18 N3        113.3440  146.2870  182.2780 N.ar      1 ADN506      0.0000 
     19 C4        112.7910  146.8380  183.3770 C.ar      1 ADN506      0.0000 
@<TRIPOS>BOND
     1    1    2 1    
     2    2    3 1    
     3    3    4 1    
     4    3    5 1    
     5    4    9 1    
     6    5    6 1    
     7    5    7 1    
     8    7    8 1    
     9    7    9 1    
    10    9   10 1    
    11   10   11 1    
    12   10   19 1    
    13   11   12 2    
    14   12   13 1    
    15   13   14 ar   
    16   13   19 ar   
    17   14   15 1    
    18   14   16 ar   
    19   16   17 ar   
    20   17   18 ar   
    21   18   19 ar   
@<TRIPOS>SUBSTRUCTURE
     1 ADN506      1 GROUP   
@<TRIPOS>SET

