#    Name: 5xoo_2_ADN
#    Modification time : Fri May 22 19:12:13 2020

@<TRIPOS>MOLECULE
5xoo_2_ADN
   19    21     1     0     0
SMALL
NO_CHARGES


@<TRIPOS>ATOM
      1 O5'        73.2710  125.7430  151.1480 O.3       1 ADN503      0.0000 
      2 C5'        73.6200  126.4560  152.3300 C.3       1 ADN503      0.0000 
      3 C4'        72.6120  127.5300  152.6620 C.3       1 ADN503      0.0000 
      4 O4'        72.8500  127.9950  154.0100 O.3       1 ADN503      0.0000 
      5 C3'        72.6870  128.7720  151.7980 C.3       1 ADN503      0.0000 
      6 O3'        71.4390  129.4630  151.8410 O.3       1 ADN503      0.0000 
      7 C2'        73.7640  129.5950  152.5050 C.3       1 ADN503      0.0000 
      8 O2'        73.6680  130.9910  152.3120 O.3       1 ADN503      0.0000 
      9 C1'        73.5800  129.2130  153.9810 C.3       1 ADN503      0.0000 
     10 N9         74.8440  128.9850  154.6840 N.pl3     1 ADN503      0.0000 
     11 C8         75.7480  128.0520  154.3750 C.2       1 ADN503      0.0000 
     12 N7         76.7580  128.1430  155.2340 N.2       1 ADN503      0.0000 
     13 C5         76.4750  129.1410  156.0790 C.ar      1 ADN503      0.0000 
     14 C6         77.1730  129.6460  157.1410 C.ar      1 ADN503      0.0000 
     15 N6         78.4450  129.3180  157.7530 N.pl3     1 ADN503      0.0000 
     16 N1         76.6880  130.6570  157.8450 N.ar      1 ADN503      0.0000 
     17 C2         75.4910  131.1920  157.5120 C.ar      1 ADN503      0.0000 
     18 N3         74.7980  130.6950  156.4620 N.ar      1 ADN503      0.0000 
     19 C4         75.2940  129.6660  155.7450 C.ar      1 ADN503      0.0000 
@<TRIPOS>BOND
     1    1    2 1    
     2    2    3 1    
     3    3    4 1    
     4    3    5 1    
     5    4    9 1    
     6    5    6 1    
     7    5    7 1    
     8    7    8 1    
     9    7    9 1    
    10    9   10 1    
    11   10   11 1    
    12   10   19 1    
    13   11   12 2    
    14   12   13 1    
    15   13   14 ar   
    16   13   19 ar   
    17   14   15 1    
    18   14   16 ar   
    19   16   17 ar   
    20   17   18 ar   
    21   18   19 ar   
@<TRIPOS>SUBSTRUCTURE
     1 ADN503      1 GROUP   
@<TRIPOS>SET

