#    Name: 5z4m_2_UTP
#    Modification time : Fri May 22 19:34:53 2020

@<TRIPOS>MOLECULE
5z4m_2_UTP
   40    41     1     0     0
SMALL
NO_CHARGES


@<TRIPOS>ATOM
      1 PA        -10.2210  -26.9660   14.4210 P.3       1 UTP602      0.0000 
      2 O1A       -10.0040  -27.9110   13.2870 O.co2     1 UTP602      0.0000 
      3 O2A       -11.7110  -26.7430   14.7260 O.co2     1 UTP602      0.0000 
      4 O3A        -9.4780  -25.6120   13.9140 O.3       1 UTP602      0.0000 
      5 O5'        -9.4000  -27.4680   15.7930 O.3       1 UTP602      0.0000 
      6 PB         -9.6480  -24.1040   14.5410 P.3       1 UTP602      0.0000 
      7 O1B       -10.8800  -24.0890   15.4720 O.co2     1 UTP602      0.0000 
      8 O2B        -8.3000  -23.5870   15.0540 O.co2     1 UTP602      0.0000 
      9 O3B       -10.0380  -23.2440   13.2580 O.3       1 UTP602      0.0000 
     10 PG        -11.3490  -23.5160   12.3430 P.3       1 UTP602      0.0000 
     11 O1G       -12.3500  -24.3980   13.0410 O.co2     1 UTP602      0.0000 
     12 O2G       -10.9240  -24.0750   10.9750 O.co2     1 UTP602      0.0000 
     13 O3G       -11.9360  -22.0980   12.1680 O.co2     1 UTP602      0.0000 
     14 C5'        -9.8150  -26.7610   16.9640 C.3       1 UTP602      0.0000 
     15 C4'        -8.5600  -26.6010   17.8430 C.3       1 UTP602      0.0000 
     16 O4'        -8.1110  -28.0500   18.0070 O.3       1 UTP602      0.0000 
     17 C1'        -6.6990  -27.9080   18.4750 C.3       1 UTP602      0.0000 
     18 C2'        -6.4360  -26.5710   18.3640 C.3       1 UTP602      0.0000 
     19 O2'        -6.6860  -25.9390   19.6350 O.3       1 UTP602      0.0000 
     20 C3'        -7.4940  -26.0280   17.3270 C.3       1 UTP602      0.0000 
     21 O3'        -7.6390  -24.5420   17.3990 O.3       1 UTP602      0.0000 
     22 N1         -5.8790  -28.7160   17.5430 N.am      1 UTP602      0.0000 
     23 C6         -6.2200  -28.9050   16.2590 C.2       1 UTP602      0.0000 
     24 C2         -4.7200  -29.2260   18.0330 C.2       1 UTP602      0.0000 
     25 O2         -4.4590  -29.0420   19.1640 O.2       1 UTP602      0.0000 
     26 N3         -3.8830  -29.9230   17.2030 N.am      1 UTP602      0.0000 
     27 C4         -4.1810  -30.1160   15.9230 C.2       1 UTP602      0.0000 
     28 O4         -3.3780  -30.7500   15.2300 O.2       1 UTP602      0.0000 
     29 C5         -5.3730  -29.6070   15.4130 C.2       1 UTP602      0.0000 
     30 H5'1      -10.1620  -25.8890   16.7190 H         1 UTP602      0.0000 
     31 H5'2      -10.4920  -27.2690   17.4370 H         1 UTP602      0.0000 
     32 H4'        -8.7790  -26.2110   18.7040 H         1 UTP602      0.0000 
     33 H1'        -6.6030  -28.2100   19.3920 H         1 UTP602      0.0000 
     34 H2'        -5.5300  -26.4150   18.0560 H         1 UTP602      0.0000 
     35 HA         -6.2120  -25.2370   19.6990 H         1 UTP602      0.0000 
     36 H3'        -7.3110  -26.3430   16.4280 H         1 UTP602      0.0000 
     37 HB         -7.5500  -24.2870   18.2050 H         1 UTP602      0.0000 
     38 H6         -7.0030  -28.5290   15.9260 H         1 UTP602      0.0000 
     39 H3         -3.1500  -30.2450   17.5170 H         1 UTP602      0.0000 
     40 H5         -5.5950  -29.7320   14.5180 H         1 UTP602      0.0000 
@<TRIPOS>BOND
     1    1    2 ar   
     2    1    3 ar   
     3    1    4 1    
     4    1    5 1    
     5    4    6 1    
     6    5   14 1    
     7    6    7 ar   
     8    6    8 ar   
     9    6    9 1    
    10    9   10 1    
    11   10   11 ar   
    12   10   12 ar   
    13   10   13 ar   
    14   14   15 1    
    15   14   30 1    
    16   14   31 1    
    17   15   16 1    
    18   15   20 1    
    19   15   32 1    
    20   16   17 1    
    21   17   18 1    
    22   17   22 1    
    23   17   33 1    
    24   18   19 1    
    25   18   20 1    
    26   18   34 1    
    27   20   21 1    
    28   19   35 1    
    29   20   36 1    
    30   22   23 1    
    31   21   37 1    
    32   22   24 1    
    33   23   29 2    
    34   24   25 2    
    35   23   38 1    
    36   24   26 1    
    37   26   27 1    
    38   27   28 2    
    39   26   39 1    
    40   27   29 1    
    41   29   40 1    
@<TRIPOS>SUBSTRUCTURE
     1 UTP602      1 GROUP   
@<TRIPOS>SET

