#    Name: 5z4m_1_UTP_CAVITY_N1_4
#    Modification time : Fri May 22 19:34:50 2020

@<TRIPOS>MOLECULE
5z4m_1_UTP_CAVITY_N1_4
   39     0     6     0     0
SMALL
NO_CHARGES


@<TRIPOS>ATOM
      1 OG         -4.9800  -29.3000   14.1200 O.3       1 SER1        0.0000 
      2 OD1       -10.6400  -26.9500   13.2900 O.co2     2 ASP3        0.0000 
      3 OD1        -7.3400  -31.4500   15.9500 O.co2     2 ASP3        0.0000 
      4 OD1        -9.6700  -26.2200   14.1700 O.co2     2 ASP3        0.0000 
      5 OD1        -5.3900  -30.6600   15.7000 O.co2     2 ASP3        0.0000 
      6 OD1        -6.3700  -30.7200   16.8300 O.co2     2 ASP3        0.0000 
      7 OD1        -6.7700  -32.0800   18.4000 O.co2     2 ASP3        0.0000 
      8 OD1        -7.3500  -30.7800   17.9600 O.co2     2 ASP3        0.0000 
      9 OD1        -5.4000  -29.9900   17.7100 O.co2     2 ASP3        0.0000 
     10 OD1        -6.3800  -30.0400   18.8400 O.co2     2 ASP3        0.0000 
     11 NZ        -10.0700  -27.5800   15.7500 N.4       3 LYS4        0.0000 
     12 NZ        -10.4800  -28.9400   17.3200 N.4       3 LYS4        0.0000 
     13 NZ        -10.0900  -26.9000   17.7600 N.4       3 LYS4        0.0000 
     14 CZ         -8.9200  -29.5200   18.6400 C.ar      4 PHE5        0.0000 
     15 CZ         -9.5100  -28.2100   18.2000 C.ar      4 PHE5        0.0000 
     16 CZ         -5.9800  -28.6800   17.2600 C.ar      4 PHE5        0.0000 
     17 CZ         -7.9500  -28.7900   19.5300 C.ar      4 PHE5        0.0000 
     18 CA         -8.7100  -33.5500   16.6400 C.3       5 GLY6        0.0000 
     19 CA         -7.7400  -32.8200   17.5200 C.3       5 GLY6        0.0000 
     20 CA         -8.7300  -32.8700   18.6500 C.3       5 GLY6        0.0000 
     21 CA         -9.3100  -31.5600   18.2100 C.3       5 GLY6        0.0000 
     22 CA         -6.5500  -28.0500   14.8100 C.3       5 GLY6        0.0000 
     23 CA         -8.1200  -26.7900   15.5000 C.3       5 GLY6        0.0000 
     24 CA         -7.7600  -32.1400   19.5300 C.3       5 GLY6        0.0000 
     25 DU         -9.6600  -26.8900   12.1600 H         6 CUB7        0.0000 
     26 DU         -9.2900  -32.2400   16.2000 H         6 CUB7        0.0000 
     27 DU        -10.4600  -29.6200   15.3100 H         6 CUB7        0.0000 
     28 DU        -10.8600  -30.9800   16.8800 H         6 CUB7        0.0000 
     29 DU         -9.0900  -27.5200   14.6200 H         6 CUB7        0.0000 
     30 DU         -8.3200  -31.5100   17.0800 H         6 CUB7        0.0000 
     31 DU         -9.4900  -28.8900   16.1900 H         6 CUB7        0.0000 
     32 DU         -9.8900  -30.2500   17.7600 H         6 CUB7        0.0000 
     33 DU         -5.9700  -29.3600   15.2500 H         6 CUB7        0.0000 
     34 DU         -6.9500  -29.4100   16.3800 H         6 CUB7        0.0000 
     35 DU         -7.5400  -28.1000   15.9400 H         6 CUB7        0.0000 
     36 DU         -7.9400  -29.4700   17.5100 H         6 CUB7        0.0000 
     37 DU         -8.5200  -28.1600   17.0700 H         6 CUB7        0.0000 
     38 DU         -8.3400  -30.8300   19.0900 H         6 CUB7        0.0000 
     39 DU         -6.9700  -28.7400   18.3900 H         6 CUB7        0.0000 
@<TRIPOS>BOND
@<TRIPOS>SUBSTRUCTURE
     1 SER1        1 GROUP   
     2 ASP3        2 GROUP   
     3 LYS4       11 GROUP   
     4 PHE5       14 GROUP   
     5 GLY6       18 GROUP   
     6 CUB7       25 GROUP   
@<TRIPOS>SET

