#    Name: 5z4m_1_UTP_CAVITY_N1_6
#    Modification time : Fri May 22 19:34:50 2020

@<TRIPOS>MOLECULE
5z4m_1_UTP_CAVITY_N1_6
   66     0     7     0     0
SMALL
NO_CHARGES


@<TRIPOS>ATOM
      1 OG        -10.2300  -26.2600    9.7100 O.3       1 SER1        0.0000 
      2 OG        -10.2400  -25.5800   11.7200 O.3       1 SER1        0.0000 
      3 OG         -4.9800  -29.3000   14.1200 O.3       1 SER1        0.0000 
      4 O          -4.4300  -29.2600   18.5900 O.2       2 ALA2        0.0000 
      5 O          -6.0000  -28.0100   19.2800 O.2       2 ALA2        0.0000 
      6 N          -6.5800  -26.7000   18.8300 N.am      2 ALA2        0.0000 
      7 OD1       -12.2000  -26.3700   11.9700 O.co2     3 ASP3        0.0000 
      8 OD1       -10.6400  -26.9500   13.2900 O.co2     3 ASP3        0.0000 
      9 OD1       -11.2300  -25.6400   12.8500 O.co2     3 ASP3        0.0000 
     10 OD1        -7.3400  -31.4500   15.9500 O.co2     3 ASP3        0.0000 
     11 OD1        -9.6700  -26.2200   14.1700 O.co2     3 ASP3        0.0000 
     12 OD1       -10.2600  -24.9100   13.7300 O.co2     3 ASP3        0.0000 
     13 OD1        -5.3900  -30.6600   15.7000 O.co2     3 ASP3        0.0000 
     14 OD1        -6.3700  -30.7200   16.8300 O.co2     3 ASP3        0.0000 
     15 OD1        -9.2900  -24.1800   14.6100 O.co2     3 ASP3        0.0000 
     16 OD1        -6.7700  -32.0800   18.4000 O.co2     3 ASP3        0.0000 
     17 OD1        -7.3500  -30.7800   17.9600 O.co2     3 ASP3        0.0000 
     18 OD1        -9.6900  -25.5400   16.1800 O.co2     3 ASP3        0.0000 
     19 OD1        -5.4000  -29.9900   17.7100 O.co2     3 ASP3        0.0000 
     20 OD1        -6.3800  -30.0400   18.8400 O.co2     3 ASP3        0.0000 
     21 NZ        -10.0700  -27.5800   15.7500 N.4       4 LYS4        0.0000 
     22 NZ        -10.4800  -28.9400   17.3200 N.4       4 LYS4        0.0000 
     23 NZ        -10.0900  -26.9000   17.7600 N.4       4 LYS4        0.0000 
     24 CZ         -8.9200  -29.5200   18.6400 C.ar      5 PHE5        0.0000 
     25 CZ         -9.5100  -28.2100   18.2000 C.ar      5 PHE5        0.0000 
     26 CZ         -4.4200  -29.9300   16.5800 C.ar      5 PHE5        0.0000 
     27 CZ         -5.0000  -28.6200   16.1300 C.ar      5 PHE5        0.0000 
     28 CZ         -5.9800  -28.6800   17.2600 C.ar      5 PHE5        0.0000 
     29 CZ         -7.5500  -27.4300   17.9500 C.ar      5 PHE5        0.0000 
     30 CZ         -7.9500  -28.7900   19.5300 C.ar      5 PHE5        0.0000 
     31 CZ         -9.1200  -26.1700   18.6400 C.ar      5 PHE5        0.0000 
     32 CZ         -5.0100  -27.9500   18.1500 C.ar      5 PHE5        0.0000 
     33 CZ         -5.6000  -26.6400   17.7000 C.ar      5 PHE5        0.0000 
     34 CZ         -7.5700  -26.7500   19.9600 C.ar      5 PHE5        0.0000 
     35 CA         -8.7100  -33.5500   16.6400 C.3       6 GLY6        0.0000 
     36 CA         -9.2700  -24.8500   12.6000 C.3       6 GLY6        0.0000 
     37 CA         -7.7400  -32.8200   17.5200 C.3       6 GLY6        0.0000 
     38 CA         -8.7300  -32.8700   18.6500 C.3       6 GLY6        0.0000 
     39 CA         -9.3100  -31.5600   18.2100 C.3       6 GLY6        0.0000 
     40 CA         -6.5500  -28.0500   14.8100 C.3       6 GLY6        0.0000 
     41 CA         -8.3000  -24.1200   13.4800 C.3       6 GLY6        0.0000 
     42 CA         -8.1200  -26.7900   15.5000 C.3       6 GLY6        0.0000 
     43 CA         -7.7600  -32.1400   19.5300 C.3       6 GLY6        0.0000 
     44 CA         -6.7500  -24.7000   14.8000 C.3       6 GLY6        0.0000 
     45 CA         -6.5700  -27.3700   16.8200 C.3       6 GLY6        0.0000 
     46 CA         -7.1500  -26.0600   16.3800 C.3       6 GLY6        0.0000 
     47 CA         -7.7300  -24.7500   15.9300 C.3       6 GLY6        0.0000 
     48 DU        -11.2100  -26.3100   10.8400 H         7 CUB7        0.0000 
     49 DU         -9.6600  -26.8900   12.1600 H         7 CUB7        0.0000 
     50 DU         -9.2900  -32.2400   16.2000 H         7 CUB7        0.0000 
     51 DU        -10.4600  -29.6200   15.3100 H         7 CUB7        0.0000 
     52 DU        -10.8600  -30.9800   16.8800 H         7 CUB7        0.0000 
     53 DU         -9.0900  -27.5200   14.6200 H         7 CUB7        0.0000 
     54 DU         -8.3200  -31.5100   17.0800 H         7 CUB7        0.0000 
     55 DU         -9.4900  -28.8900   16.1900 H         7 CUB7        0.0000 
     56 DU         -9.8900  -30.2500   17.7600 H         7 CUB7        0.0000 
     57 DU         -5.9700  -29.3600   15.2500 H         7 CUB7        0.0000 
     58 DU         -6.9500  -29.4100   16.3800 H         7 CUB7        0.0000 
     59 DU         -7.5400  -28.1000   15.9400 H         7 CUB7        0.0000 
     60 DU         -8.7000  -25.4900   15.0500 H         7 CUB7        0.0000 
     61 DU         -7.9400  -29.4700   17.5100 H         7 CUB7        0.0000 
     62 DU         -8.5200  -28.1600   17.0700 H         7 CUB7        0.0000 
     63 DU         -9.1000  -26.8500   16.6300 H         7 CUB7        0.0000 
     64 DU         -8.3400  -30.8300   19.0900 H         7 CUB7        0.0000 
     65 DU         -6.9700  -28.7400   18.3900 H         7 CUB7        0.0000 
     66 DU         -8.1300  -26.1200   17.5100 H         7 CUB7        0.0000 
@<TRIPOS>BOND
@<TRIPOS>SUBSTRUCTURE
     1 SER1        1 GROUP   
     2 ALA2        4 GROUP   
     3 ASP3        7 GROUP   
     4 LYS4       21 GROUP   
     5 PHE5       24 GROUP   
     6 GLY6       35 GROUP   
     7 CUB7       48 GROUP   
@<TRIPOS>SET

