#    Name: 5z4m_2_UTP_CAVITY_N1_4
#    Modification time : Fri May 22 19:34:54 2020

@<TRIPOS>MOLECULE
5z4m_2_UTP_CAVITY_N1_4
   80     0     7     0     0
SMALL
NO_CHARGES


@<TRIPOS>ATOM
      1 OG         -9.2400  -26.2000    8.5800 O.3       1 SER1        0.0000 
      2 OG        -10.2300  -26.2600    9.7100 O.3       1 SER1        0.0000 
      3 OG        -10.8100  -24.9500    9.2600 O.3       1 SER1        0.0000 
      4 OG        -11.7900  -25.0000   10.3900 O.3       1 SER1        0.0000 
      5 OG        -10.2400  -25.5800   11.7200 O.3       1 SER1        0.0000 
      6 OG        -10.8200  -24.2700   11.2700 O.3       1 SER1        0.0000 
      7 OG         -9.8500  -23.5400   12.1500 O.3       1 SER1        0.0000 
      8 O          -8.3200  -23.4500   15.4900 O.2       2 ALA2        0.0000 
      9 O          -9.3000  -23.5000   16.6200 O.2       2 ALA2        0.0000 
     10 O          -4.4300  -29.2600   18.5900 O.2       2 ALA2        0.0000 
     11 N          -6.5800  -26.7000   18.8300 N.am      2 ALA2        0.0000 
     12 N          -7.1600  -25.3900   18.3900 N.am      2 ALA2        0.0000 
     13 OD1       -12.2000  -26.3700   11.9700 O.co2     3 ASP3        0.0000 
     14 OD1       -10.6400  -26.9500   13.2900 O.co2     3 ASP3        0.0000 
     15 OD1       -11.2300  -25.6400   12.8500 O.co2     3 ASP3        0.0000 
     16 OD1       -11.8100  -24.3300   12.4000 O.co2     3 ASP3        0.0000 
     17 OD1        -7.3400  -31.4500   15.9500 O.co2     3 ASP3        0.0000 
     18 OD1        -9.6700  -26.2200   14.1700 O.co2     3 ASP3        0.0000 
     19 OD1       -10.2600  -24.9100   13.7300 O.co2     3 ASP3        0.0000 
     20 OD1       -10.8400  -23.6000   13.2800 O.co2     3 ASP3        0.0000 
     21 OD1        -5.3900  -30.6600   15.7000 O.co2     3 ASP3        0.0000 
     22 OD1        -6.3700  -30.7200   16.8300 O.co2     3 ASP3        0.0000 
     23 OD1        -9.2900  -24.1800   14.6100 O.co2     3 ASP3        0.0000 
     24 OD1        -6.7700  -32.0800   18.4000 O.co2     3 ASP3        0.0000 
     25 OD1        -7.3500  -30.7800   17.9600 O.co2     3 ASP3        0.0000 
     26 OD1        -9.6900  -25.5400   16.1800 O.co2     3 ASP3        0.0000 
     27 OD1       -10.2700  -24.2300   15.7400 O.co2     3 ASP3        0.0000 
     28 OD1        -5.4000  -29.9900   17.7100 O.co2     3 ASP3        0.0000 
     29 OD1        -6.3800  -30.0400   18.8400 O.co2     3 ASP3        0.0000 
     30 NZ        -12.3600  -24.3700    7.9400 N.4       4 LYS4        0.0000 
     31 NZ        -11.3900  -23.6400    8.8200 N.4       4 LYS4        0.0000 
     32 NZ        -10.0700  -27.5800   15.7500 N.4       4 LYS4        0.0000 
     33 NZ        -10.4800  -28.9400   17.3200 N.4       4 LYS4        0.0000 
     34 NZ        -10.0900  -26.9000   17.7600 N.4       4 LYS4        0.0000 
     35 CZ         -8.9200  -29.5200   18.6400 C.ar      5 PHE5        0.0000 
     36 CZ         -9.5100  -28.2100   18.2000 C.ar      5 PHE5        0.0000 
     37 CZ         -4.4200  -29.9300   16.5800 C.ar      5 PHE5        0.0000 
     38 CZ         -5.0000  -28.6200   16.1300 C.ar      5 PHE5        0.0000 
     39 CZ         -5.9800  -28.6800   17.2600 C.ar      5 PHE5        0.0000 
     40 CZ         -7.5500  -27.4300   17.9500 C.ar      5 PHE5        0.0000 
     41 CZ         -7.9500  -28.7900   19.5300 C.ar      5 PHE5        0.0000 
     42 CZ         -9.1200  -26.1700   18.6400 C.ar      5 PHE5        0.0000 
     43 CZ         -5.0100  -27.9500   18.1500 C.ar      5 PHE5        0.0000 
     44 CZ         -5.6000  -26.6400   17.7000 C.ar      5 PHE5        0.0000 
     45 CZ         -6.1800  -25.3300   17.2600 C.ar      5 PHE5        0.0000 
     46 CZ         -6.7600  -24.0200   16.8100 C.ar      5 PHE5        0.0000 
     47 CZ         -7.5700  -26.7500   19.9600 C.ar      5 PHE5        0.0000 
     48 CA        -12.3800  -23.7000    9.9500 C.3       6 GLY6        0.0000 
     49 CA        -11.4100  -22.9700   10.8300 C.3       6 GLY6        0.0000 
     50 CA         -9.2700  -24.8500   12.6000 C.3       6 GLY6        0.0000 
     51 CA         -9.3100  -31.5600   18.2100 C.3       6 GLY6        0.0000 
     52 CA         -6.5500  -28.0500   14.8100 C.3       6 GLY6        0.0000 
     53 CA         -8.3000  -24.1200   13.4800 C.3       6 GLY6        0.0000 
     54 CA         -8.1200  -26.7900   15.5000 C.3       6 GLY6        0.0000 
     55 CA         -9.8700  -22.8700   14.1700 C.3       6 GLY6        0.0000 
     56 CA         -6.7500  -24.7000   14.8000 C.3       6 GLY6        0.0000 
     57 CA         -6.5700  -27.3700   16.8200 C.3       6 GLY6        0.0000 
     58 CA         -7.1500  -26.0600   16.3800 C.3       6 GLY6        0.0000 
     59 CA         -7.7300  -24.7500   15.9300 C.3       6 GLY6        0.0000 
     60 CA         -8.7200  -24.8100   17.0600 C.3       6 GLY6        0.0000 
     61 DU        -11.7800  -25.6800    8.3800 H         7 CUB7        0.0000 
     62 DU        -12.7600  -25.7400    9.5100 H         7 CUB7        0.0000 
     63 DU        -13.3500  -24.4300    9.0700 H         7 CUB7        0.0000 
     64 DU        -11.2100  -26.3100   10.8400 H         7 CUB7        0.0000 
     65 DU         -9.6600  -26.8900   12.1600 H         7 CUB7        0.0000 
     66 DU         -6.9400  -30.0900   14.3700 H         7 CUB7        0.0000 
     67 DU         -9.0900  -27.5200   14.6200 H         7 CUB7        0.0000 
     68 DU         -8.3200  -31.5100   17.0800 H         7 CUB7        0.0000 
     69 DU         -9.4900  -28.8900   16.1900 H         7 CUB7        0.0000 
     70 DU         -9.8900  -30.2500   17.7600 H         7 CUB7        0.0000 
     71 DU         -5.9700  -29.3600   15.2500 H         7 CUB7        0.0000 
     72 DU         -6.9500  -29.4100   16.3800 H         7 CUB7        0.0000 
     73 DU         -7.5400  -28.1000   15.9400 H         7 CUB7        0.0000 
     74 DU         -8.7000  -25.4900   15.0500 H         7 CUB7        0.0000 
     75 DU         -7.9400  -29.4700   17.5100 H         7 CUB7        0.0000 
     76 DU         -8.5200  -28.1600   17.0700 H         7 CUB7        0.0000 
     77 DU         -9.1000  -26.8500   16.6300 H         7 CUB7        0.0000 
     78 DU         -8.3400  -30.8300   19.0900 H         7 CUB7        0.0000 
     79 DU         -6.9700  -28.7400   18.3900 H         7 CUB7        0.0000 
     80 DU         -8.1300  -26.1200   17.5100 H         7 CUB7        0.0000 
@<TRIPOS>BOND
@<TRIPOS>SUBSTRUCTURE
     1 SER1        1 GROUP   
     2 ALA2        8 GROUP   
     3 ASP3       13 GROUP   
     4 LYS4       30 GROUP   
     5 PHE5       35 GROUP   
     6 GLY6       48 GROUP   
     7 CUB7       61 GROUP   
@<TRIPOS>SET

