#    Name: 5z4m_1_UTP
#    Modification time : Fri May 22 19:34:50 2020

@<TRIPOS>MOLECULE
5z4m_1_UTP
   40    41     1     0     0
SMALL
NO_CHARGES


@<TRIPOS>ATOM
      1 PA         -6.4660  -34.5490   11.9580 P.3       1 UTP601      0.0000 
      2 O1A        -6.1070  -33.3920   11.0520 O.co2     1 UTP601      0.0000 
      3 O2A        -5.3220  -34.7500   12.9820 O.co2     1 UTP601      0.0000 
      4 O3A        -6.6740  -35.9180   11.0410 O.3       1 UTP601      0.0000 
      5 O5'        -7.9140  -34.1860   12.7890 O.3       1 UTP601      0.0000 
      6 PB         -7.3230  -37.3650   11.6010 P.3       1 UTP601      0.0000 
      7 O1B        -8.8330  -37.1550   11.9470 O.co2     1 UTP601      0.0000 
      8 O2B        -7.2140  -38.4390   10.5030 O.co2     1 UTP601      0.0000 
      9 O3B        -6.4910  -37.8640   12.8830 O.3       1 UTP601      0.0000 
     10 PG         -4.8800  -38.1070   12.7840 P.3       1 UTP601      0.0000 
     11 O1G        -4.1330  -36.9480   13.4820 O.co2     1 UTP601      0.0000 
     12 O2G        -4.5010  -38.1530   11.3240 O.co2     1 UTP601      0.0000 
     13 O3G        -4.4970  -39.4450   13.4420 O.co2     1 UTP601      0.0000 
     14 C5'        -9.1000  -33.9530   12.0340 C.3       1 UTP601      0.0000 
     15 C4'        -9.6430  -32.5170   12.3520 C.3       1 UTP601      0.0000 
     16 O4'       -10.1110  -32.4340   13.8390 O.3       1 UTP601      0.0000 
     17 C1'        -9.5240  -31.1320   14.3560 C.3       1 UTP601      0.0000 
     18 C2'        -8.3760  -31.0250   13.6640 C.3       1 UTP601      0.0000 
     19 O2'        -7.9570  -29.6560   13.4630 O.3       1 UTP601      0.0000 
     20 C3'        -8.6910  -31.6380   12.2110 C.3       1 UTP601      0.0000 
     21 O3'        -9.1210  -30.5590   11.2850 O.3       1 UTP601      0.0000 
     22 N1         -9.4360  -31.1460   15.8540 N.am      1 UTP601      0.0000 
     23 C6         -8.3840  -31.6560   16.5080 C.2       1 UTP601      0.0000 
     24 C2        -10.4930  -30.6170   16.5760 C.2       1 UTP601      0.0000 
     25 O2        -11.4540  -30.1660   16.0320 O.2       1 UTP601      0.0000 
     26 N3        -10.4420  -30.6140   17.9530 N.am      1 UTP601      0.0000 
     27 C4         -9.3730  -31.1300   18.6040 C.2       1 UTP601      0.0000 
     28 O4         -9.3350  -31.0890   19.8320 O.2       1 UTP601      0.0000 
     29 C5         -8.3250  -31.6440   17.8920 C.2       1 UTP601      0.0000 
     30 H5'1       -8.8990  -34.0200   11.0870 H         1 UTP601      0.0000 
     31 H5'2       -9.7700  -34.6140   12.2710 H         1 UTP601      0.0000 
     32 H4'       -10.3810  -32.2990   11.7620 H         1 UTP601      0.0000 
     33 H1'       -10.1090  -30.4050   14.0890 H         1 UTP601      0.0000 
     34 H2'        -7.6750  -31.5370   14.0970 H         1 UTP601      0.0000 
     35 HA         -7.3190  -29.6350   12.9010 H         1 UTP601      0.0000 
     36 H3'        -7.8950  -32.0720   11.8660 H         1 UTP601      0.0000 
     37 HB         -8.4950  -30.3930   10.7340 H         1 UTP601      0.0000 
     38 H6         -7.6710  -32.0060   16.0250 H         1 UTP601      0.0000 
     39 H3        -11.0950  -30.2820   18.4030 H         1 UTP601      0.0000 
     40 H5         -7.5850  -31.9930   18.3340 H         1 UTP601      0.0000 
@<TRIPOS>BOND
     1    1    2 ar   
     2    1    3 ar   
     3    1    4 1    
     4    1    5 1    
     5    4    6 1    
     6    5   14 1    
     7    6    7 ar   
     8    6    8 ar   
     9    6    9 1    
    10    9   10 1    
    11   10   11 ar   
    12   10   12 ar   
    13   10   13 ar   
    14   14   15 1    
    15   14   30 1    
    16   14   31 1    
    17   15   16 1    
    18   15   20 1    
    19   15   32 1    
    20   20   36 1    
    21   16   17 1    
    22   17   18 1    
    23   17   22 1    
    24   17   33 1    
    25   18   19 1    
    26   18   20 1    
    27   18   34 1    
    28   20   21 1    
    29   19   35 1    
    30   22   23 1    
    31   21   37 1    
    32   22   24 1    
    33   23   29 2    
    34   24   25 2    
    35   23   38 1    
    36   24   26 1    
    37   26   27 1    
    38   27   28 2    
    39   26   39 1    
    40   27   29 1    
    41   29   40 1    
@<TRIPOS>SUBSTRUCTURE
     1 UTP601      1 GROUP   
@<TRIPOS>SET

