#    Name: 5xkd_2_FMN
#    Modification time : Fri May 22 19:19:10 2020

@<TRIPOS>MOLECULE
5xkd_2_FMN
   31    33     1     0     1
SMALL
NO_CHARGES


@<TRIPOS>ATOM
      1 N1        -15.5490  -14.0760   43.1360 N.2       1 FMN500      0.0000 
      2 C2        -14.7980  -14.5990   42.1090 C.2       1 FMN500      0.0000 
      3 O2        -14.2300  -13.8520   41.3330 O.2       1 FMN500      0.0000 
      4 N3        -14.6650  -15.9590   41.9410 N.am      1 FMN500      0.0000 
      5 C4        -15.3070  -16.8140   42.7940 C.2       1 FMN500      0.0000 
      6 O4        -15.1530  -18.0130   42.6000 O.2       1 FMN500      0.0000 
      7 C4A       -16.0740  -16.3040   43.8520 C.2       1 FMN500      0.0000 
      8 N5        -16.7070  -17.1360   44.7610 N.2       1 FMN500      0.0000 
      9 C5A       -17.4810  -16.6220   45.7740 C.ar      1 FMN500      0.0000 
     10 C6        -18.1350  -17.4710   46.6720 C.ar      1 FMN500      0.0000 
     11 C7        -18.9040  -16.9170   47.6940 C.ar      1 FMN500      0.0000 
     12 C7M       -19.6220  -17.8030   48.6800 C.3       1 FMN500      0.0000 
     13 C8        -19.0030  -15.5190   47.8130 C.ar      1 FMN500      0.0000 
     14 C8M       -19.8120  -14.8720   48.9060 C.3       1 FMN500      0.0000 
     15 C9        -18.3490  -14.6840   46.9170 C.ar      1 FMN500      0.0000 
     16 C9A       -17.5920  -15.2350   45.8990 C.ar      1 FMN500      0.0000 
     17 N10       -16.9440  -14.3890   45.0230 N.pl3     1 FMN500      0.0000 
     18 C10       -16.1940  -14.9250   44.0020 C.2       1 FMN500      0.0000 
     19 C1'       -17.1130  -12.8980   45.1480 C.3       1 FMN500      0.0000 
     20 C2'       -15.9000  -12.1060   45.5940 C.3       1 FMN500      0.0000 
     21 O2'       -16.1350  -11.8420   46.9690 O.3       1 FMN500      0.0000 
     22 C3'       -15.6260  -10.9050   44.6250 C.3       1 FMN500      0.0000 
     23 O3'       -14.3660  -10.3230   44.8530 O.3       1 FMN500      0.0000 
     24 C4'       -16.6150   -9.7420   44.4860 C.3       1 FMN500      0.0000 
     25 O4'       -16.0500   -8.5760   43.8930 O.3       1 FMN500      0.0000 
     26 C5'       -17.0140   -9.3110   45.8550 C.3       1 FMN500      0.0000 
     27 O5'       -18.0720  -10.1130   46.2860 O.3       1 FMN500      0.0000 
     28 P         -18.5570   -9.5810   47.6990 P.3       1 FMN500      0.0000 
     29 O1P       -17.6940   -8.3740   48.0140 O.co2     1 FMN500      0.0000 
     30 O2P       -18.3570  -10.7380   48.6420 O.co2     1 FMN500      0.0000 
     31 O3P       -19.9890   -9.0970   47.5540 O.co2     1 FMN500      0.0000 
@<TRIPOS>BOND
     1    1    2 1    
     2    1   18 2    
     3    2    3 2    
     4    2    4 am   
     5    4    5 am   
     6    5    6 2    
     7    5    7 1    
     8    7    8 2    
     9    7   18 1    
    10    8    9 1    
    11    9   10 ar   
    12    9   16 ar   
    13   10   11 ar   
    14   11   12 1    
    15   11   13 ar   
    16   13   14 1    
    17   13   15 ar   
    18   15   16 ar   
    19   16   17 1    
    20   17   18 1    
    21   17   19 1    
    22   19   20 1    
    23   20   21 1    
    24   20   22 1    
    25   22   23 1    
    26   22   24 1    
    27   24   25 1    
    28   24   26 1    
    29   26   27 1    
    30   27   28 1    
    31   28   29 ar   
    32   28   30 ar   
    33   28   31 ar   
@<TRIPOS>SUBSTRUCTURE
     1 FMN500      1 GROUP   
@<TRIPOS>SET
ATOM$ORANGE STATIC     ATOMS   COLORGROUP SYSTEM 
34 2 2 5 5 7 7 9 9 10 10 11 11 12 12 13 13 14 \
14 15 15 16 16 18 18 19 19 20 20 22 22 24 24 26 26 

