#    Name: 5xkd_1_FMN_CAVITY_N1_6
#    Modification time : Fri May 22 19:19:07 2020

@<TRIPOS>MOLECULE
5xkd_1_FMN_CAVITY_N1_6
   82     0     6     0     0
SMALL
NO_CHARGES


@<TRIPOS>ATOM
      1 OG        -17.3000  -14.2200    5.8800 O.3       1 SER1        0.0000 
      2 OG        -12.5100  -13.6900    7.8300 O.3       1 SER1        0.0000 
      3 OG        -13.0900  -14.8000    9.5400 O.3       1 SER1        0.0000 
      4 OG        -13.7700  -13.8100    8.6400 O.3       1 SER1        0.0000 
      5 OG        -15.0200  -13.9400    9.4500 O.3       1 SER1        0.0000 
      6 OG        -13.8900  -13.8000   11.2300 O.3       1 SER1        0.0000 
      7 N         -18.5600  -19.6900    5.8400 N.am      2 ALA2        0.0000 
      8 N         -18.1000  -18.5600    6.7300 N.am      2 ALA2        0.0000 
      9 N         -18.7900  -17.5800    5.8300 N.am      2 ALA2        0.0000 
     10 N         -19.3600  -18.6900    7.5400 N.am      2 ALA2        0.0000 
     11 N         -18.3300  -16.4500    6.7100 N.am      2 ALA2        0.0000 
     12 N         -18.9000  -17.5700    8.4200 N.am      2 ALA2        0.0000 
     13 N         -19.5800  -16.5800    7.5200 N.am      2 ALA2        0.0000 
     14 N         -20.1600  -17.6900    9.2300 N.am      2 ALA2        0.0000 
     15 N         -15.2500  -17.1700    8.5900 N.am      2 ALA2        0.0000 
     16 N         -16.5100  -17.3000    9.4000 N.am      2 ALA2        0.0000 
     17 N         -17.1900  -16.3200    8.4900 N.am      2 ALA2        0.0000 
     18 O         -18.4500  -16.4400    9.3000 O.2       2 ALA2        0.0000 
     19 O         -19.7000  -16.5700   10.1100 O.2       2 ALA2        0.0000 
     20 N         -14.1200  -17.0400   10.3700 N.am      2 ALA2        0.0000 
     21 N         -14.8000  -16.0500    9.4700 N.am      2 ALA2        0.0000 
     22 N         -15.4800  -15.0600    8.5700 N.am      2 ALA2        0.0000 
     23 N         -16.7300  -15.1900    9.3800 N.am      2 ALA2        0.0000 
     24 N         -13.6600  -15.9100   11.2500 N.am      2 ALA2        0.0000 
     25 N         -14.3400  -14.9300   10.3500 N.am      2 ALA2        0.0000 
     26 N         -13.7800  -15.9000   13.8500 N.am      2 ALA2        0.0000 
     27 NZ        -16.9600  -13.0800    9.3600 N.4       3 LYS4        0.0000 
     28 NZ        -18.2200  -13.2100   10.1700 N.4       3 LYS4        0.0000 
     29 NZ        -18.9000  -12.2200    9.2700 N.4       3 LYS4        0.0000 
     30 NZ        -16.5000  -11.9600   10.2400 N.4       3 LYS4        0.0000 
     31 NZ        -18.4400  -11.1000   10.1500 N.4       3 LYS4        0.0000 
     32 CZ        -17.8800  -20.6700    6.7500 C.ar      4 PHE5        0.0000 
     33 CZ        -11.8300  -20.0100    7.8900 C.ar      4 PHE5        0.0000 
     34 CZ        -12.5200  -19.0300    6.9800 C.ar      4 PHE5        0.0000 
     35 CA        -19.1300  -20.8000    7.5600 C.3       5 GLY6        0.0000 
     36 CA        -16.1700  -19.4200    6.8200 C.3       5 GLY6        0.0000 
     37 CA        -17.4200  -19.5500    7.6300 C.3       5 GLY6        0.0000 
     38 CA        -18.6800  -19.6800    8.4400 C.3       5 GLY6        0.0000 
     39 CA        -19.9300  -19.8000    9.2500 C.3       5 GLY6        0.0000 
     40 CA        -13.0900  -20.1400    8.7000 C.3       5 GLY6        0.0000 
     41 CA        -13.7700  -19.1600    7.7900 C.3       5 GLY6        0.0000 
     42 CA        -15.7100  -18.3000    7.7000 C.3       5 GLY6        0.0000 
     43 CA        -16.9700  -18.4200    8.5100 C.3       5 GLY6        0.0000 
     44 CA        -18.2200  -18.5500    9.3200 C.3       5 GLY6        0.0000 
     45 CA        -18.8000  -19.6600   11.0400 C.3       5 GLY6        0.0000 
     46 CA        -19.4800  -18.6800   10.1300 C.3       5 GLY6        0.0000 
     47 CA        -10.8000  -17.7800    7.0600 C.3       5 GLY6        0.0000 
     48 CA        -11.3800  -18.8900    8.7700 C.3       5 GLY6        0.0000 
     49 CA        -12.0600  -17.9100    7.8700 C.3       5 GLY6        0.0000 
     50 CA        -12.6300  -19.0200    9.5800 C.3       5 GLY6        0.0000 
     51 CA        -14.5700  -18.1600    9.4900 C.3       5 GLY6        0.0000 
     52 CA        -17.7700  -17.4300   10.2100 C.3       5 GLY6        0.0000 
     53 CA        -11.6000  -16.7800    8.7500 C.3       5 GLY6        0.0000 
     54 CA        -12.2900  -15.8000    7.8500 C.3       5 GLY6        0.0000 
     55 CA        -12.8600  -16.9100    9.5600 C.3       5 GLY6        0.0000 
     56 CA        -17.9900  -15.3200   10.1900 C.3       5 GLY6        0.0000 
     57 CA        -18.6700  -14.3300    9.2800 C.3       5 GLY6        0.0000 
     58 CA        -12.4000  -15.7900   10.4400 C.3       5 GLY6        0.0000 
     59 CA        -13.2000  -14.7900   12.1400 C.3       5 GLY6        0.0000 
     60 DU        -16.7300  -18.4500    3.3200 H         6 CUB7        0.0000 
     61 DU        -16.2700  -17.3200    4.2000 H         6 CUB7        0.0000 
     62 DU        -16.8500  -18.4400    5.9200 H         6 CUB7        0.0000 
     63 DU        -17.5300  -17.4500    5.0200 H         6 CUB7        0.0000 
     64 DU        -13.2000  -18.0400    6.0800 H         6 CUB7        0.0000 
     65 DU        -14.4500  -18.1700    6.8900 H         6 CUB7        0.0000 
     66 DU        -15.8200  -16.2000    5.0900 H         6 CUB7        0.0000 
     67 DU        -16.3900  -17.3100    6.8000 H         6 CUB7        0.0000 
     68 DU        -17.0700  -16.3300    5.9000 H         6 CUB7        0.0000 
     69 DU        -17.6500  -17.4400    7.6100 H         6 CUB7        0.0000 
     70 DU        -12.7400  -16.9200    6.9600 H         6 CUB7        0.0000 
     71 DU        -13.3200  -18.0300    8.6800 H         6 CUB7        0.0000 
     72 DU        -14.0000  -17.0500    7.7700 H         6 CUB7        0.0000 
     73 DU        -15.3600  -15.0800    5.9700 H         6 CUB7        0.0000 
     74 DU        -15.9400  -16.1900    7.6800 H         6 CUB7        0.0000 
     75 DU        -16.6200  -15.2000    6.7800 H         6 CUB7        0.0000 
     76 DU        -17.8700  -15.3300    7.5900 H         6 CUB7        0.0000 
     77 DU        -18.5500  -14.3400    6.6900 H         6 CUB7        0.0000 
     78 DU        -19.1300  -15.4600    8.4000 H         6 CUB7        0.0000 
     79 DU        -13.5400  -15.9200    8.6600 H         6 CUB7        0.0000 
     80 DU        -14.2200  -14.9400    7.7600 H         6 CUB7        0.0000 
     81 DU        -17.4200  -14.2100    8.4700 H         6 CUB7        0.0000 
     82 DU        -17.6400  -12.1000    8.4600 H         6 CUB7        0.0000 
@<TRIPOS>BOND
@<TRIPOS>SUBSTRUCTURE
     1 SER1        1 GROUP   
     2 ALA2        7 GROUP   
     3 LYS4       27 GROUP   
     4 PHE5       32 GROUP   
     5 GLY6       35 GROUP   
     6 CUB7       60 GROUP   
@<TRIPOS>SET

