#    Name: 5xkd_3_FMN
#    Modification time : Fri May 22 19:19:14 2020

@<TRIPOS>MOLECULE
5xkd_3_FMN
   31    33     1     0     1
SMALL
NO_CHARGES


@<TRIPOS>ATOM
      1 N1        -38.5570  -68.4860   12.3000 N.2       1 FMN500      0.0000 
      2 C2        -37.2600  -68.5330   12.7460 C.2       1 FMN500      0.0000 
      3 O2        -36.8430  -69.5780   13.2310 O.2       1 FMN500      0.0000 
      4 N3        -36.4410  -67.4230   12.6530 N.am      1 FMN500      0.0000 
      5 C4        -36.9520  -66.2570   12.1100 C.2       1 FMN500      0.0000 
      6 O4        -36.2300  -65.2740   12.0330 O.2       1 FMN500      0.0000 
      7 C4A       -38.2650  -66.2040   11.6500 C.2       1 FMN500      0.0000 
      8 N5        -38.7860  -65.0480   11.0970 N.2       1 FMN500      0.0000 
      9 C5A       -40.0980  -65.0270   10.6530 C.ar      1 FMN500      0.0000 
     10 C6        -40.6250  -63.8690   10.0860 C.ar      1 FMN500      0.0000 
     11 C7        -41.9430  -63.8290    9.6340 C.ar      1 FMN500      0.0000 
     12 C7M       -42.4850  -62.5580    9.0340 C.3       1 FMN500      0.0000 
     13 C8        -42.7420  -64.9670    9.7530 C.ar      1 FMN500      0.0000 
     14 C8M       -44.1750  -64.9510    9.2860 C.3       1 FMN500      0.0000 
     15 C9        -42.2110  -66.1270   10.3180 C.ar      1 FMN500      0.0000 
     16 C9A       -40.8950  -66.1670   10.7570 C.ar      1 FMN500      0.0000 
     17 N10       -40.3690  -67.3300   11.3080 N.pl3     1 FMN500      0.0000 
     18 C10       -39.0640  -67.3380   11.7510 C.2       1 FMN500      0.0000 
     19 C1'       -41.2170  -68.5610   11.5080 C.3       1 FMN500      0.0000 
     20 C2'       -40.9210  -69.7460   10.6200 C.3       1 FMN500      0.0000 
     21 O2'       -41.8730  -69.5600    9.5850 O.3       1 FMN500      0.0000 
     22 C3'       -40.8880  -71.0540   11.4940 C.3       1 FMN500      0.0000 
     23 O3'       -40.1280  -72.0900   10.9330 O.3       1 FMN500      0.0000 
     24 C4'       -42.1350  -71.7130   12.0980 C.3       1 FMN500      0.0000 
     25 O4'       -41.9410  -73.0370   12.5740 O.3       1 FMN500      0.0000 
     26 C5'       -43.2340  -71.7260   11.0960 C.3       1 FMN500      0.0000 
     27 O5'       -43.7310  -70.4240   11.1920 O.3       1 FMN500      0.0000 
     28 P         -45.0720  -70.2860   10.3950 P.3       1 FMN500      0.0000 
     29 O1P       -45.2490  -71.6060    9.6870 O.co2     1 FMN500      0.0000 
     30 O2P       -44.9850  -69.1330    9.4210 O.co2     1 FMN500      0.0000 
     31 O3P       -46.1560  -70.1540   11.4360 O.co2     1 FMN500      0.0000 
@<TRIPOS>BOND
     1    1    2 1    
     2    1   18 2    
     3    2    3 2    
     4    2    4 am   
     5    4    5 am   
     6    5    6 2    
     7    5    7 1    
     8    7    8 2    
     9    7   18 1    
    10    8    9 1    
    11    9   10 ar   
    12    9   16 ar   
    13   10   11 ar   
    14   11   12 1    
    15   11   13 ar   
    16   13   14 1    
    17   13   15 ar   
    18   15   16 ar   
    19   16   17 1    
    20   17   18 1    
    21   17   19 1    
    22   19   20 1    
    23   20   21 1    
    24   20   22 1    
    25   22   23 1    
    26   22   24 1    
    27   24   25 1    
    28   24   26 1    
    29   26   27 1    
    30   27   28 1    
    31   28   29 ar   
    32   28   30 ar   
    33   28   31 ar   
@<TRIPOS>SUBSTRUCTURE
     1 FMN500      1 GROUP   
@<TRIPOS>SET
ATOM$ORANGE STATIC     ATOMS   COLORGROUP SYSTEM 
34 2 2 5 5 7 7 9 9 10 10 11 11 12 12 13 13 14 \
14 15 15 16 16 18 18 19 19 20 20 22 22 24 24 26 26 

