#    Name: 5xkd_3_FMN_CAVITY_N1_4
#    Modification time : Fri May 22 19:19:15 2020

@<TRIPOS>MOLECULE
5xkd_3_FMN_CAVITY_N1_4
   99     0     7     0     0
SMALL
NO_CHARGES


@<TRIPOS>ATOM
      1 OG        -38.9300  -73.0300   10.3500 O.3       1 SER1        0.0000 
      2 OG        -39.6100  -72.0400    9.4400 O.3       1 SER1        0.0000 
      3 OG        -40.1800  -73.1500   11.1600 O.3       1 SER1        0.0000 
      4 OG        -40.8700  -72.1700   10.2500 O.3       1 SER1        0.0000 
      5 OG        -43.3800  -72.4200   11.8700 O.3       1 SER1        0.0000 
      6 OG        -44.0600  -71.4400   10.9700 O.3       1 SER1        0.0000 
      7 OG        -37.2200  -71.7800   10.4200 O.3       1 SER1        0.0000 
      8 OG        -37.9000  -70.7900    9.5200 O.3       1 SER1        0.0000 
      9 OG        -39.1500  -70.9200   10.3300 O.3       1 SER1        0.0000 
     10 OG        -40.4100  -71.0500   11.1400 O.3       1 SER1        0.0000 
     11 OG        -40.9800  -72.1600   12.8500 O.3       1 SER1        0.0000 
     12 OG        -41.6700  -71.1700   11.9500 O.3       1 SER1        0.0000 
     13 OG        -42.9200  -71.3000   12.7600 O.3       1 SER1        0.0000 
     14 OG        -35.5000  -70.5300   10.4900 O.3       1 SER1        0.0000 
     15 OG        -37.4400  -69.6700   10.4000 O.3       1 SER1        0.0000 
     16 OG        -39.3800  -68.8100   10.3100 O.3       1 SER1        0.0000 
     17 OG        -40.6400  -68.9400   11.1200 O.3       1 SER1        0.0000 
     18 OG        -41.2100  -70.0500   12.8300 O.3       1 SER1        0.0000 
     19 OG        -37.7700  -65.4600    7.7700 O.3       1 SER1        0.0000 
     20 OG        -36.3000  -69.5300   12.1800 O.3       1 SER1        0.0000 
     21 OG        -36.9900  -68.5400   11.2800 O.3       1 SER1        0.0000 
     22 OG        -38.2400  -68.6700   12.0900 O.3       1 SER1        0.0000 
     23 OG        -37.5500  -64.3200   13.8400 O.3       1 SER1        0.0000 
     24 O         -38.1300  -74.0200    8.6500 O.2       2 ALA2        0.0000 
     25 N         -38.7000  -75.1400   10.3600 N.am      2 ALA2        0.0000 
     26 O         -36.9900  -73.8900   10.4400 O.2       2 ALA2        0.0000 
     27 O         -37.6700  -72.9000    9.5300 O.2       2 ALA2        0.0000 
     28 N         -41.8900  -69.0600   11.9300 N.am      2 ALA2        0.0000 
     29 N         -34.4700  -68.2900    9.6600 N.am      2 ALA2        0.0000 
     30 N         -35.0500  -69.4000   11.3700 N.am      2 ALA2        0.0000 
     31 N         -35.7300  -68.4200   10.4700 N.am      2 ALA2        0.0000 
     32 N         -40.8600  -66.8300   11.1000 N.am      2 ALA2        0.0000 
     33 N         -41.4300  -67.9400   12.8100 N.am      2 ALA2        0.0000 
     34 N         -34.0200  -67.1700   10.5400 N.am      2 ALA2        0.0000 
     35 N         -35.2700  -67.2900   11.3500 N.am      2 ALA2        0.0000 
     36 N         -35.9600  -66.3100   10.4500 N.am      2 ALA2        0.0000 
     37 N         -36.5300  -67.4200   12.1600 N.am      2 ALA2        0.0000 
     38 N         -36.0700  -66.3000   13.0500 N.am      2 ALA2        0.0000 
     39 O         -38.2400  -63.3300   12.9400 O.2       2 ALA2        0.0000 
     40 OD1       -41.1000  -75.4000    9.3900 O.co2     3 ASP3        0.0000 
     41 OD1       -40.6400  -74.2800   10.2700 O.co2     3 ASP3        0.0000 
     42 OD1       -41.4400  -73.2800   11.9700 O.co2     3 ASP3        0.0000 
     43 NZ        -34.8200  -71.5100   11.3900 N.4       4 LYS4        0.0000 
     44 CZ        -42.5800  -73.4200   10.1800 C.ar      5 PHE5        0.0000 
     45 CZ        -36.8600  -63.2100    9.5300 C.ar      5 PHE5        0.0000 
     46 CZ        -38.1200  -63.3400   10.3400 C.ar      5 PHE5        0.0000 
     47 CZ        -39.3700  -63.4700   11.1500 C.ar      5 PHE5        0.0000 
     48 CZ        -37.6600  -62.2200   11.2200 C.ar      5 PHE5        0.0000 
     49 CA        -38.2500  -74.0100   11.2500 C.3       6 GLY6        0.0000 
     50 CA        -36.5300  -72.7600   11.3200 C.3       6 GLY6        0.0000 
     51 CA        -42.5700  -68.0800   11.0300 C.3       6 GLY6        0.0000 
     52 CA        -33.7900  -69.2800   10.5600 C.3       6 GLY6        0.0000 
     53 CA        -39.5000  -68.8000   12.9000 C.3       6 GLY6        0.0000 
     54 CA        -40.1800  -67.8100   12.0000 C.3       6 GLY6        0.0000 
     55 CA        -37.7900  -67.5500   12.9700 C.3       6 GLY6        0.0000 
     56 CA        -38.4700  -66.5600   12.0700 C.3       6 GLY6        0.0000 
     57 CA        -39.8300  -64.5900   10.2700 C.3       6 GLY6        0.0000 
     58 CA        -40.4000  -65.7000   11.9800 C.3       6 GLY6        0.0000 
     59 CA        -34.2400  -65.0600   10.5200 C.3       6 GLY6        0.0000 
     60 CA        -34.9300  -64.0700    9.6200 C.3       6 GLY6        0.0000 
     61 CA        -35.5000  -65.1800   11.3400 C.3       6 GLY6        0.0000 
     62 CA        -36.1800  -64.2000   10.4300 C.3       6 GLY6        0.0000 
     63 CA        -36.7500  -65.3100   12.1500 C.3       6 GLY6        0.0000 
     64 CA        -37.4400  -64.3300   11.2400 C.3       6 GLY6        0.0000 
     65 CA        -37.3300  -66.4200   13.8600 C.3       6 GLY6        0.0000 
     66 CA        -38.0100  -65.4400   12.9600 C.3       6 GLY6        0.0000 
     67 CA        -38.6900  -64.4500   12.0500 C.3       6 GLY6        0.0000 
     68 CA        -36.3000  -64.1900   13.0300 C.3       6 GLY6        0.0000 
     69 CA        -36.9800  -63.2000   12.1300 C.3       6 GLY6        0.0000 
     70 DU        -39.3800  -74.1500    9.4600 H         7 CUB7        0.0000 
     71 DU        -41.3200  -73.2900    9.3700 H         7 CUB7        0.0000 
     72 DU        -38.3500  -71.9200    8.6300 H         7 CUB7        0.0000 
     73 DU        -41.5500  -71.1800    9.3500 H         7 CUB7        0.0000 
     74 DU        -42.1200  -72.3000   11.0600 H         7 CUB7        0.0000 
     75 DU        -42.8000  -71.3100   10.1600 H         7 CUB7        0.0000 
     76 DU        -38.5800  -69.8100    8.6100 H         7 CUB7        0.0000 
     77 DU        -39.8400  -69.9300    9.4200 H         7 CUB7        0.0000 
     78 DU        -41.0900  -70.0600   10.2300 H         7 CUB7        0.0000 
     79 DU        -42.3500  -70.1900   11.0400 H         7 CUB7        0.0000 
     80 DU        -36.1900  -69.5400    9.5900 H         7 CUB7        0.0000 
     81 DU        -36.8700  -68.5600    8.6900 H         7 CUB7        0.0000 
     82 DU        -38.1200  -68.6800    9.5000 H         7 CUB7        0.0000 
     83 DU        -38.8100  -67.7000    8.5900 H         7 CUB7        0.0000 
     84 DU        -41.3200  -67.9500   10.2200 H         7 CUB7        0.0000 
     85 DU        -35.1600  -67.3100    8.7600 H         7 CUB7        0.0000 
     86 DU        -36.4100  -67.4300    9.5700 H         7 CUB7        0.0000 
     87 DU        -37.0900  -66.4500    8.6700 H         7 CUB7        0.0000 
     88 DU        -37.6700  -67.5600   10.3800 H         7 CUB7        0.0000 
     89 DU        -39.0300  -65.5900    8.5800 H         7 CUB7        0.0000 
     90 DU        -38.9200  -67.6900   11.1900 H         7 CUB7        0.0000 
     91 DU        -39.6000  -66.7000   10.2900 H         7 CUB7        0.0000 
     92 DU        -34.7000  -66.1800    9.6400 H         7 CUB7        0.0000 
     93 DU        -35.3800  -65.2000    8.7400 H         7 CUB7        0.0000 
     94 DU        -36.6400  -65.3200    9.5500 H         7 CUB7        0.0000 
     95 DU        -37.3200  -64.3400    8.6500 H         7 CUB7        0.0000 
     96 DU        -37.2100  -66.4400   11.2600 H         7 CUB7        0.0000 
     97 DU        -37.8900  -65.4500   10.3600 H         7 CUB7        0.0000 
     98 DU        -38.5700  -64.4600    9.4600 H         7 CUB7        0.0000 
     99 DU        -39.1500  -65.5800   11.1700 H         7 CUB7        0.0000 
@<TRIPOS>BOND
@<TRIPOS>SUBSTRUCTURE
     1 SER1        1 GROUP   
     2 ALA2       24 GROUP   
     3 ASP3       40 GROUP   
     4 LYS4       43 GROUP   
     5 PHE5       44 GROUP   
     6 GLY6       49 GROUP   
     7 CUB7       70 GROUP   
@<TRIPOS>SET

