#    Name: 5xkd_1_FMN
#    Modification time : Fri May 22 19:19:06 2020

@<TRIPOS>MOLECULE
5xkd_1_FMN
   31    33     1     0     1
SMALL
NO_CHARGES


@<TRIPOS>ATOM
      1 N1        -12.2930  -14.8760    8.7900 N.2       1 FMN500      0.0000 
      2 C2        -13.2130  -14.9880    9.8150 C.2       1 FMN500      0.0000 
      3 O2        -13.3940  -14.0530   10.5800 O.2       1 FMN500      0.0000 
      4 N3        -13.9480  -16.1420    9.9920 N.am      1 FMN500      0.0000 
      5 C4        -13.7670  -17.2050    9.1400 C.2       1 FMN500      0.0000 
      6 O4        -14.4350  -18.2070    9.3510 O.2       1 FMN500      0.0000 
      7 C4A       -12.8490  -17.1070    8.0880 C.2       1 FMN500      0.0000 
      8 N5        -12.6660  -18.1650    7.2210 N.2       1 FMN500      0.0000 
      9 C5A       -11.7570  -18.0680    6.1800 C.ar      1 FMN500      0.0000 
     10 C6        -11.5880  -19.1410    5.3040 C.ar      1 FMN500      0.0000 
     11 C7        -10.6720  -19.0650    4.2630 C.ar      1 FMN500      0.0000 
     12 C7M       -10.5130  -20.2400    3.3600 C.3       1 FMN500      0.0000 
     13 C8         -9.9230  -17.8960    4.0810 C.ar      1 FMN500      0.0000 
     14 C8M        -8.9270  -17.7660    2.9570 C.3       1 FMN500      0.0000 
     15 C9        -10.0930  -16.8180    4.9560 C.ar      1 FMN500      0.0000 
     16 C9A       -11.0120  -16.8940    6.0060 C.ar      1 FMN500      0.0000 
     17 N10       -11.1930  -15.8090    6.8690 N.pl3     1 FMN500      0.0000 
     18 C10       -12.1030  -15.9280    7.9140 C.2       1 FMN500      0.0000 
     19 C1'       -10.3460  -14.5790    6.6800 C.3       1 FMN500      0.0000 
     20 C2'       -11.0420  -13.2880    6.2920 C.3       1 FMN500      0.0000 
     21 O2'       -10.6800  -13.0390    4.9470 O.3       1 FMN500      0.0000 
     22 C3'       -10.7050  -12.1560    7.3150 C.3       1 FMN500      0.0000 
     23 O3'       -11.6050  -11.0680    7.2260 O.3       1 FMN500      0.0000 
     24 C4'        -9.2880  -11.5700    7.4360 C.3       1 FMN500      0.0000 
     25 O4'        -9.3040  -10.2740    8.0020 O.3       1 FMN500      0.0000 
     26 C5'        -8.6500  -11.3370    6.1020 C.3       1 FMN500      0.0000 
     27 O5'        -8.1000  -12.5650    5.7390 O.3       1 FMN500      0.0000 
     28 P          -7.4880  -12.5160    4.2930 P.3       1 FMN500      0.0000 
     29 O1P        -7.7120  -11.1240    3.7640 O.co2     1 FMN500      0.0000 
     30 O2P        -8.2370  -13.5590    3.4860 O.co2     1 FMN500      0.0000 
     31 O3P        -6.0060  -12.7490    4.4440 O.co2     1 FMN500      0.0000 
@<TRIPOS>BOND
     1    1    2 1    
     2    1   18 2    
     3    2    3 2    
     4    2    4 am   
     5    4    5 am   
     6    5    6 2    
     7    5    7 1    
     8    7    8 2    
     9    7   18 1    
    10    8    9 1    
    11    9   10 ar   
    12    9   16 ar   
    13   10   11 ar   
    14   11   12 1    
    15   11   13 ar   
    16   13   14 1    
    17   13   15 ar   
    18   15   16 ar   
    19   16   17 1    
    20   17   18 1    
    21   17   19 1    
    22   19   20 1    
    23   20   21 1    
    24   20   22 1    
    25   22   23 1    
    26   22   24 1    
    27   24   25 1    
    28   24   26 1    
    29   26   27 1    
    30   27   28 1    
    31   28   29 ar   
    32   28   30 ar   
    33   28   31 ar   
@<TRIPOS>SUBSTRUCTURE
     1 FMN500      1 GROUP   
@<TRIPOS>SET
ATOM$ORANGE STATIC     ATOMS   COLORGROUP SYSTEM 
34 2 2 5 5 7 7 9 9 10 10 11 11 12 12 13 13 14 \
14 15 15 16 16 18 18 19 19 20 20 22 22 24 24 26 26 

