#    Name: 5xkd_2_FMN_CAVITY_N1_6
#    Modification time : Fri May 22 19:19:11 2020

@<TRIPOS>MOLECULE
5xkd_2_FMN_CAVITY_N1_6
   59     0     4     0     0
SMALL
NO_CHARGES


@<TRIPOS>ATOM
      1 N         -20.6700  -17.4000   47.3500 N.am      1 ALA2        0.0000 
      2 O         -19.6400  -15.1700   46.5200 O.2       1 ALA2        0.0000 
      3 N         -19.5300  -17.2600   49.1400 N.am      1 ALA2        0.0000 
      4 N         -20.2200  -16.2800   48.2300 N.am      1 ALA2        0.0000 
      5 N         -20.7900  -17.3900   49.9500 N.am      1 ALA2        0.0000 
      6 O         -18.5000  -15.0300   48.3100 O.2       1 ALA2        0.0000 
      7 O         -19.7600  -15.1500   49.1200 O.2       1 ALA2        0.0000 
      8 O         -19.3000  -14.0300   50.0000 O.2       1 ALA2        0.0000 
      9 N         -18.5100  -17.1100   53.5200 N.am      1 ALA2        0.0000 
     10 N         -19.2000  -16.1300   52.6100 N.am      1 ALA2        0.0000 
     11 N         -18.0600  -15.9900   54.4000 N.am      1 ALA2        0.0000 
     12 N         -20.0000  -15.1300   54.3100 N.am      1 ALA2        0.0000 
     13 CZ        -17.4800  -18.1300   46.6300 C.ar      2 PHE5        0.0000 
     14 CZ        -18.0500  -19.2500   48.3500 C.ar      2 PHE5        0.0000 
     15 CZ        -18.7300  -18.2600   47.4400 C.ar      2 PHE5        0.0000 
     16 CZ        -19.9900  -18.3900   48.2500 C.ar      2 PHE5        0.0000 
     17 CZ        -13.4900  -16.6100   50.2800 C.ar      2 PHE5        0.0000 
     18 CZ        -14.7500  -16.7300   51.0900 C.ar      2 PHE5        0.0000 
     19 CZ        -16.5800  -17.9700   53.6100 C.ar      2 PHE5        0.0000 
     20 CZ        -16.8000  -15.8600   53.5900 C.ar      2 PHE5        0.0000 
     21 CA        -18.1600  -17.1500   45.7300 C.3       3 GLY6        0.0000 
     22 CA        -19.4200  -17.2700   46.5400 C.3       3 GLY6        0.0000 
     23 CA        -17.7000  -16.0200   46.6100 C.3       3 GLY6        0.0000 
     24 CA        -18.3900  -15.0400   45.7100 C.3       3 GLY6        0.0000 
     25 CA        -16.9200  -19.1100   50.1300 C.3       3 GLY6        0.0000 
     26 CA        -17.6000  -18.1200   49.2300 C.3       3 GLY6        0.0000 
     27 CA        -18.9600  -16.1500   47.4200 C.3       3 GLY6        0.0000 
     28 CA        -18.8500  -18.2500   50.0400 C.3       3 GLY6        0.0000 
     29 CA        -14.5200  -18.8400   51.1000 C.3       3 GLY6        0.0000 
     30 CA        -15.7800  -18.9700   51.9200 C.3       3 GLY6        0.0000 
     31 CA        -16.4600  -17.9800   51.0100 C.3       3 GLY6        0.0000 
     32 CA        -17.0300  -19.1000   52.7300 C.3       3 GLY6        0.0000 
     33 CA        -17.7200  -18.1100   51.8200 C.3       3 GLY6        0.0000 
     34 CA        -18.4000  -17.1300   50.9200 C.3       3 GLY6        0.0000 
     35 CA        -19.6500  -17.2500   51.7300 C.3       3 GLY6        0.0000 
     36 CA        -20.3300  -16.2700   50.8300 C.3       3 GLY6        0.0000 
     37 CA        -21.0200  -15.2800   49.9300 C.3       3 GLY6        0.0000 
     38 CA        -15.3200  -17.8500   52.8000 C.3       3 GLY6        0.0000 
     39 CA        -17.2600  -16.9900   52.7100 C.3       3 GLY6        0.0000 
     40 CA        -18.6200  -15.0200   50.9000 C.3       3 GLY6        0.0000 
     41 CA        -19.8800  -15.1400   51.7100 C.3       3 GLY6        0.0000 
     42 CA        -18.8500  -12.9100   50.8800 C.3       3 GLY6        0.0000 
     43 CA        -19.4200  -14.0200   52.6000 C.3       3 GLY6        0.0000 
     44 CA        -18.9700  -12.9000   53.4800 C.3       3 GLY6        0.0000 
     45 CA        -20.2200  -13.0200   54.2900 C.3       3 GLY6        0.0000 
     46 DU        -16.4500  -15.9000   45.8000 H         4 CUB7        0.0000 
     47 DU        -16.3400  -18.0000   48.4200 H         4 CUB7        0.0000 
     48 DU        -17.0200  -17.0100   47.5200 H         4 CUB7        0.0000 
     49 DU        -18.2800  -17.1400   48.3300 H         4 CUB7        0.0000 
     50 DU        -15.2000  -17.8600   50.2000 H         4 CUB7        0.0000 
     51 DU        -17.1400  -17.0000   50.1100 H         4 CUB7        0.0000 
     52 DU        -19.0800  -16.1400   50.0200 H         4 CUB7        0.0000 
     53 DU        -15.4300  -15.7500   50.1800 H         4 CUB7        0.0000 
     54 DU        -16.0000  -16.8600   51.9000 H         4 CUB7        0.0000 
     55 DU        -17.9400  -16.0000   51.8000 H         4 CUB7        0.0000 
     56 DU        -15.5500  -15.7400   52.7800 H         4 CUB7        0.0000 
     57 DU        -18.1700  -13.8900   51.7900 H         4 CUB7        0.0000 
     58 DU        -18.7400  -15.0100   53.5000 H         4 CUB7        0.0000 
     59 DU        -18.2800  -13.8800   54.3800 H         4 CUB7        0.0000 
@<TRIPOS>BOND
@<TRIPOS>SUBSTRUCTURE
     1 ALA2        1 GROUP   
     2 PHE5       13 GROUP   
     3 GLY6       21 GROUP   
     4 CUB7       46 GROUP   
@<TRIPOS>SET

