#    Name: 5xkd_4_FMN
#    Modification time : Fri May 22 19:19:18 2020

@<TRIPOS>MOLECULE
5xkd_4_FMN
   31    33     1     0     1
SMALL
NO_CHARGES


@<TRIPOS>ATOM
      1 N1        -18.4530  -73.9790   39.9930 N.2       1 FMN500      0.0000 
      2 C2        -19.6080  -73.3730   39.5390 C.2       1 FMN500      0.0000 
      3 O2        -20.5230  -74.0510   39.0900 O.2       1 FMN500      0.0000 
      4 N3        -19.7550  -72.0060   39.5780 N.am      1 FMN500      0.0000 
      5 C4        -18.7300  -71.2360   40.0720 C.2       1 FMN500      0.0000 
      6 O4        -18.8730  -70.0130   40.0980 O.2       1 FMN500      0.0000 
      7 C4A       -17.5590  -71.8390   40.5360 C.2       1 FMN500      0.0000 
      8 N5        -16.5400  -71.0640   41.0390 N.2       1 FMN500      0.0000 
      9 C5A       -15.3770  -71.6460   41.4920 C.ar      1 FMN500      0.0000 
     10 C6        -14.3500  -70.8640   41.9960 C.ar      1 FMN500      0.0000 
     11 C7        -13.1750  -71.4520   42.4530 C.ar      1 FMN500      0.0000 
     12 C7M       -12.0660  -70.5990   43.0050 C.3       1 FMN500      0.0000 
     13 C8        -13.0310  -72.8330   42.4040 C.ar      1 FMN500      0.0000 
     14 C8M       -11.7720  -73.4830   42.8940 C.3       1 FMN500      0.0000 
     15 C9        -14.0620  -73.6140   41.9040 C.ar      1 FMN500      0.0000 
     16 C9A       -15.2310  -73.0150   41.4490 C.ar      1 FMN500      0.0000 
     17 N10       -16.2450  -73.8060   40.9600 N.pl3     1 FMN500      0.0000 
     18 C10       -17.4170  -73.2190   40.4980 C.2       1 FMN500      0.0000 
     19 C1'       -15.9640  -75.2860   40.9180 C.3       1 FMN500      0.0000 
     20 C2'       -16.9590  -76.1900   41.6080 C.3       1 FMN500      0.0000 
     21 O2'       -16.2330  -76.8270   42.6460 O.3       1 FMN500      0.0000 
     22 C3'       -17.6920  -77.1130   40.5890 C.3       1 FMN500      0.0000 
     23 O3'       -18.9890  -77.4040   41.0730 O.3       1 FMN500      0.0000 
     24 C4'       -17.0740  -78.4210   40.0320 C.3       1 FMN500      0.0000 
     25 O4'       -18.0470  -79.4160   39.7410 O.3       1 FMN500      0.0000 
     26 C5'       -16.0750  -79.0880   40.9370 C.3       1 FMN500      0.0000 
     27 O5'       -14.9280  -78.2950   40.8610 O.3       1 FMN500      0.0000 
     28 P         -13.7420  -78.8050   41.7730 P.3       1 FMN500      0.0000 
     29 O1P       -14.3450  -79.9220   42.6030 O.co2     1 FMN500      0.0000 
     30 O2P       -13.1860  -77.6860   42.6310 O.co2     1 FMN500      0.0000 
     31 O3P       -12.7410  -79.3430   40.7780 O.co2     1 FMN500      0.0000 
@<TRIPOS>BOND
     1    1    2 1    
     2    1   18 2    
     3    2    3 2    
     4    2    4 am   
     5    4    5 am   
     6    5    6 2    
     7    5    7 1    
     8    7    8 2    
     9    7   18 1    
    10    8    9 1    
    11    9   10 ar   
    12    9   16 ar   
    13   10   11 ar   
    14   11   12 1    
    15   11   13 ar   
    16   13   14 1    
    17   13   15 ar   
    18   15   16 ar   
    19   16   17 1    
    20   17   18 1    
    21   17   19 1    
    22   19   20 1    
    23   20   21 1    
    24   20   22 1    
    25   22   23 1    
    26   22   24 1    
    27   24   25 1    
    28   24   26 1    
    29   26   27 1    
    30   27   28 1    
    31   28   29 ar   
    32   28   30 ar   
    33   28   31 ar   
@<TRIPOS>SUBSTRUCTURE
     1 FMN500      1 GROUP   
@<TRIPOS>SET
ATOM$ORANGE STATIC     ATOMS   COLORGROUP SYSTEM 
34 2 2 5 5 7 7 9 9 10 10 11 11 12 12 13 13 14 \
14 15 15 16 16 18 18 19 19 20 20 22 22 24 24 26 26 

