#    Name: 6dde_1_TYR_GLY_DAL_MEA_ETA
#    Modification time : Fri May 22 19:24:54 2020

@<TRIPOS>MOLECULE
6dde_1_TYR_GLY_DAL_MEA_ETA
   37    38     5     0     0
SMALL
NO_CHARGES


@<TRIPOS>ATOM
      1 N         118.3170  148.7800  140.8720 N.4       1 TYR1        0.0000 
      2 CA        118.9520  150.0550  140.5740 C.3       1 TYR1        0.0000 
      3 C         117.9690  151.1860  140.7970 C.2       1 TYR1        0.0000 
      4 O         116.7910  151.0650  140.4730 O.2       1 TYR1        0.0000 
      5 CB        119.4560  150.0870  139.1400 C.3       1 TYR1        0.0000 
      6 CG        120.2920  151.3000  138.8180 C.ar      1 TYR1        0.0000 
      7 CD1       121.6160  151.3730  139.2210 C.ar      1 TYR1        0.0000 
      8 CD2       119.7590  152.3730  138.1210 C.ar      1 TYR1        0.0000 
      9 CE1       122.3920  152.4780  138.9320 C.ar      1 TYR1        0.0000 
     10 CE2       120.5270  153.4860  137.8270 C.ar      1 TYR1        0.0000 
     11 CZ        121.8410  153.5310  138.2350 C.ar      1 TYR1        0.0000 
     12 OH        122.6070  154.6340  137.9440 O.3       1 TYR1        0.0000 
     13 N         117.3970  152.1920  143.7450 N.am      2 GLY3        0.0000 
     14 CA        117.2120  152.0520  145.1730 C.3       2 GLY3        0.0000 
     15 C         118.4980  152.4280  145.8810 C.2       2 GLY3        0.0000 
     16 O         119.5160  152.5950  145.2050 O.2       2 GLY3        0.0000 
     17 N         118.4560  152.2900  141.3480 N.am      3 DAL2        0.0000 
     18 CA        117.5890  153.4120  141.6670 C.3       3 DAL2        0.0000 
     19 CB        118.2790  154.7170  141.3450 C.3       3 DAL2        0.0000 
     20 C         117.2200  153.3580  143.1380 C.2       3 DAL2        0.0000 
     21 O         116.7760  154.3470  143.7120 O.2       3 DAL2        0.0000 
     22 C1        117.2280  152.6560  147.9740 C.3       4 MEA4        0.0000 
     23 N         118.4490  152.5380  147.2170 N.4       4 MEA4        0.0000 
     24 CA        119.5990  152.8680  148.0710 C.3       4 MEA4        0.0000 
     25 C         120.2280  154.1970  147.6660 C.2       4 MEA4        0.0000 
     26 O         121.2250  154.3270  146.9500 O.co2     4 MEA4        0.0000 
     27 CB        120.7130  151.8020  148.0830 C.3       4 MEA4        0.0000 
     28 CG        120.2440  150.4290  147.7840 C.ar      4 MEA4        0.0000 
     29 CD1       119.4050  149.7570  148.6740 C.ar      4 MEA4        0.0000 
     30 CE1       118.9700  148.4690  148.3810 C.ar      4 MEA4        0.0000 
     31 CZ        119.3740  147.8470  147.2040 C.ar      4 MEA4        0.0000 
     32 CE2       120.2070  148.5150  146.3110 C.ar      4 MEA4        0.0000 
     33 CD2       120.6440  149.8040  146.6010 C.ar      4 MEA4        0.0000 
     34 CA        120.0480  156.5980  147.3180 C.3       5 ETA5        0.0000 
     35 N         119.5350  155.3230  147.8210 N.4       5 ETA5        0.0000 
     36 CB        119.2770  157.1130  146.0810 C.3       5 ETA5        0.0000 
     37 O         118.0600  157.7580  146.5630 O.3       5 ETA5        0.0000 
@<TRIPOS>BOND
     1    1    2 1    
     2    2    3 1    
     3    2    5 1    
     4    3    4 2    
     5    3   17 du   
     6    5    6 1    
     7    6    7 ar   
     8    6    8 ar   
     9    7    9 ar   
    10    8   10 ar   
    11    9   11 ar   
    12   10   11 ar   
    13   11   12 1    
    14   13   14 1    
    15   13   20 am   
    16   14   15 1    
    17   15   16 2    
    18   15   23 du   
    19   17   18 1    
    20   18   19 1    
    21   18   20 1    
    22   20   21 2    
    23   22   23 1    
    24   23   24 1    
    25   24   25 1    
    26   24   27 1    
    27   25   26 ar   
    28   25   35 du   
    29   27   28 1    
    30   28   29 ar   
    31   28   33 ar   
    32   29   30 ar   
    33   30   31 ar   
    34   31   32 ar   
    35   32   33 ar   
    36   34   35 1    
    37   34   36 1    
    38   36   37 1    
@<TRIPOS>SUBSTRUCTURE
     1 TYR1        1 RESIDUE 
     2 GLY3       13 RESIDUE 
     3 DAL2       17 RESIDUE 
     4 MEA4       22 GROUP   
     5 ETA5       34 GROUP   
@<TRIPOS>SET

