#    Name: 6uca_3_SAH_CAVITY_N1_4
#    Modification time : Fri May 22 19:29:16 2020

@<TRIPOS>MOLECULE
6uca_3_SAH_CAVITY_N1_4
   45     0     4     0     0
SMALL
NO_CHARGES


@<TRIPOS>ATOM
      1 O          77.7700   24.8400   37.1300 O.2       1 ALA2        0.0000 
      2 N          77.2000   26.1400   37.6300 N.am      1 ALA2        0.0000 
      3 N          77.6900   24.2700   38.5100 N.am      1 ALA2        0.0000 
      4 N          77.1200   25.5600   39.0200 N.am      1 ALA2        0.0000 
      5 N          77.6100   23.7000   39.9000 N.am      1 ALA2        0.0000 
      6 N          77.0400   24.9900   40.4000 N.am      1 ALA2        0.0000 
      7 N          78.5100   26.0600   39.3000 N.am      1 ALA2        0.0000 
      8 N          79.0000   24.2000   40.1800 N.am      1 ALA2        0.0000 
      9 N          78.4300   25.4900   40.6900 N.am      1 ALA2        0.0000 
     10 N          77.8600   26.7800   41.1900 N.am      1 ALA2        0.0000 
     11 N          78.3500   24.9200   42.0700 N.am      1 ALA2        0.0000 
     12 O          79.8900   26.5600   39.5900 O.2       1 ALA2        0.0000 
     13 N          79.7400   25.4100   42.3600 N.am      1 ALA2        0.0000 
     14 N          79.6600   24.8400   43.7400 N.am      1 ALA2        0.0000 
     15 O          79.9100   27.9300   45.0300 O.2       1 ALA2        0.0000 
     16 N          81.5400   23.4700   44.9000 N.am      1 ALA2        0.0000 
     17 N          79.8300   27.3500   46.4200 N.am      1 ALA2        0.0000 
     18 N          81.4600   22.9000   46.2900 N.am      1 ALA2        0.0000 
     19 N          80.3200   25.4800   47.3000 N.am      1 ALA2        0.0000 
     20 NZ         79.8100   25.9900   40.9700 N.4       2 LYS4        0.0000 
     21 NZ         79.2500   27.2800   41.4800 N.4       2 LYS4        0.0000 
     22 NZ         79.1700   26.7100   42.8600 N.4       2 LYS4        0.0000 
     23 NZ         81.1200   25.9100   42.6400 N.4       2 LYS4        0.0000 
     24 CZ         79.5000   23.6900   46.5100 C.ar      3 PHE5        0.0000 
     25 CZ         80.8900   24.1900   46.7900 C.ar      3 PHE5        0.0000 
     26 CA         79.1500   25.3400   37.4200 C.3       4 GLY6        0.0000 
     27 CA         78.5800   26.6400   37.9200 C.3       4 GLY6        0.0000 
     28 CA         79.0800   24.7700   38.8000 C.3       4 GLY6        0.0000 
     29 CA         77.7800   26.2100   42.5700 C.3       4 GLY6        0.0000 
     30 CA         80.4600   25.2700   39.0800 C.3       4 GLY6        0.0000 
     31 CA         78.6000   28.0000   43.3600 C.3       4 GLY6        0.0000 
     32 CA         79.0900   26.1300   44.2400 C.3       4 GLY6        0.0000 
     33 CA         78.5200   27.4300   44.7500 C.3       4 GLY6        0.0000 
     34 CA         77.9500   28.7200   45.2500 C.3       4 GLY6        0.0000 
     35 CA         80.1500   22.9700   44.6200 C.3       4 GLY6        0.0000 
     36 CA         79.5800   24.2700   45.1200 C.3       4 GLY6        0.0000 
     37 CA         79.0100   25.5600   45.6300 C.3       4 GLY6        0.0000 
     38 CA         80.0700   22.4000   46.0000 C.3       4 GLY6        0.0000 
     39 CA         78.9300   24.9900   47.0100 C.3       4 GLY6        0.0000 
     40 CA         81.6100   24.0500   43.5200 C.3       4 GLY6        0.0000 
     41 CA         81.0400   25.3400   44.0200 C.3       4 GLY6        0.0000 
     42 CA         80.4800   26.6300   44.5300 C.3       4 GLY6        0.0000 
     43 CA         80.9700   24.7700   45.4100 C.3       4 GLY6        0.0000 
     44 CA         80.4000   26.0600   45.9100 C.3       4 GLY6        0.0000 
     45 CA         82.9200   23.9700   45.1900 C.3       4 GLY6        0.0000 
@<TRIPOS>BOND
@<TRIPOS>SUBSTRUCTURE
     1 ALA2        1 GROUP   
     2 LYS4       20 GROUP   
     3 PHE5       24 GROUP   
     4 GLY6       26 GROUP   
@<TRIPOS>SET

