#    Name: 6uca_4_SAH
#    Modification time : Fri May 22 19:29:21 2020

@<TRIPOS>MOLECULE
6uca_4_SAH
   26    28     1     0     0
SMALL
NO_CHARGES


@<TRIPOS>ATOM
      1 N         116.1160   73.5770   -1.1670 N.4       1 SAH1001     0.0000 
      2 CA        116.7500   74.6270   -1.9560 C.3       1 SAH1001     0.0000 
      3 CB        118.1590   74.1950   -2.3510 C.3       1 SAH1001     0.0000 
      4 CG        118.7090   73.0290   -1.5370 C.3       1 SAH1001     0.0000 
      5 SD        120.2950   72.4410   -2.1780 S.3       1 SAH1001     0.0000 
      6 C         115.9350   74.9950   -3.1960 C.2       1 SAH1001     0.0000 
      7 O         115.9450   76.1460   -3.6560 O.co2     1 SAH1001     0.0000 
      8 OXT       115.2390   74.1520   -3.7640 O.co2     1 SAH1001     0.0000 
      9 C5'       121.1880   73.2330   -0.8180 C.3       1 SAH1001     0.0000 
     10 C4'       121.8540   74.5260   -1.2620 C.3       1 SAH1001     0.0000 
     11 O4'       122.8170   74.9090   -0.3040 O.3       1 SAH1001     0.0000 
     12 C3'       122.5750   74.3450   -2.5890 C.3       1 SAH1001     0.0000 
     13 O3'       122.0820   75.2710   -3.5290 O.3       1 SAH1001     0.0000 
     14 C2'       124.0310   74.6420   -2.3080 C.3       1 SAH1001     0.0000 
     15 O2'       124.5520   75.5150   -3.2800 O.3       1 SAH1001     0.0000 
     16 C1'       124.0010   75.3200   -0.9530 C.3       1 SAH1001     0.0000 
     17 N9        125.1750   74.9760   -0.1410 N.pl3     1 SAH1001     0.0000 
     18 C8        125.8610   73.7920   -0.0670 C.2       1 SAH1001     0.0000 
     19 N7        126.8740   73.9450    0.8190 N.2       1 SAH1001     0.0000 
     20 C5        126.8340   75.2080    1.2980 C.ar      1 SAH1001     0.0000 
     21 C6        127.6090   75.9030    2.2080 C.ar      1 SAH1001     0.0000 
     22 N6        128.6370   75.3210    2.8080 N.pl3     1 SAH1001     0.0000 
     23 N1        127.3050   77.2140    2.4820 N.ar      1 SAH1001     0.0000 
     24 C2        126.2350   77.8390    1.8850 C.ar      1 SAH1001     0.0000 
     25 N3        125.4730   77.1460    0.9790 N.ar      1 SAH1001     0.0000 
     26 C4        125.7700   75.8590    0.7020 C.ar      1 SAH1001     0.0000 
@<TRIPOS>BOND
     1    1    2 1    
     2    2    3 1    
     3    2    6 1    
     4    3    4 1    
     5    4    5 1    
     6    5    9 1    
     7    6    7 ar   
     8    6    8 ar   
     9    9   10 1    
    10   10   11 1    
    11   10   12 1    
    12   11   16 1    
    13   12   13 1    
    14   12   14 1    
    15   14   15 1    
    16   14   16 1    
    17   16   17 1    
    18   17   18 1    
    19   17   26 1    
    20   18   19 2    
    21   19   20 1    
    22   20   21 ar   
    23   20   26 ar   
    24   21   22 1    
    25   21   23 ar   
    26   23   24 ar   
    27   24   25 ar   
    28   25   26 ar   
@<TRIPOS>SUBSTRUCTURE
     1 SAH1001     1 GROUP   
@<TRIPOS>SET

