#    Name: 6uca_5_SAH_CAVITY_N1_6
#    Modification time : Fri May 22 19:29:28 2020

@<TRIPOS>MOLECULE
6uca_5_SAH_CAVITY_N1_6
   52     0     4     0     0
SMALL
NO_CHARGES


@<TRIPOS>ATOM
      1 N         109.0700   23.3200   13.8700 N.am      1 ALA2        0.0000 
      2 N         108.5000   24.6200   14.3700 N.am      1 ALA2        0.0000 
      3 N         110.4600   23.8200   14.1600 N.am      1 ALA2        0.0000 
      4 N         109.8900   25.1200   14.6600 N.am      1 ALA2        0.0000 
      5 N         110.3800   23.2500   15.5400 N.am      1 ALA2        0.0000 
      6 N         111.2700   25.6100   14.9400 N.am      1 ALA2        0.0000 
      7 N         111.7600   23.7500   15.8200 N.am      1 ALA2        0.0000 
      8 N         111.2000   25.0400   16.3300 N.am      1 ALA2        0.0000 
      9 N         111.1200   24.4700   17.7100 N.am      1 ALA2        0.0000 
     10 N         111.0400   23.8900   19.1000 N.am      1 ALA2        0.0000 
     11 O         110.1600   22.8900   25.1300 O.2       1 ALA2        0.0000 
     12 N         113.1500   24.2500   16.1100 N.am      1 ALA2        0.0000 
     13 N         112.4300   24.3900   19.3800 N.am      1 ALA2        0.0000 
     14 O         112.3500   23.8200   20.7600 O.2       1 ALA2        0.0000 
     15 N         113.8100   24.8900   19.6600 N.am      1 ALA2        0.0000 
     16 N         113.0100   24.4600   24.3200 N.am      1 ALA2        0.0000 
     17 N         112.9300   23.8900   25.7000 N.am      1 ALA2        0.0000 
     18 N         115.1200   24.8100   21.3300 N.am      1 ALA2        0.0000 
     19 N         114.4000   24.9600   24.6000 N.am      1 ALA2        0.0000 
     20 N         115.7000   24.8900   26.2700 N.am      1 ALA2        0.0000 
     21 NZ        110.3000   22.6700   16.9200 N.4       2 LYS4        0.0000 
     22 NZ        110.2200   22.1000   18.3100 N.4       2 LYS4        0.0000 
     23 NZ        112.2600   21.8800   16.7000 N.4       2 LYS4        0.0000 
     24 NZ        111.6900   23.1700   17.2100 N.4       2 LYS4        0.0000 
     25 NZ        111.6100   22.6000   18.5900 N.4       2 LYS4        0.0000 
     26 NZ        113.5600   21.8000   18.3700 N.4       2 LYS4        0.0000 
     27 NZ        113.0000   23.1000   18.8800 N.4       2 LYS4        0.0000 
     28 CZ        117.0700   24.0200   21.1100 C.ar      3 PHE5        0.0000 
     29 CA        108.9900   22.7500   15.2500 C.3       4 GLY6        0.0000 
     30 CA        108.4200   24.0400   15.7600 C.3       4 GLY6        0.0000 
     31 CA        109.8100   24.5400   16.0400 C.3       4 GLY6        0.0000 
     32 CA        109.7300   23.9700   17.4300 C.3       4 GLY6        0.0000 
     33 CA        109.6500   23.3900   18.8100 C.3       4 GLY6        0.0000 
     34 CA        113.6400   22.3800   16.9900 C.3       4 GLY6        0.0000 
     35 CA        113.0700   23.6700   17.4900 C.3       4 GLY6        0.0000 
     36 CA        112.9200   22.5200   20.2600 C.3       4 GLY6        0.0000 
     37 CA        112.1100   22.1000   24.9200 C.3       4 GLY6        0.0000 
     38 CA        114.4600   24.1700   17.7800 C.3       4 GLY6        0.0000 
     39 CA        114.9500   22.3000   18.6600 C.3       4 GLY6        0.0000 
     40 CA        114.3800   23.6000   19.1600 C.3       4 GLY6        0.0000 
     41 CA        114.8700   21.7300   20.0400 C.3       4 GLY6        0.0000 
     42 CA        114.3000   23.0200   20.5400 C.3       4 GLY6        0.0000 
     43 CA        113.7300   24.3200   21.0500 C.3       4 GLY6        0.0000 
     44 CA        113.5000   22.6000   25.2000 C.3       4 GLY6        0.0000 
     45 CA        116.3400   22.8000   18.9400 C.3       4 GLY6        0.0000 
     46 CA        115.7700   24.1000   19.4500 C.3       4 GLY6        0.0000 
     47 CA        115.2000   25.3900   19.9500 C.3       4 GLY6        0.0000 
     48 CA        116.2600   22.2300   20.3300 C.3       4 GLY6        0.0000 
     49 CA        115.6900   23.5200   20.8300 C.3       4 GLY6        0.0000 
     50 CA        115.0400   24.2400   22.7200 C.3       4 GLY6        0.0000 
     51 CA        113.8300   26.2500   25.1100 C.3       4 GLY6        0.0000 
     52 CA        114.3200   24.3900   25.9900 C.3       4 GLY6        0.0000 
@<TRIPOS>BOND
@<TRIPOS>SUBSTRUCTURE
     1 ALA2        1 GROUP   
     2 LYS4       21 GROUP   
     3 PHE5       28 GROUP   
     4 GLY6       29 GROUP   
@<TRIPOS>SET

