#    Name: 6uca_5_SAH
#    Modification time : Fri May 22 19:29:26 2020

@<TRIPOS>MOLECULE
6uca_5_SAH
   26    28     1     0     0
SMALL
NO_CHARGES


@<TRIPOS>ATOM
      1 N         109.0430   23.7570   10.9370 N.4       1 SAH1001     0.0000 
      2 CA        108.7740   22.6680   11.8660 C.3       1 SAH1001     0.0000 
      3 CB        109.0110   23.1340   13.2960 C.3       1 SAH1001     0.0000 
      4 CG        109.5990   24.5350   13.4020 C.3       1 SAH1001     0.0000 
      5 SD        109.5320   25.1630   15.0960 S.3       1 SAH1001     0.0000 
      6 C         107.3560   22.1340   11.7030 C.2       1 SAH1001     0.0000 
      7 O         107.0690   20.9630   11.9630 O.co2     1 SAH1001     0.0000 
      8 OXT       106.4650   22.8710   11.2970 O.co2     1 SAH1001     0.0000 
      9 C5'       111.2520   24.6910   15.3990 C.3       1 SAH1001     0.0000 
     10 C4'       111.3440   23.4260   16.2390 C.3       1 SAH1001     0.0000 
     11 O4'       112.6200   23.3310   16.8440 O.3       1 SAH1001     0.0000 
     12 C3'       110.3130   23.4380   17.3560 C.3       1 SAH1001     0.0000 
     13 O3'       109.4770   22.3120   17.2360 O.3       1 SAH1001     0.0000 
     14 C2'       111.1120   23.3480   18.6380 C.3       1 SAH1001     0.0000 
     15 O2'       110.5310   22.4310   19.5340 O.3       1 SAH1001     0.0000 
     16 C1'       112.4720   22.8630   18.1700 C.3       1 SAH1001     0.0000 
     17 N9        113.5430   23.3430   19.0600 N.pl3     1 SAH1001     0.0000 
     18 C8        113.6200   24.5530   19.6960 C.2       1 SAH1001     0.0000 
     19 N7        114.7610   24.5840   20.4230 N.2       1 SAH1001     0.0000 
     20 C5        115.4090   23.4100   20.2610 C.ar      1 SAH1001     0.0000 
     21 C6        116.6020   22.9140   20.7690 C.ar      1 SAH1001     0.0000 
     22 N6        117.3520   23.6440   21.5890 N.pl3     1 SAH1001     0.0000 
     23 N1        117.0090   21.6470   20.4180 N.ar      1 SAH1001     0.0000 
     24 C2        116.2440   20.8790   19.5660 C.ar      1 SAH1001     0.0000 
     25 N3        115.0600   21.3760   19.0670 N.ar      1 SAH1001     0.0000 
     26 C4        114.6510   22.6200   19.4090 C.ar      1 SAH1001     0.0000 
@<TRIPOS>BOND
     1    1    2 1    
     2    2    3 1    
     3    2    6 1    
     4    3    4 1    
     5    4    5 1    
     6    5    9 1    
     7    6    7 ar   
     8    6    8 ar   
     9    9   10 1    
    10   10   11 1    
    11   10   12 1    
    12   11   16 1    
    13   12   13 1    
    14   12   14 1    
    15   14   15 1    
    16   14   16 1    
    17   16   17 1    
    18   17   18 1    
    19   17   26 1    
    20   18   19 2    
    21   19   20 1    
    22   20   21 ar   
    23   20   26 ar   
    24   21   22 1    
    25   21   23 ar   
    26   23   24 ar   
    27   24   25 ar   
    28   25   26 ar   
@<TRIPOS>SUBSTRUCTURE
     1 SAH1001     1 GROUP   
@<TRIPOS>SET

