#    Name: 6uca_3_SAH
#    Modification time : Fri May 22 19:29:15 2020

@<TRIPOS>MOLECULE
6uca_3_SAH
   26    28     1     0     0
SMALL
NO_CHARGES


@<TRIPOS>ATOM
      1 N          74.3820   26.0260   35.6900 N.4       1 SAH1001     0.0000 
      2 CA         75.1080   27.1870   36.1900 C.3       1 SAH1001     0.0000 
      3 CB         76.1490   26.7480   37.2090 C.3       1 SAH1001     0.0000 
      4 CG         76.0760   25.2730   37.5780 C.3       1 SAH1001     0.0000 
      5 SD         77.7070   24.5850   37.9420 S.3       1 SAH1001     0.0000 
      6 C          75.7670   27.9730   35.0620 C.2       1 SAH1001     0.0000 
      7 O          76.3200   29.0550   35.2650 O.co2     1 SAH1001     0.0000 
      8 OXT        75.7610   27.5440   33.9130 O.co2     1 SAH1001     0.0000 
      9 C5'        77.4320   24.7660   39.7210 C.3       1 SAH1001     0.0000 
     10 C4'        78.1620   25.9790   40.2790 C.3       1 SAH1001     0.0000 
     11 O4'        78.2700   25.8820   41.6870 O.3       1 SAH1001     0.0000 
     12 C3'        79.5740   26.0640   39.7220 C.3       1 SAH1001     0.0000 
     13 O3'        79.7390   27.2810   39.0320 O.3       1 SAH1001     0.0000 
     14 C2'        80.4840   26.0390   40.9290 C.3       1 SAH1001     0.0000 
     15 O2'        81.4780   27.0290   40.8240 O.3       1 SAH1001     0.0000 
     16 C1'        79.5490   26.3300   42.0900 C.3       1 SAH1001     0.0000 
     17 N9         80.0120   25.6590   43.3170 N.pl3     1 SAH1001     0.0000 
     18 C8         80.6350   24.4440   43.4120 C.2       1 SAH1001     0.0000 
     19 N7         80.9030   24.2000   44.7150 N.2       1 SAH1001     0.0000 
     20 C5         80.4610   25.2430   45.4510 C.ar      1 SAH1001     0.0000 
     21 C6         80.4820   25.5100   46.8140 C.ar      1 SAH1001     0.0000 
     22 N6         81.0120   24.6410   47.6710 N.pl3     1 SAH1001     0.0000 
     23 N1         79.9440   26.6900   47.2770 N.ar      1 SAH1001     0.0000 
     24 C2         79.3900   27.5980   46.3990 C.ar      1 SAH1001     0.0000 
     25 N3         79.3760   27.3270   45.0470 N.ar      1 SAH1001     0.0000 
     26 C4         79.9030   26.1700   44.5820 C.ar      1 SAH1001     0.0000 
@<TRIPOS>BOND
     1    1    2 1    
     2    2    3 1    
     3    2    6 1    
     4    3    4 1    
     5    4    5 1    
     6    5    9 1    
     7    6    7 ar   
     8    6    8 ar   
     9    9   10 1    
    10   10   11 1    
    11   10   12 1    
    12   11   16 1    
    13   12   13 1    
    14   12   14 1    
    15   14   15 1    
    16   14   16 1    
    17   16   17 1    
    18   17   18 1    
    19   17   26 1    
    20   18   19 2    
    21   19   20 1    
    22   20   21 ar   
    23   20   26 ar   
    24   21   22 1    
    25   21   23 ar   
    26   23   24 ar   
    27   24   25 ar   
    28   25   26 ar   
@<TRIPOS>SUBSTRUCTURE
     1 SAH1001     1 GROUP   
@<TRIPOS>SET

