#    Name: 6njr_4_NAP
#    Modification time : Fri May 22 19:26:35 2020

@<TRIPOS>MOLECULE
6njr_4_NAP
   48    52     1     0     1
SMALL
NO_CHARGES


@<TRIPOS>ATOM
      1 PA         40.3500   12.2820   22.0640 P.3       1 NAP703      0.0000 
      2 O1A        39.9140   11.5760   20.8400 O.co2     1 NAP703      0.0000 
      3 O2A        39.4060   12.4060   23.1960 O.co2     1 NAP703      0.0000 
      4 O5B        41.7110   11.6160   22.6120 O.3       1 NAP703      0.0000 
      5 C5B        42.7290   11.2390   21.6840 C.3       1 NAP703      0.0000 
      6 C4B        43.2210    9.8210   21.9810 C.3       1 NAP703      0.0000 
      7 O4B        43.5760    9.7450   23.3730 O.3       1 NAP703      0.0000 
      8 C3B        42.1380    8.7720   21.7470 C.3       1 NAP703      0.0000 
      9 O3B        42.7110    7.6410   21.0780 O.3       1 NAP703      0.0000 
     10 C2B        41.7170    8.3850   23.1540 C.3       1 NAP703      0.0000 
     11 O2B        41.2670    7.0190   23.1530 O.3       1 NAP703      0.0000 
     12 C1B        43.0760    8.4780   23.8240 C.3       1 NAP703      0.0000 
     13 N9A        43.0110    8.4810   25.3020 N.pl3     1 NAP703      0.0000 
     14 C8A        41.9200    8.5770   26.0560 C.2       1 NAP703      0.0000 
     15 N7A        42.3170    8.6200   27.3240 N.2       1 NAP703      0.0000 
     16 C5A        43.6440    8.5260   27.3560 C.ar      1 NAP703      0.0000 
     17 C6A        44.4890    8.3370   28.3670 C.ar      1 NAP703      0.0000 
     18 N6A        43.9640    8.2790   29.5880 N.pl3     1 NAP703      0.0000 
     19 N1A        45.7940    8.0930   28.1680 N.ar      1 NAP703      0.0000 
     20 C2A        46.2810    8.0550   26.8580 C.ar      1 NAP703      0.0000 
     21 N3A        45.3700    8.2650   25.8190 N.ar      1 NAP703      0.0000 
     22 C4A        44.0760    8.4730   26.0970 C.ar      1 NAP703      0.0000 
     23 O3         40.8180   13.7620   21.6440 O.3       1 NAP703      0.0000 
     24 PN         40.4740   15.2480   22.1570 P.3       1 NAP703      0.0000 
     25 O1N        39.9660   16.0330   21.0110 O.co2     1 NAP703      0.0000 
     26 O2N        41.6270   15.7620   22.9300 O.co2     1 NAP703      0.0000 
     27 O5D        39.2500   15.0030   23.1750 O.3       1 NAP703      0.0000 
     28 C5D        38.4210   16.0920   23.5870 C.3       1 NAP703      0.0000 
     29 C4D        39.2170   17.0270   24.5010 C.3       1 NAP703      0.0000 
     30 O4D        38.5530   18.2840   24.7050 O.3       1 NAP703      0.0000 
     31 C3D        39.2740   16.5010   25.9230 C.3       1 NAP703      0.0000 
     32 O3D        40.1850   15.3960   26.0240 O.3       1 NAP703      0.0000 
     33 C2D        39.8870   17.7270   26.5780 C.3       1 NAP703      0.0000 
     34 O2D        41.3020   17.7810   26.3350 O.3       1 NAP703      0.0000 
     35 C1D        39.1750   18.8700   25.8640 C.3       1 NAP703      0.0000 
     36 N1N        38.0820   19.4270   26.6940 N.pl3     1 NAP703      0.0000 
     37 C2N        37.1550   18.5490   27.2700 C.ar      1 NAP703      0.0000 
     38 C3N        35.9510   19.0310   27.7680 C.ar      1 NAP703      0.0000 
     39 C7N        35.0620   18.1570   28.3860 C.2       1 NAP703      0.0000 
     40 O7N        34.1190   18.5750   29.0570 O.2       1 NAP703      0.0000 
     41 N7N        35.3670   16.8670   28.2700 N.am      1 NAP703      0.0000 
     42 C4N        35.6720   20.3940   27.6950 C.ar      1 NAP703      0.0000 
     43 C5N        36.5890   21.2720   27.1310 C.ar      1 NAP703      0.0000 
     44 C6N        37.7990   20.7970   26.6350 C.ar      1 NAP703      0.0000 
     45 P2B        39.7770    6.6250   23.6280 P.3       1 NAP703      0.0000 
     46 O1X        39.0170    7.8880   23.4770 O.co2     1 NAP703      0.0000 
     47 O2X        39.9830    6.1830   25.0250 O.co2     1 NAP703      0.0000 
     48 O3X        39.3450    5.5510   22.7070 O.co2     1 NAP703      0.0000 
@<TRIPOS>BOND
     1    1    2 ar   
     2    1    3 ar   
     3    1    4 1    
     4    1   23 1    
     5    4    5 1    
     6    5    6 1    
     7    6    7 1    
     8    6    8 1    
     9    7   12 1    
    10    8    9 1    
    11    8   10 1    
    12   10   11 1    
    13   10   12 1    
    14   11   45 1    
    15   12   13 1    
    16   13   14 1    
    17   13   22 1    
    18   14   15 2    
    19   15   16 1    
    20   16   17 ar   
    21   16   22 ar   
    22   17   18 1    
    23   17   19 ar   
    24   19   20 ar   
    25   20   21 ar   
    26   21   22 ar   
    27   23   24 1    
    28   24   25 ar   
    29   24   26 ar   
    30   24   27 1    
    31   27   28 1    
    32   28   29 1    
    33   29   30 1    
    34   29   31 1    
    35   30   35 1    
    36   31   32 1    
    37   31   33 1    
    38   33   34 1    
    39   33   35 1    
    40   35   36 1    
    41   36   37 ar   
    42   36   44 ar   
    43   37   38 ar   
    44   38   39 1    
    45   38   42 ar   
    46   39   40 2    
    47   39   41 am   
    48   42   43 ar   
    49   43   44 ar   
    50   45   46 ar   
    51   45   47 ar   
    52   45   48 ar   
@<TRIPOS>SUBSTRUCTURE
     1 NAP703      1 GROUP   
@<TRIPOS>SET
ATOM$ORANGE STATIC     ATOMS   COLORGROUP SYSTEM 
42 5 5 6 6 8 8 10 10 12 12 14 14 16 16 17 17 20 \
20 22 22 28 28 29 29 31 31 33 33 35 35 37 37 38 38 39 \
39 42 42 43 43 44 44 

