#    Name: 6njr_3_NAP
#    Modification time : Fri May 22 19:26:09 2020

@<TRIPOS>MOLECULE
6njr_3_NAP
   48    52     1     0     1
SMALL
NO_CHARGES


@<TRIPOS>ATOM
      1 PA         10.3960   13.4700   22.6000 P.3       1 NAP703      0.0000 
      2 O1A        10.5290   13.8200   21.1690 O.co2     1 NAP703      0.0000 
      3 O2A        11.5850   13.5600   23.4780 O.co2     1 NAP703      0.0000 
      4 O5B         9.2210   14.3720   23.2250 O.3       1 NAP703      0.0000 
      5 C5B         8.0860   14.6820   22.4140 C.3       1 NAP703      0.0000 
      6 C4B         7.4830   16.0180   22.8490 C.3       1 NAP703      0.0000 
      7 O4B         7.2470   15.9680   24.2670 O.3       1 NAP703      0.0000 
      8 C3B         8.4640   17.1620   22.6330 C.3       1 NAP703      0.0000 
      9 O3B         7.7320   18.3260   22.2300 O.3       1 NAP703      0.0000 
     10 C2B         9.0380   17.3710   24.0230 C.3       1 NAP703      0.0000 
     11 O2B         9.4990   18.7270   24.1340 O.3       1 NAP703      0.0000 
     12 C1B         7.7290   17.2200   24.7730 C.3       1 NAP703      0.0000 
     13 N9A         7.8710   17.1720   26.2450 N.pl3     1 NAP703      0.0000 
     14 C8A         8.9980   17.0230   26.9350 C.2       1 NAP703      0.0000 
     15 N7A         8.6650   16.9160   28.2180 N.2       1 NAP703      0.0000 
     16 C5A         7.3440   17.0310   28.3270 C.ar      1 NAP703      0.0000 
     17 C6A         6.5460   17.1360   29.3890 C.ar      1 NAP703      0.0000 
     18 N6A         7.1390   17.2270   30.5770 N.pl3     1 NAP703      0.0000 
     19 N1A         5.2230   17.3110   29.2710 N.ar      1 NAP703      0.0000 
     20 C2A         4.6630   17.3720   27.9900 C.ar      1 NAP703      0.0000 
     21 N3A         5.5320   17.2950   26.8960 N.ar      1 NAP703      0.0000 
     22 C4A         6.8490   17.1430   27.0960 C.ar      1 NAP703      0.0000 
     23 O3          9.8130   11.9740   22.7130 O.3       1 NAP703      0.0000 
     24 PN         10.1280   10.5670   21.9960 P.3       1 NAP703      0.0000 
     25 O1N        10.0720   10.7560   20.5290 O.co2     1 NAP703      0.0000 
     26 O2N         9.2850    9.5120   22.6030 O.co2     1 NAP703      0.0000 
     27 O5D        11.6730   10.3420   22.4020 O.3       1 NAP703      0.0000 
     28 C5D        12.1360    9.2290   23.1740 C.3       1 NAP703      0.0000 
     29 C4D        11.2560    8.9760   24.4010 C.3       1 NAP703      0.0000 
     30 O4D        11.9040    7.9690   25.2050 O.3       1 NAP703      0.0000 
     31 C3D        11.2240   10.2210   25.2750 C.3       1 NAP703      0.0000 
     32 O3D        10.1500   10.1290   26.2230 O.3       1 NAP703      0.0000 
     33 C2D        12.5560   10.0620   25.9810 C.3       1 NAP703      0.0000 
     34 O2D        12.6240   10.8990   27.1450 O.3       1 NAP703      0.0000 
     35 C1D        12.3710    8.6150   26.4030 C.3       1 NAP703      0.0000 
     36 N1N        13.6220    8.0270   26.9310 N.pl3     1 NAP703      0.0000 
     37 C2N        14.3930    8.7630   27.8420 C.ar      1 NAP703      0.0000 
     38 C3N        15.5100    8.1850   28.4340 C.ar      1 NAP703      0.0000 
     39 C7N        16.3940    8.9840   29.1490 C.2       1 NAP703      0.0000 
     40 O7N        17.4720    8.5470   29.5450 O.2       1 NAP703      0.0000 
     41 N7N        15.9890   10.2380   29.3440 N.am      1 NAP703      0.0000 
     42 C4N        15.8280    6.8590   28.1540 C.ar      1 NAP703      0.0000 
     43 C5N        15.0590    6.1190   27.2620 C.ar      1 NAP703      0.0000 
     44 C6N        13.9600    6.7020   26.6380 C.ar      1 NAP703      0.0000 
     45 P2B        11.0480   19.0640   24.4260 P.3       1 NAP703      0.0000 
     46 O1X        11.7490   17.7800   24.2120 O.co2     1 NAP703      0.0000 
     47 O2X        11.0460   19.5460   25.8260 O.co2     1 NAP703      0.0000 
     48 O3X        11.3710   20.1070   23.4280 O.co2     1 NAP703      0.0000 
@<TRIPOS>BOND
     1    1    2 ar   
     2    1    3 ar   
     3    1    4 1    
     4    1   23 1    
     5    4    5 1    
     6    5    6 1    
     7    6    7 1    
     8    6    8 1    
     9    7   12 1    
    10    8    9 1    
    11    8   10 1    
    12   10   11 1    
    13   10   12 1    
    14   11   45 1    
    15   12   13 1    
    16   13   14 1    
    17   13   22 1    
    18   14   15 2    
    19   15   16 1    
    20   16   17 ar   
    21   16   22 ar   
    22   17   18 1    
    23   17   19 ar   
    24   19   20 ar   
    25   20   21 ar   
    26   21   22 ar   
    27   23   24 1    
    28   24   25 ar   
    29   24   26 ar   
    30   24   27 1    
    31   27   28 1    
    32   28   29 1    
    33   29   30 1    
    34   29   31 1    
    35   30   35 1    
    36   31   32 1    
    37   31   33 1    
    38   33   34 1    
    39   33   35 1    
    40   35   36 1    
    41   36   37 ar   
    42   36   44 ar   
    43   37   38 ar   
    44   38   39 1    
    45   38   42 ar   
    46   39   40 2    
    47   39   41 am   
    48   42   43 ar   
    49   43   44 ar   
    50   45   46 ar   
    51   45   47 ar   
    52   45   48 ar   
@<TRIPOS>SUBSTRUCTURE
     1 NAP703      1 GROUP   
@<TRIPOS>SET
ATOM$ORANGE STATIC     ATOMS   COLORGROUP SYSTEM 
42 5 5 6 6 8 8 10 10 12 12 14 14 16 16 17 17 20 \
20 22 22 28 28 29 29 31 31 33 33 35 35 37 37 38 38 39 \
39 42 42 43 43 44 44 

