#    Name: 6njr_1_FMN_CAVITY_N1_12
#    Modification time : Fri May 22 19:25:20 2020

@<TRIPOS>MOLECULE
6njr_1_FMN_CAVITY_N1_12
  103     0     6     0     0
SMALL
NO_CHARGES


@<TRIPOS>ATOM
      1 OG          9.5700   -5.3000   36.4300 O.3       1 SER1        0.0000 
      2 OG          8.6600   -2.7800   32.5100 O.3       1 SER1        0.0000 
      3 OG          9.8300   -3.6900   32.2400 O.3       1 SER1        0.0000 
      4 OG         11.6800   -5.1400   36.6200 O.3       1 SER1        0.0000 
      5 OG          9.4400   -2.7900   35.7800 O.3       1 SER1        0.0000 
      6 OG         10.6000   -3.7000   35.5000 O.3       1 SER1        0.0000 
      7 OG         11.7600   -4.6000   35.2200 O.3       1 SER1        0.0000 
      8 OG          7.2000   -0.4400   34.9400 O.3       1 SER1        0.0000 
      9 OG          9.5200   -2.2500   34.3800 O.3       1 SER1        0.0000 
     10 OG         10.6900   -3.1600   34.1000 O.3       1 SER1        0.0000 
     11 OG         11.8500   -4.0700   33.8200 O.3       1 SER1        0.0000 
     12 OG         13.0100   -4.9700   33.5400 O.3       1 SER1        0.0000 
     13 OG          7.2900    0.1000   33.5400 O.3       1 SER1        0.0000 
     14 OG          9.6100   -1.7100   32.9800 O.3       1 SER1        0.0000 
     15 OG         10.7700   -2.6200   32.7000 O.3       1 SER1        0.0000 
     16 OG         11.9300   -3.5300   32.4300 O.3       1 SER1        0.0000 
     17 OG          7.3700    0.6400   32.1400 O.3       1 SER1        0.0000 
     18 OG         12.6200   -4.0800   37.0900 O.3       1 SER1        0.0000 
     19 OG         12.7100   -3.5400   35.6900 O.3       1 SER1        0.0000 
     20 OG          8.1500    0.6300   35.4000 O.3       1 SER1        0.0000 
     21 OG         13.9500   -3.9100   34.0100 O.3       1 SER1        0.0000 
     22 OG          9.3900    0.2600   33.7300 O.3       1 SER1        0.0000 
     23 OG          8.3200    1.7100   32.6100 O.3       1 SER1        0.0000 
     24 OG         14.8100   -3.3800   35.8800 O.3       1 SER1        0.0000 
     25 OG          9.1800    2.2300   34.4700 O.3       1 SER1        0.0000 
     26 O           2.9900   -0.7500   34.5600 O.2       2 ALA2        0.0000 
     27 O           1.4400    1.0500   38.3800 O.2       2 ALA2        0.0000 
     28 N           2.6000    0.1500   38.1000 N.am      2 ALA2        0.0000 
     29 N           3.7600   -0.7600   37.8200 N.am      2 ALA2        0.0000 
     30 N           5.0100   -1.1300   36.1500 N.am      2 ALA2        0.0000 
     31 N           6.1700   -2.0400   35.8700 N.am      2 ALA2        0.0000 
     32 N           4.1000    1.3900   32.2300 N.am      2 ALA2        0.0000 
     33 N           5.2700    0.4800   31.9500 N.am      2 ALA2        0.0000 
     34 N           5.7900   -1.1400   39.4100 N.am      2 ALA2        0.0000 
     35 N           8.1100   -2.9600   38.8500 N.am      2 ALA2        0.0000 
     36 N           9.2700   -3.8600   38.5700 N.am      2 ALA2        0.0000 
     37 N           5.8700   -0.6000   38.0100 N.am      2 ALA2        0.0000 
     38 N           7.0300   -1.5100   37.7300 N.am      2 ALA2        0.0000 
     39 N           8.1900   -2.4200   37.4500 N.am      2 ALA2        0.0000 
     40 N           7.1200   -0.9700   36.3400 N.am      2 ALA2        0.0000 
     41 N          10.2200   -2.8000   39.0400 N.am      2 ALA2        0.0000 
     42 O           6.8200    0.4600   38.4800 O.2       2 ALA2        0.0000 
     43 O           7.9800   -0.4400   38.2000 O.2       2 ALA2        0.0000 
     44 O           9.1400   -1.3500   37.9200 O.2       2 ALA2        0.0000 
     45 O           9.0900    1.7000   35.8700 O.2       2 ALA2        0.0000 
     46 O          10.2500    0.7900   35.5900 O.2       2 ALA2        0.0000 
     47 O          11.2900    2.3900   34.6600 O.2       2 ALA2        0.0000 
     48 NZ         11.4600   -3.1700   37.3700 N.4       3 LYS4        0.0000 
     49 NZ         10.3900   -1.7200   36.2500 N.4       3 LYS4        0.0000 
     50 NZ         11.5500   -2.6300   35.9700 N.4       3 LYS4        0.0000 
     51 NZ         10.4700   -1.1900   34.8500 N.4       3 LYS4        0.0000 
     52 NZ         11.6300   -2.0900   34.5700 N.4       3 LYS4        0.0000 
     53 NZ         12.7900   -3.0000   34.2900 N.4       3 LYS4        0.0000 
     54 NZ         13.7400   -1.9300   34.7600 N.4       3 LYS4        0.0000 
     55 NZ         14.9000   -2.8400   34.4800 N.4       3 LYS4        0.0000 
     56 NZ         10.3400    1.3300   34.2000 N.4       3 LYS4        0.0000 
     57 NZ         11.5000    0.4200   33.9200 N.4       3 LYS4        0.0000 
     58 NZ         12.6600   -0.4900   33.6400 N.4       3 LYS4        0.0000 
     59 CZ          4.1500   -1.6600   34.2800 C.ar      4 PHE5        0.0000 
     60 CZ          4.2300   -1.1200   32.8800 C.ar      4 PHE5        0.0000 
     61 CZ          8.4100   -4.3900   36.7100 C.ar      4 PHE5        0.0000 
     62 CZ          2.6900    0.6800   36.7000 C.ar      4 PHE5        0.0000 
     63 CZ          3.8500   -0.2200   36.4200 C.ar      4 PHE5        0.0000 
     64 CZ          7.3300   -2.9500   35.5900 C.ar      4 PHE5        0.0000 
     65 CZ          2.7700    1.2200   35.3100 C.ar      4 PHE5        0.0000 
     66 CZ          3.9300    0.3100   35.0300 C.ar      4 PHE5        0.0000 
     67 CZ          5.1000   -0.5900   34.7500 C.ar      4 PHE5        0.0000 
     68 CZ          6.2600   -1.5000   34.4700 C.ar      4 PHE5        0.0000 
     69 CZ          7.4200   -2.4100   34.1900 C.ar      4 PHE5        0.0000 
     70 CZ          2.8600    1.7600   33.9100 C.ar      4 PHE5        0.0000 
     71 CZ          4.0200    0.8500   33.6300 C.ar      4 PHE5        0.0000 
     72 CZ          5.1800   -0.0600   33.3500 C.ar      4 PHE5        0.0000 
     73 CZ          6.3400   -0.9600   33.0700 C.ar      4 PHE5        0.0000 
     74 CZ          7.5000   -1.8700   32.7900 C.ar      4 PHE5        0.0000 
     75 CZ          4.7100    0.3000   38.2900 C.ar      4 PHE5        0.0000 
     76 CZ          9.3500   -3.3300   37.1800 C.ar      4 PHE5        0.0000 
     77 CZ          5.9600   -0.0700   36.6100 C.ar      4 PHE5        0.0000 
     78 CZ          6.9000    1.0000   37.0800 C.ar      4 PHE5        0.0000 
     79 CA          1.9100    0.6900   33.4400 C.3       5 GLY6        0.0000 
     80 CA          3.0700   -0.2200   33.1600 C.3       5 GLY6        0.0000 
     81 CA          2.5200   -0.3900   39.5000 C.3       5 GLY6        0.0000 
     82 CA         11.0700   -4.0600   30.5600 C.3       5 GLY6        0.0000 
     83 CA          3.4600    0.6700   39.9700 C.3       5 GLY6        0.0000 
     84 CA          4.6200   -0.2300   39.6900 C.3       5 GLY6        0.0000 
     85 CA         10.4300   -4.7700   38.3000 C.3       5 GLY6        0.0000 
     86 CA         13.0900   -4.4400   32.1500 C.3       5 GLY6        0.0000 
     87 CA         11.3800   -3.7100   38.7600 C.3       5 GLY6        0.0000 
     88 CA          8.0600    0.0900   36.8000 C.3       5 GLY6        0.0000 
     89 CA          9.2200   -0.8100   36.5200 C.3       5 GLY6        0.0000 
     90 CA         11.2500   -1.1900   38.1100 C.3       5 GLY6        0.0000 
     91 CA         10.1700    0.2500   36.9900 C.3       5 GLY6        0.0000 
     92 CA         10.4200    1.8600   32.8000 C.3       5 GLY6        0.0000 
     93 CA         11.3700    2.9300   33.2700 C.3       5 GLY6        0.0000 
     94 DU          6.4300   -0.4300   31.6700 H         6 CUB7        0.0000 
     95 DU         10.5200   -4.2300   36.9000 H         6 CUB7        0.0000 
     96 DU          8.2800   -1.8800   36.0600 H         6 CUB7        0.0000 
     97 DU          8.3600   -1.3400   34.6600 H         6 CUB7        0.0000 
     98 DU          8.4500   -0.8100   33.2600 H         6 CUB7        0.0000 
     99 DU         10.3000   -2.2600   37.6400 H         6 CUB7        0.0000 
    100 DU          9.3100   -0.2800   35.1300 H         6 CUB7        0.0000 
    101 DU         10.5600   -0.6500   33.4500 H         6 CUB7        0.0000 
    102 DU         12.8800   -2.4600   32.8900 H         6 CUB7        0.0000 
    103 DU         14.0400   -3.3700   32.6100 H         6 CUB7        0.0000 
@<TRIPOS>BOND
@<TRIPOS>SUBSTRUCTURE
     1 SER1        1 GROUP   
     2 ALA2       26 GROUP   
     3 LYS4       48 GROUP   
     4 PHE5       59 GROUP   
     5 GLY6       79 GROUP   
     6 CUB7       94 GROUP   
@<TRIPOS>SET

