#    Name: 6njr_2_FAD_CAVITY_N1_4
#    Modification time : Fri May 22 19:25:46 2020

@<TRIPOS>MOLECULE
6njr_2_FAD_CAVITY_N1_4
   79     0     7     0     0
SMALL
NO_CHARGES


@<TRIPOS>ATOM
      1 OG          2.6000   -1.6400   27.7500 O.3       1 SER1        0.0000 
      2 OG          3.7600   -2.5500   27.4800 O.3       1 SER1        0.0000 
      3 OG          3.5400   -0.5800   28.2200 O.3       1 SER1        0.0000 
      4 OG          3.6300   -0.0400   26.8200 O.3       1 SER1        0.0000 
      5 OG          4.9600    0.1300   23.7500 O.3       1 SER1        0.0000 
      6 OG         11.5000   -1.3700   23.5700 O.3       1 SER1        0.0000 
      7 OG         12.4400   -0.3000   24.0400 O.3       1 SER1        0.0000 
      8 OG         12.5300    0.2300   22.6400 O.3       1 SER1        0.0000 
      9 OG         13.4700    1.3000   23.1100 O.3       1 SER1        0.0000 
     10 N           2.3000   -0.2100   29.9000 N.am      2 ALA2        0.0000 
     11 N           4.4900    0.4900   28.6900 N.am      2 ALA2        0.0000 
     12 N           6.9800   -0.2500   25.3400 N.am      2 ALA2        0.0000 
     13 N           7.0700    0.2900   23.9400 N.am      2 ALA2        0.0000 
     14 O           5.9900    1.7300   22.8200 O.2       2 ALA2        0.0000 
     15 N           7.1500    0.8200   22.5400 N.am      2 ALA2        0.0000 
     16 O           6.0800    2.2700   21.4200 O.2       2 ALA2        0.0000 
     17 N           9.0900   -0.0900   25.5300 N.am      2 ALA2        0.0000 
     18 N          10.2500   -1.0000   25.2500 N.am      2 ALA2        0.0000 
     19 N           9.1700    0.4500   24.1300 N.am      2 ALA2        0.0000 
     20 N          10.3400   -0.4600   23.8500 N.am      2 ALA2        0.0000 
     21 O           8.1000    1.8900   23.0100 O.2       2 ALA2        0.0000 
     22 O          10.2000    2.0500   23.2000 O.2       2 ALA2        0.0000 
     23 O           9.1300    3.4900   22.0800 O.2       2 ALA2        0.0000 
     24 O          11.1500    3.1200   23.6700 O.2       2 ALA2        0.0000 
     25 O          12.1000    4.1800   24.1300 O.2       2 ALA2        0.0000 
     26 OD1         2.7300   -4.1500   28.4100 O.co2     3 ASP3        0.0000 
     27 NZ          2.3800    0.3300   28.5000 N.4       4 LYS4        0.0000 
     28 NZ         12.0100    3.6400   25.5300 N.4       4 LYS4        0.0000 
     29 CZ          1.5700   -3.2500   28.6800 C.ar      5 PHE5        0.0000 
     30 CZ          2.5100   -2.1800   29.1500 C.ar      5 PHE5        0.0000 
     31 CZ          4.8400   -4.0000   28.6000 C.ar      5 PHE5        0.0000 
     32 CZ          6.0000   -4.9000   28.3200 C.ar      5 PHE5        0.0000 
     33 CZ          5.7000   -3.4700   30.4600 C.ar      5 PHE5        0.0000 
     34 CZ          6.8600   -4.3800   30.1800 C.ar      5 PHE5        0.0000 
     35 CZ          6.9400   -3.8400   28.7800 C.ar      5 PHE5        0.0000 
     36 CZ          8.1000   -4.7500   28.5100 C.ar      5 PHE5        0.0000 
     37 CZ          4.7900   -0.9500   26.5500 C.ar      5 PHE5        0.0000 
     38 CZ          4.8800   -0.4100   25.1500 C.ar      5 PHE5        0.0000 
     39 CZ          9.0500   -3.6800   28.9700 C.ar      5 PHE5        0.0000 
     40 CZ          4.5700    1.0300   27.2900 C.ar      5 PHE5        0.0000 
     41 CZ          4.6600    1.5600   25.8900 C.ar      5 PHE5        0.0000 
     42 CZ          5.8200    0.6600   25.6200 C.ar      5 PHE5        0.0000 
     43 CZ          5.9100    1.1900   24.2200 C.ar      5 PHE5        0.0000 
     44 CZ          7.9300    0.8200   25.8000 C.ar      5 PHE5        0.0000 
     45 CZ          8.0100    1.3500   24.4100 C.ar      5 PHE5        0.0000 
     46 CZ          9.2600    0.9800   22.7300 C.ar      5 PHE5        0.0000 
     47 CZ          7.0200    3.3400   21.8900 C.ar      5 PHE5        0.0000 
     48 CZ          8.1800    2.4300   21.6100 C.ar      5 PHE5        0.0000 
     49 CZ         10.0300    0.9700   25.9900 C.ar      5 PHE5        0.0000 
     50 CZ         10.1200    1.5100   24.6000 C.ar      5 PHE5        0.0000 
     51 CZ         11.3700    1.1400   22.9200 C.ar      5 PHE5        0.0000 
     52 CZ         11.0700    2.5800   25.0600 C.ar      5 PHE5        0.0000 
     53 CA          4.9200   -3.4600   27.2000 C.3       6 GLY6        0.0000 
     54 CA          5.8700   -2.3900   27.6600 C.3       6 GLY6        0.0000 
     55 CA          7.0300   -3.3000   27.3900 C.3       6 GLY6        0.0000 
     56 CA          5.9500   -1.8500   26.2700 C.3       6 GLY6        0.0000 
     57 CA          6.0400   -1.3200   24.8700 C.3       6 GLY6        0.0000 
     58 CA          5.6500   -0.4200   28.4100 C.3       6 GLY6        0.0000 
     59 CA          7.9700   -2.2300   27.8500 C.3       6 GLY6        0.0000 
     60 CA          5.7400    0.1200   27.0100 C.3       6 GLY6        0.0000 
     61 CA          6.9000   -0.7900   26.7300 C.3       6 GLY6        0.0000 
     62 CA          8.0600   -1.7000   26.4600 C.3       6 GLY6        0.0000 
     63 CA          7.7600   -0.2600   28.6000 C.3       6 GLY6        0.0000 
     64 CA          7.8400    0.2800   27.2000 C.3       6 GLY6        0.0000 
     65 CA          9.9500    0.4400   27.3900 C.3       6 GLY6        0.0000 
     66 CA         12.3600   -0.8400   25.4400 C.3       6 GLY6        0.0000 
     67 CA         13.2600    3.2700   23.8500 C.3       6 GLY6        0.0000 
     68 DU          3.6700   -3.0900   28.8700 H         7 CUB7        0.0000 
     69 DU          5.7800   -2.9300   29.0600 H         7 CUB7        0.0000 
     70 DU          4.7100   -1.4800   27.9400 H         7 CUB7        0.0000 
     71 DU          7.8900   -2.7700   29.2500 H         7 CUB7        0.0000 
     72 DU          6.8100   -1.3300   28.1300 H         7 CUB7        0.0000 
     73 DU          9.0000   -0.6300   26.9200 H         7 CUB7        0.0000 
     74 DU         11.2000    0.0700   25.7200 H         7 CUB7        0.0000 
     75 DU         11.2800    0.6000   24.3200 H         7 CUB7        0.0000 
     76 DU         12.1400    1.1300   26.1800 H         7 CUB7        0.0000 
     77 DU         12.2300    1.6700   24.7900 H         7 CUB7        0.0000 
     78 DU         12.3100    2.2100   23.3900 H         7 CUB7        0.0000 
     79 DU         13.1700    2.7400   25.2500 H         7 CUB7        0.0000 
@<TRIPOS>BOND
@<TRIPOS>SUBSTRUCTURE
     1 SER1        1 GROUP   
     2 ALA2       10 GROUP   
     3 ASP3       26 GROUP   
     4 LYS4       27 GROUP   
     5 PHE5       29 GROUP   
     6 GLY6       53 GROUP   
     7 CUB7       68 GROUP   
@<TRIPOS>SET

