#    Name: 6njr_2_FAD
#    Modification time : Fri May 22 19:25:43 2020

@<TRIPOS>MOLECULE
6njr_2_FAD
   53    58     1     0     1
SMALL
NO_CHARGES


@<TRIPOS>ATOM
      1 PA         17.9590   -0.5990   24.7020 P.3       1 FAD702      0.0000 
      2 O1A        19.1650   -1.0740   23.9910 O.co2     1 FAD702      0.0000 
      3 O2A        17.1960   -1.5600   25.5300 O.co2     1 FAD702      0.0000 
      4 O5B        18.3580    0.6730   25.6000 O.3       1 FAD702      0.0000 
      5 C5B        17.3810    1.3330   26.4080 C.3       1 FAD702      0.0000 
      6 C4B        18.1010    2.0420   27.5580 C.3       1 FAD702      0.0000 
      7 O4B        19.1610    2.8900   27.0890 O.3       1 FAD702      0.0000 
      8 C3B        17.2010    3.0240   28.2800 C.3       1 FAD702      0.0000 
      9 O3B        16.3090    2.2930   29.1330 O.3       1 FAD702      0.0000 
     10 C2B        18.2730    3.6750   29.1320 C.3       1 FAD702      0.0000 
     11 O2B        18.6490    2.7420   30.1540 O.3       1 FAD702      0.0000 
     12 C1B        19.4160    3.8410   28.1370 C.3       1 FAD702      0.0000 
     13 N9A        19.4210    5.1730   27.4920 N.pl3     1 FAD702      0.0000 
     14 C8A        18.6240    5.5620   26.3130 C.2       1 FAD702      0.0000 
     15 N7A        19.0240    6.9750   26.1580 N.2       1 FAD702      0.0000 
     16 C5A        19.9470    7.2590   27.0730 C.ar      1 FAD702      0.0000 
     17 C6A        20.5850    8.4100   27.2860 C.ar      1 FAD702      0.0000 
     18 N6A        20.2430    9.4190   26.4920 N.pl3     1 FAD702      0.0000 
     19 N1A        21.4330    8.5890   28.3070 N.ar      1 FAD702      0.0000 
     20 C2A        21.6490    7.5240   29.1870 C.ar      1 FAD702      0.0000 
     21 N3A        20.9610    6.3320   28.9440 N.ar      1 FAD702      0.0000 
     22 C4A        20.1260    6.2260   27.8970 C.ar      1 FAD702      0.0000 
     23 N1          9.1040    2.6560   22.2640 N.2       1 FAD702      0.0000 
     24 C2          8.7340    3.2720   21.0620 C.2       1 FAD702      0.0000 
     25 O2          9.5280    4.0170   20.4860 O.2       1 FAD702      0.0000 
     26 N3          7.4200    3.1430   20.5950 N.am      1 FAD702      0.0000 
     27 C4          6.4840    2.4050   21.3310 C.2       1 FAD702      0.0000 
     28 O4          5.4040    2.1180   20.8220 O.2       1 FAD702      0.0000 
     29 C4X         6.8530    1.8200   22.5380 C.2       1 FAD702      0.0000 
     30 N5          5.9160    1.2710   23.3220 N.2       1 FAD702      0.0000 
     31 C5X         6.2690    0.6880   24.4770 C.ar      1 FAD702      0.0000 
     32 C6          5.3040    0.0500   25.2470 C.ar      1 FAD702      0.0000 
     33 C7          5.6610   -0.6210   26.4130 C.ar      1 FAD702      0.0000 
     34 C7M         4.6830   -1.2490   27.1770 C.3       1 FAD702      0.0000 
     35 C8          6.9990   -0.6620   26.7940 C.ar      1 FAD702      0.0000 
     36 C8M         7.3960   -1.4870   27.8410 C.3       1 FAD702      0.0000 
     37 C9          7.9610   -0.0260   26.0180 C.ar      1 FAD702      0.0000 
     38 C9A         7.6070    0.6480   24.8530 C.ar      1 FAD702      0.0000 
     39 N10         8.5340    1.2400   24.0840 N.pl3     1 FAD702      0.0000 
     40 C10         8.1530    1.9470   23.0090 C.2       1 FAD702      0.0000 
     41 C1'         9.9730    1.2240   24.4370 C.3       1 FAD702      0.0000 
     42 C2'        10.6270   -0.0320   23.8570 C.3       1 FAD702      0.0000 
     43 O2'        10.0970   -1.1840   24.5200 O.3       1 FAD702      0.0000 
     44 C3'        12.1490   -0.0080   24.0130 C.3       1 FAD702      0.0000 
     45 O3'        12.4980    0.3100   25.3630 O.3       1 FAD702      0.0000 
     46 C4'        12.7880    1.0150   23.0690 C.3       1 FAD702      0.0000 
     47 O4'        12.3620    0.7780   21.7250 O.3       1 FAD702      0.0000 
     48 C5'        14.3120    0.9010   23.1740 C.3       1 FAD702      0.0000 
     49 O5'        14.7010   -0.3750   22.6630 O.3       1 FAD702      0.0000 
     50 P          16.2450   -0.7990   22.4770 P.3       1 FAD702      0.0000 
     51 O1P        16.7200   -0.3430   21.1520 O.co2     1 FAD702      0.0000 
     52 O2P        16.3650   -2.2350   22.8110 O.co2     1 FAD702      0.0000 
     53 O3P        16.9640    0.0700   23.6280 O.3       1 FAD702      0.0000 
@<TRIPOS>BOND
     1    1    2 ar   
     2    1    3 ar   
     3    1    4 1    
     4    1   53 1    
     5    4    5 1    
     6    5    6 1    
     7    6    7 1    
     8    6    8 1    
     9    7   12 1    
    10    8    9 1    
    11    8   10 1    
    12   10   11 1    
    13   10   12 1    
    14   12   13 1    
    15   13   14 1    
    16   13   22 1    
    17   14   15 2    
    18   15   16 1    
    19   16   17 ar   
    20   16   22 ar   
    21   17   18 1    
    22   17   19 ar   
    23   19   20 ar   
    24   20   21 ar   
    25   21   22 ar   
    26   23   24 1    
    27   23   40 2    
    28   24   25 2    
    29   24   26 am   
    30   26   27 am   
    31   27   28 2    
    32   27   29 1    
    33   29   30 2    
    34   29   40 1    
    35   30   31 1    
    36   31   32 ar   
    37   31   38 ar   
    38   32   33 ar   
    39   33   34 1    
    40   33   35 ar   
    41   35   36 1    
    42   35   37 ar   
    43   37   38 ar   
    44   38   39 1    
    45   39   40 1    
    46   39   41 1    
    47   41   42 1    
    48   42   43 1    
    49   42   44 1    
    50   44   45 1    
    51   44   46 1    
    52   46   47 1    
    53   46   48 1    
    54   48   49 1    
    55   49   50 1    
    56   50   51 ar   
    57   50   52 ar   
    58   50   53 1    
@<TRIPOS>SUBSTRUCTURE
     1 FAD702      1 GROUP   
@<TRIPOS>SET
ATOM$ORANGE STATIC     ATOMS   COLORGROUP SYSTEM 
54 5 5 6 6 8 8 10 10 12 12 14 14 16 16 17 17 20 \
20 22 22 24 24 27 27 29 29 31 31 32 32 33 33 34 34 35 \
35 36 36 37 37 38 38 40 40 41 41 42 42 44 44 46 46 48 \
48 

