#    Name: 6njr_1_FMN
#    Modification time : Fri May 22 19:25:18 2020

@<TRIPOS>MOLECULE
6njr_1_FMN
   31    33     1     0     1
SMALL
NO_CHARGES


@<TRIPOS>ATOM
      1 N1          6.3450   -0.4470   38.7360 N.2       1 FMN701      0.0000 
      2 C2          5.5210   -0.1490   39.7370 C.2       1 FMN701      0.0000 
      3 O2          6.0120   -0.0460   40.8570 O.2       1 FMN701      0.0000 
      4 N3          4.2180    0.0070   39.5780 N.am      1 FMN701      0.0000 
      5 C4          3.6410   -0.0860   38.4060 C.2       1 FMN701      0.0000 
      6 O4          2.4330    0.0740   38.3420 O.2       1 FMN701      0.0000 
      7 C4A         4.4710   -0.3940   37.2340 C.2       1 FMN701      0.0000 
      8 N5          3.9960   -0.5140   35.9930 N.2       1 FMN701      0.0000 
      9 C5A         4.8390   -0.7810   34.9800 C.ar      1 FMN701      0.0000 
     10 C6          4.3500   -0.9020   33.6990 C.ar      1 FMN701      0.0000 
     11 C7          5.2030   -1.1830   32.6630 C.ar      1 FMN701      0.0000 
     12 C7M         4.6620   -1.3220   31.2770 C.3       1 FMN701      0.0000 
     13 C8          6.6410   -1.3550   32.9120 C.ar      1 FMN701      0.0000 
     14 C8M         7.6140   -1.6620   31.8200 C.3       1 FMN701      0.0000 
     15 C9          7.1310   -1.2300   34.1730 C.ar      1 FMN701      0.0000 
     16 C9A         6.2860   -0.9490   35.2110 C.ar      1 FMN701      0.0000 
     17 N10         6.7910   -0.8410   36.4960 N.pl3     1 FMN701      0.0000 
     18 C10         5.8970   -0.5710   37.5030 C.2       1 FMN701      0.0000 
     19 C1'         8.2050   -0.9690   36.8000 C.3       1 FMN701      0.0000 
     20 C2'         8.5230   -2.3770   37.1640 C.3       1 FMN701      0.0000 
     21 O2'         7.6760   -2.6050   38.2580 O.3       1 FMN701      0.0000 
     22 C3'         9.9890   -2.4060   37.5000 C.3       1 FMN701      0.0000 
     23 O3'        10.6820   -1.9580   36.3550 O.3       1 FMN701      0.0000 
     24 C4'        10.5540   -3.7640   37.7750 C.3       1 FMN701      0.0000 
     25 O4'        11.9470   -3.6090   37.7180 O.3       1 FMN701      0.0000 
     26 C5'        10.2490   -4.7570   36.6980 C.3       1 FMN701      0.0000 
     27 O5'        10.9630   -5.9320   37.0130 O.3       1 FMN701      0.0000 
     28 P          10.9640   -7.1690   36.0690 P.3       1 FMN701      0.0000 
     29 O1P        12.1570   -6.9140   35.2770 O.co2     1 FMN701      0.0000 
     30 O2P         9.6510   -7.0550   35.4170 O.co2     1 FMN701      0.0000 
     31 O3P        11.1660   -8.3410   36.8890 O.co2     1 FMN701      0.0000 
@<TRIPOS>BOND
     1    1    2 1    
     2    1   18 2    
     3    2    3 2    
     4    2    4 am   
     5    4    5 am   
     6    5    6 2    
     7    5    7 1    
     8    7    8 2    
     9    7   18 1    
    10    8    9 1    
    11    9   10 ar   
    12    9   16 ar   
    13   10   11 ar   
    14   11   12 1    
    15   11   13 ar   
    16   13   14 1    
    17   13   15 ar   
    18   15   16 ar   
    19   16   17 1    
    20   17   18 1    
    21   17   19 1    
    22   19   20 1    
    23   20   21 1    
    24   20   22 1    
    25   22   23 1    
    26   22   24 1    
    27   24   25 1    
    28   24   26 1    
    29   26   27 1    
    30   27   28 1    
    31   28   29 ar   
    32   28   30 ar   
    33   28   31 ar   
@<TRIPOS>SUBSTRUCTURE
     1 FMN701      1 GROUP   
@<TRIPOS>SET
ATOM$ORANGE STATIC     ATOMS   COLORGROUP SYSTEM 
34 2 2 5 5 7 7 9 9 10 10 11 11 12 12 13 13 14 \
14 15 15 16 16 18 18 19 19 20 20 22 22 24 24 26 26 

