#    Name: 6dna_4_PLP
#    Modification time : Fri May 22 19:46:16 2020

@<TRIPOS>MOLECULE
6dna_4_PLP
   16    16     1     0     0
SMALL
NO_CHARGES


@<TRIPOS>ATOM
      1 N1        -97.2590  -75.0010   20.8770 N.ar      1 PLP502      0.0000 
      2 C2        -96.8690  -75.5140   22.0710 C.ar      1 PLP502      0.0000 
      3 C2A       -96.7410  -74.6950   23.3270 C.3       1 PLP502      0.0000 
      4 C3        -96.5550  -76.9400   22.1760 C.ar      1 PLP502      0.0000 
      5 O3        -96.1760  -77.4340   23.3770 O.3       1 PLP502      0.0000 
      6 C4        -96.6580  -77.7700   20.9690 C.ar      1 PLP502      0.0000 
      7 C4A       -96.3250  -79.2030   20.9990 C.2       1 PLP502      0.0000 
      8 O4A       -95.8870  -79.7070   22.0100 O.2       1 PLP502      0.0000 
      9 C5        -97.1120  -77.1000   19.7200 C.ar      1 PLP502      0.0000 
     10 C6        -97.3780  -75.7320   19.7460 C.ar      1 PLP502      0.0000 
     11 C5A       -97.2190  -77.8420   18.3990 C.3       1 PLP502      0.0000 
     12 O4P       -98.5240  -78.1250   17.8810 O.3       1 PLP502      0.0000 
     13 P         -98.6530  -79.3440   16.8150 P.3       1 PLP502      0.0000 
     14 O1P       -98.1010  -78.7860   15.5140 O.co2     1 PLP502      0.0000 
     15 O2P      -100.1360  -79.5790   16.7770 O.co2     1 PLP502      0.0000 
     16 O3P       -97.9110  -80.5430   17.3740 O.co2     1 PLP502      0.0000 
@<TRIPOS>BOND
     1    1    2 ar   
     2    1   10 ar   
     3    2    3 1    
     4    2    4 ar   
     5    4    5 1    
     6    4    6 ar   
     7    6    7 1    
     8    6    9 ar   
     9    7    8 2    
    10    9   10 ar   
    11    9   11 1    
    12   11   12 1    
    13   12   13 1    
    14   13   14 ar   
    15   13   15 ar   
    16   13   16 ar   
@<TRIPOS>SUBSTRUCTURE
     1 PLP502      1 GROUP   
@<TRIPOS>SET

