#    Name: 6dna_4_PLP_CAVITY_N1_6
#    Modification time : Fri May 22 19:46:17 2020

@<TRIPOS>MOLECULE
6dna_4_PLP_CAVITY_N1_6
   70     0     7     0     0
SMALL
NO_CHARGES


@<TRIPOS>ATOM
      1 OG        -98.3200  -80.5900   18.4000 O.3       1 SER1        0.0000 
      2 OG        -97.6600  -80.2200   17.1000 O.3       1 SER1        0.0000 
      3 OG        -95.7500  -80.4300   18.0100 O.3       1 SER1        0.0000 
      4 OG        -95.1000  -80.0700   16.7100 O.3       1 SER1        0.0000 
      5 OG        -96.7300  -79.3000   17.8300 O.3       1 SER1        0.0000 
      6 OG        -98.3600  -78.5400   18.9500 O.3       1 SER1        0.0000 
      7 OG        -93.8500  -80.6300   18.9100 O.3       1 SER1        0.0000 
      8 OG        -97.1100  -79.1100   21.1600 O.3       1 SER1        0.0000 
      9 OG        -94.2200  -80.4300   22.2400 O.3       1 SER1        0.0000 
     10 OG        -96.1700  -78.1800   21.8900 O.3       1 SER1        0.0000 
     11 OG        -95.2400  -77.2600   22.6100 O.3       1 SER1        0.0000 
     12 O         -98.6400  -79.1000   16.9200 O.2       2 ALA2        0.0000 
     13 O         -92.4900  -81.9500   15.7600 O.2       2 ALA2        0.0000 
     14 O         -97.7000  -78.1800   17.6500 O.2       2 ALA2        0.0000 
     15 O         -97.0500  -77.8100   16.3500 O.2       2 ALA2        0.0000 
     16 O         -97.7500  -76.1300   18.2000 O.2       2 ALA2        0.0000 
     17 O         -92.2700  -82.6900   22.6000 O.2       2 ALA2        0.0000 
     18 O         -91.6200  -82.3200   21.3000 O.2       2 ALA2        0.0000 
     19 O         -91.9400  -80.8400   19.8200 O.2       2 ALA2        0.0000 
     20 O         -93.5700  -80.0700   20.9400 O.2       2 ALA2        0.0000 
     21 O         -94.5400  -78.9500   20.7600 O.2       2 ALA2        0.0000 
     22 O         -92.3200  -80.6400   23.1500 O.2       2 ALA2        0.0000 
     23 O         -91.6600  -80.2800   21.8500 O.2       2 ALA2        0.0000 
     24 O         -91.0100  -79.9100   20.5500 O.2       2 ALA2        0.0000 
     25 O         -93.2900  -79.5100   22.9700 O.2       2 ALA2        0.0000 
     26 O         -91.3800  -79.7200   23.8700 O.2       2 ALA2        0.0000 
     27 O         -90.7300  -79.3500   22.5700 O.2       2 ALA2        0.0000 
     28 O         -90.0700  -78.9900   21.2800 O.2       2 ALA2        0.0000 
     29 OD1       -98.0400  -80.0300   20.4300 O.co2     3 ASP3        0.0000 
     30 OD1       -97.3800  -79.6600   19.1300 O.co2     3 ASP3        0.0000 
     31 OD1       -96.0700  -78.9400   16.5300 O.co2     3 ASP3        0.0000 
     32 OD1       -93.5300  -82.1200   20.3900 O.co2     3 ASP3        0.0000 
     33 OD1       -92.2100  -81.3900   17.7900 O.co2     3 ASP3        0.0000 
     34 OD1       -94.5000  -80.9900   20.2100 O.co2     3 ASP3        0.0000 
     35 OD1       -93.1900  -80.2700   17.6100 O.co2     3 ASP3        0.0000 
     36 OD1       -95.4800  -79.8700   20.0400 O.co2     3 ASP3        0.0000 
     37 OD1       -96.4500  -78.7400   19.8600 O.co2     3 ASP3        0.0000 
     38 OD1       -93.2500  -81.5600   22.4200 O.co2     3 ASP3        0.0000 
     39 OD1       -92.5900  -81.2000   21.1200 O.co2     3 ASP3        0.0000 
     40 OD1       -91.2800  -80.4700   18.5200 O.co2     3 ASP3        0.0000 
     41 OD1       -92.2600  -79.3500   18.3400 O.co2     3 ASP3        0.0000 
     42 OD1       -90.4100  -80.8400   24.0500 O.co2     3 ASP3        0.0000 
     43 NZ        -98.1200  -75.9300   21.5300 N.4       4 LYS4        0.0000 
     44 NZ        -97.4700  -75.5700   20.2300 N.4       4 LYS4        0.0000 
     45 CZ        -93.1500  -82.3200   17.0600 C.ar      5 PHE5        0.0000 
     46 CZ        -94.1200  -81.1900   16.8900 C.ar      5 PHE5        0.0000 
     47 CZ        -92.8700  -81.7600   19.0900 C.ar      5 PHE5        0.0000 
     48 CZ        -94.8200  -79.5100   18.7400 C.ar      5 PHE5        0.0000 
     49 CZ        -94.1600  -79.1400   17.4400 C.ar      5 PHE5        0.0000 
     50 CZ        -95.8000  -78.3800   18.5600 C.ar      5 PHE5        0.0000 
     51 CZ        -95.1400  -78.0200   17.2600 C.ar      5 PHE5        0.0000 
     52 CZ        -96.7700  -77.2500   18.3800 C.ar      5 PHE5        0.0000 
     53 CZ        -92.9100  -79.7100   19.6400 C.ar      5 PHE5        0.0000 
     54 CZ        -95.5200  -77.8200   20.5900 C.ar      5 PHE5        0.0000 
     55 CZ        -96.4900  -76.6900   20.4100 C.ar      5 PHE5        0.0000 
     56 CZ        -91.3400  -81.7600   23.3200 C.ar      5 PHE5        0.0000 
     57 CZ        -96.8700  -76.5000   23.7300 C.ar      5 PHE5        0.0000 
     58 CZ        -96.2200  -76.1300   22.4400 C.ar      5 PHE5        0.0000 
     59 CZ        -95.5600  -75.7700   21.1400 C.ar      5 PHE5        0.0000 
     60 CA        -99.0100  -78.9000   20.2500 C.3       6 GLY6        0.0000 
     61 CA        -99.3300  -77.4100   18.7700 C.3       6 GLY6        0.0000 
     62 CA        -92.5500  -83.2500   20.5700 C.3       6 GLY6        0.0000 
     63 CA        -91.9000  -82.8800   19.2700 C.3       6 GLY6        0.0000 
     64 CA        -98.0800  -77.9800   20.9800 C.3       6 GLY6        0.0000 
     65 CA        -96.1100  -76.8900   17.0800 C.3       6 GLY6        0.0000 
     66 CA        -98.4000  -76.4900   19.5000 C.3       6 GLY6        0.0000 
     67 CA        -90.9600  -81.9600   20.0000 C.3       6 GLY6        0.0000 
     68 CA        -97.1500  -77.0600   21.7100 C.3       6 GLY6        0.0000 
     69 DU        -97.4300  -77.6200   19.6800 H         7 CUB7        0.0000 
     70 DU        -90.6900  -81.4000   22.0200 H         7 CUB7        0.0000 
@<TRIPOS>BOND
@<TRIPOS>SUBSTRUCTURE
     1 SER1        1 GROUP   
     2 ALA2       12 GROUP   
     3 ASP3       29 GROUP   
     4 LYS4       43 GROUP   
     5 PHE5       45 GROUP   
     6 GLY6       60 GROUP   
     7 CUB7       69 GROUP   
@<TRIPOS>SET

