#    Name: 6dna_6_PLP_CAVITY_N1_4
#    Modification time : Fri May 22 19:46:23 2020

@<TRIPOS>MOLECULE
6dna_6_PLP_CAVITY_N1_4
   42     0     7     0     0
SMALL
NO_CHARGES


@<TRIPOS>ATOM
      1 OG        -99.0500  -25.7500   -9.9500 O.3       1 SER1        0.0000 
      2 OG       -100.0300  -24.6300  -10.1300 O.3       1 SER1        0.0000 
      3 OG       -102.3200  -24.2200   -7.7100 O.3       1 SER1        0.0000 
      4 OG       -100.1300  -23.8700   -4.7800 O.3       1 SER1        0.0000 
      5 OG        -99.4800  -23.5100   -6.0800 O.3       1 SER1        0.0000 
      6 OG        -98.2200  -24.0700   -3.8700 O.3       1 SER1        0.0000 
      7 OG        -97.5700  -23.7100   -5.1700 O.3       1 SER1        0.0000 
      8 OG        -99.2000  -22.9500   -4.0500 O.3       1 SER1        0.0000 
      9 OG        -97.8900  -22.2200   -6.6500 O.3       1 SER1        0.0000 
     10 O        -101.0200  -26.8400   -6.0500 O.2       2 ALA2        0.0000 
     11 O        -102.0000  -25.7100   -6.2300 O.2       2 ALA2        0.0000 
     12 O        -100.0900  -25.9200   -5.3300 O.2       2 ALA2        0.0000 
     13 O         -98.1200  -24.8300   -9.2200 O.2       2 ALA2        0.0000 
     14 O         -97.4700  -24.4700  -10.5200 O.2       2 ALA2        0.0000 
     15 O        -101.0600  -24.7900   -5.5000 O.2       2 ALA2        0.0000 
     16 O         -97.1900  -23.9100   -8.5000 O.2       2 ALA2        0.0000 
     17 O         -96.5300  -23.5400   -9.8000 O.2       2 ALA2        0.0000 
     18 O         -96.2600  -22.9800   -7.7700 O.2       2 ALA2        0.0000 
     19 OD1      -100.4100  -24.4300   -6.8000 O.co2     3 ASP3        0.0000 
     20 OD1       -99.7500  -24.0700   -8.1000 O.co2     3 ASP3        0.0000 
     21 OD1       -97.5100  -22.4200   -9.9700 O.co2     3 ASP3        0.0000 
     22 OD1       -97.2300  -21.8600   -7.9500 O.co2     3 ASP3        0.0000 
     23 OD1       -96.5800  -21.5000   -9.2500 O.co2     3 ASP3        0.0000 
     24 NZ        -99.6700  -28.1600   -9.2000 N.4       4 LYS4        0.0000 
     25 NZ        -99.0100  -27.8000  -10.5000 N.4       4 LYS4        0.0000 
     26 CZ        -99.3900  -27.6000   -7.1800 C.ar      5 PHE5        0.0000 
     27 CZ        -98.7300  -27.2400   -8.4800 C.ar      5 PHE5        0.0000 
     28 CZ        -98.0800  -26.8800   -9.7700 C.ar      5 PHE5        0.0000 
     29 CZ        -99.4300  -25.5500   -6.6300 C.ar      5 PHE5        0.0000 
     30 CZ        -98.7800  -25.1900   -7.9300 C.ar      5 PHE5        0.0000 
     31 CZ        -98.5000  -24.6300   -5.9000 C.ar      5 PHE5        0.0000 
     32 CZ        -97.8500  -24.2700   -7.2000 C.ar      5 PHE5        0.0000 
     33 CZ        -96.8500  -22.0600  -11.2700 C.ar      5 PHE5        0.0000 
     34 CZ        -96.9100  -23.3500   -6.4700 C.ar      5 PHE5        0.0000 
     35 CZ        -97.6100  -21.6600   -4.6200 C.ar      5 PHE5        0.0000 
     36 CA       -101.3000  -27.4000   -8.0800 C.3       6 GLY6        0.0000 
     37 CA       -100.6400  -27.0400   -9.3800 C.3       6 GLY6        0.0000 
     38 CA        -99.7100  -26.1100   -8.6500 C.3       6 GLY6        0.0000 
     39 CA       -101.3400  -25.3500   -7.5300 C.3       6 GLY6        0.0000 
     40 CA       -100.6900  -24.9900   -8.8300 C.3       6 GLY6        0.0000 
     41 CA        -99.1600  -24.9900   -4.6000 C.3       6 GLY6        0.0000 
     42 DU       -100.3700  -26.4800   -7.3500 H         7 CUB7        0.0000 
@<TRIPOS>BOND
@<TRIPOS>SUBSTRUCTURE
     1 SER1        1 GROUP   
     2 ALA2       10 GROUP   
     3 ASP3       19 GROUP   
     4 LYS4       24 GROUP   
     5 PHE5       26 GROUP   
     6 GLY6       36 GROUP   
     7 CUB7       42 GROUP   
@<TRIPOS>SET

