#    Name: 6dna_6_PLP
#    Modification time : Fri May 22 19:46:22 2020

@<TRIPOS>MOLECULE
6dna_6_PLP
   16    16     1     0     0
SMALL
NO_CHARGES


@<TRIPOS>ATOM
      1 N1        -99.7810  -28.5910   -8.8760 N.ar      1 PLP501      0.0000 
      2 C2        -99.4320  -27.8790   -9.9740 C.ar      1 PLP501      0.0000 
      3 C2A       -99.0240  -28.5550  -11.2740 C.3       1 PLP501      0.0000 
      4 C3        -99.4510  -26.4020   -9.8730 C.ar      1 PLP501      0.0000 
      5 O3        -99.0970  -25.6370  -10.9440 O.3       1 PLP501      0.0000 
      6 C4        -99.8530  -25.7840   -8.5850 C.ar      1 PLP501      0.0000 
      7 C4A       -99.9030  -24.3190   -8.4460 C.2       1 PLP501      0.0000 
      8 O4A       -99.6800  -23.6200   -9.4190 O.2       1 PLP501      0.0000 
      9 C5       -100.2160  -26.6750   -7.4630 C.ar      1 PLP501      0.0000 
     10 C6       -100.1520  -28.0530   -7.6920 C.ar      1 PLP501      0.0000 
     11 C5A      -100.6450  -26.1710   -6.0810 C.3       1 PLP501      0.0000 
     12 O4P      -100.7370  -24.7400   -5.8780 O.3       1 PLP501      0.0000 
     13 P        -101.3800  -24.0860   -4.5230 P.3       1 PLP501      0.0000 
     14 O1P      -102.7810  -23.7230   -4.9520 O.co2     1 PLP501      0.0000 
     15 O2P      -101.2930  -25.1970   -3.4810 O.co2     1 PLP501      0.0000 
     16 O3P      -100.6370  -22.8080   -4.1900 O.co2     1 PLP501      0.0000 
@<TRIPOS>BOND
     1    1    2 ar   
     2    1   10 ar   
     3    2    3 1    
     4    2    4 ar   
     5    4    5 1    
     6    4    6 ar   
     7    6    7 1    
     8    6    9 ar   
     9    7    8 2    
    10    9   10 ar   
    11    9   11 1    
    12   11   12 1    
    13   12   13 1    
    14   13   14 ar   
    15   13   15 ar   
    16   13   16 ar   
@<TRIPOS>SUBSTRUCTURE
     1 PLP501      1 GROUP   
@<TRIPOS>SET

