#    Name: 6dna_6_PLP_CAVITY_N1_ALL
#    Modification time : Fri May 22 19:46:23 2020

@<TRIPOS>MOLECULE
6dna_6_PLP_CAVITY_N1_ALL
   87     0     7     0     0
SMALL
NO_CHARGES


@<TRIPOS>ATOM
      1 OG        -99.0500  -25.7500   -9.9500 O.3       1 SER1        0.0000 
      2 OG       -100.0300  -24.6300  -10.1300 O.3       1 SER1        0.0000 
      3 OG       -102.3200  -24.2200   -7.7100 O.3       1 SER1        0.0000 
      4 OG       -100.1300  -23.8700   -4.7800 O.3       1 SER1        0.0000 
      5 OG        -99.4800  -23.5100   -6.0800 O.3       1 SER1        0.0000 
      6 OG        -98.2200  -24.0700   -3.8700 O.3       1 SER1        0.0000 
      7 OG        -97.5700  -23.7100   -5.1700 O.3       1 SER1        0.0000 
      8 OG        -99.2000  -22.9500   -4.0500 O.3       1 SER1        0.0000 
      9 OG        -97.8900  -22.2200   -6.6500 O.3       1 SER1        0.0000 
     10 OG        -96.6400  -22.7900   -4.4400 O.3       1 SER1        0.0000 
     11 OG        -95.7000  -21.8600   -3.7100 O.3       1 SER1        0.0000 
     12 OG        -93.8000  -22.0700   -2.8100 O.3       1 SER1        0.0000 
     13 O        -101.0200  -26.8400   -6.0500 O.2       2 ALA2        0.0000 
     14 O        -102.0000  -25.7100   -6.2300 O.2       2 ALA2        0.0000 
     15 O        -100.0900  -25.9200   -5.3300 O.2       2 ALA2        0.0000 
     16 O         -98.1200  -24.8300   -9.2200 O.2       2 ALA2        0.0000 
     17 O         -97.4700  -24.4700  -10.5200 O.2       2 ALA2        0.0000 
     18 O        -101.0600  -24.7900   -5.5000 O.2       2 ALA2        0.0000 
     19 O         -97.1900  -23.9100   -8.5000 O.2       2 ALA2        0.0000 
     20 O         -96.5300  -23.5400   -9.8000 O.2       2 ALA2        0.0000 
     21 O         -95.8800  -23.1800  -11.1000 O.2       2 ALA2        0.0000 
     22 O         -96.2600  -22.9800   -7.7700 O.2       2 ALA2        0.0000 
     23 O         -95.6000  -22.6200   -9.0700 O.2       2 ALA2        0.0000 
     24 O         -95.9200  -21.1300  -10.5500 O.2       2 ALA2        0.0000 
     25 O         -95.6400  -20.5700   -8.5200 O.2       2 ALA2        0.0000 
     26 O         -94.9900  -20.2100   -9.8200 O.2       2 ALA2        0.0000 
     27 N         -96.6200  -19.4500   -8.7000 N.am      2 ALA2        0.0000 
     28 O         -96.6800  -20.7400   -3.8900 O.2       2 ALA2        0.0000 
     29 O         -94.0600  -19.2900   -9.0900 O.2       2 ALA2        0.0000 
     30 O         -94.7700  -20.9400   -2.9900 O.2       2 ALA2        0.0000 
     31 O         -95.7500  -19.8200   -3.1600 O.2       2 ALA2        0.0000 
     32 O         -93.8400  -20.0200   -2.2600 O.2       2 ALA2        0.0000 
     33 OD1      -100.4100  -24.4300   -6.8000 O.co2     3 ASP3        0.0000 
     34 OD1       -99.7500  -24.0700   -8.1000 O.co2     3 ASP3        0.0000 
     35 OD1       -97.5100  -22.4200   -9.9700 O.co2     3 ASP3        0.0000 
     36 OD1       -97.2300  -21.8600   -7.9500 O.co2     3 ASP3        0.0000 
     37 OD1       -96.5800  -21.5000   -9.2500 O.co2     3 ASP3        0.0000 
     38 OD1       -95.9800  -22.4200   -5.7400 O.co2     3 ASP3        0.0000 
     39 OD1       -95.3200  -22.0600   -7.0400 O.co2     3 ASP3        0.0000 
     40 OD1       -93.4200  -22.2700   -6.1400 O.co2     3 ASP3        0.0000 
     41 OD1       -92.7600  -21.9000   -7.4300 O.co2     3 ASP3        0.0000 
     42 OD1       -95.0500  -21.5000   -5.0100 O.co2     3 ASP3        0.0000 
     43 OD1       -94.3900  -21.1400   -6.3100 O.co2     3 ASP3        0.0000 
     44 OD1       -91.5100  -22.4700   -5.2300 O.co2     3 ASP3        0.0000 
     45 OD1       -93.1400  -21.7100   -4.1100 O.co2     3 ASP3        0.0000 
     46 NZ        -99.6700  -28.1600   -9.2000 N.4       4 LYS4        0.0000 
     47 NZ        -99.0100  -27.8000  -10.5000 N.4       4 LYS4        0.0000 
     48 NZ        -94.9500  -22.2600  -10.3700 N.4       4 LYS4        0.0000 
     49 NZ        -93.6900  -22.8300   -8.1600 N.4       4 LYS4        0.0000 
     50 NZ        -94.0100  -21.3400   -9.6400 N.4       4 LYS4        0.0000 
     51 CZ        -99.3900  -27.6000   -7.1800 C.ar      5 PHE5        0.0000 
     52 CZ        -98.7300  -27.2400   -8.4800 C.ar      5 PHE5        0.0000 
     53 CZ        -98.0800  -26.8800   -9.7700 C.ar      5 PHE5        0.0000 
     54 CZ        -99.4300  -25.5500   -6.6300 C.ar      5 PHE5        0.0000 
     55 CZ        -98.7800  -25.1900   -7.9300 C.ar      5 PHE5        0.0000 
     56 CZ        -98.5000  -24.6300   -5.9000 C.ar      5 PHE5        0.0000 
     57 CZ        -97.8500  -24.2700   -7.2000 C.ar      5 PHE5        0.0000 
     58 CZ        -96.8500  -22.0600  -11.2700 C.ar      5 PHE5        0.0000 
     59 CZ        -96.9100  -23.3500   -6.4700 C.ar      5 PHE5        0.0000 
     60 CZ        -97.6100  -21.6600   -4.6200 C.ar      5 PHE5        0.0000 
     61 CZ        -96.9600  -21.3000   -5.9200 C.ar      5 PHE5        0.0000 
     62 CZ        -96.3000  -20.9400   -7.2200 C.ar      5 PHE5        0.0000 
     63 CZ        -96.0200  -20.3800   -5.1900 C.ar      5 PHE5        0.0000 
     64 CZ        -95.3700  -20.0100   -6.4900 C.ar      5 PHE5        0.0000 
     65 CZ        -92.4800  -21.3400   -5.4100 C.ar      5 PHE5        0.0000 
     66 CZ        -91.8300  -20.9800   -6.7100 C.ar      5 PHE5        0.0000 
     67 CZ        -93.4600  -20.2200   -5.5800 C.ar      5 PHE5        0.0000 
     68 CZ        -92.8000  -19.8500   -6.8800 C.ar      5 PHE5        0.0000 
     69 CZ        -95.0900  -19.4500   -4.4600 C.ar      5 PHE5        0.0000 
     70 CZ        -93.1800  -19.6600   -3.5600 C.ar      5 PHE5        0.0000 
     71 CA       -101.3000  -27.4000   -8.0800 C.3       6 GLY6        0.0000 
     72 CA       -100.6400  -27.0400   -9.3800 C.3       6 GLY6        0.0000 
     73 CA        -99.7100  -26.1100   -8.6500 C.3       6 GLY6        0.0000 
     74 CA       -101.3400  -25.3500   -7.5300 C.3       6 GLY6        0.0000 
     75 CA       -100.6900  -24.9900   -8.8300 C.3       6 GLY6        0.0000 
     76 CA        -99.1600  -24.9900   -4.6000 C.3       6 GLY6        0.0000 
     77 CA        -92.1100  -21.5400   -8.7300 C.3       6 GLY6        0.0000 
     78 CA        -93.0800  -20.4100   -8.9100 C.3       6 GLY6        0.0000 
     79 CA        -94.7100  -19.6500   -7.7900 C.3       6 GLY6        0.0000 
     80 CA        -92.1500  -19.4900   -8.1800 C.3       6 GLY6        0.0000 
     81 CA        -94.4300  -19.0900   -5.7600 C.3       6 GLY6        0.0000 
     82 CA        -94.1600  -18.5300   -3.7400 C.3       6 GLY6        0.0000 
     83 CA        -93.5000  -18.1700   -5.0300 C.3       6 GLY6        0.0000 
     84 DU       -100.3700  -26.4800   -7.3500 H         7 CUB7        0.0000 
     85 DU        -94.6700  -21.7000   -8.3400 H         7 CUB7        0.0000 
     86 DU        -93.7400  -20.7800   -7.6100 H         7 CUB7        0.0000 
     87 DU        -94.1200  -20.5800   -4.2900 H         7 CUB7        0.0000 
@<TRIPOS>BOND
@<TRIPOS>SUBSTRUCTURE
     1 SER1        1 GROUP   
     2 ALA2       13 GROUP   
     3 ASP3       33 GROUP   
     4 LYS4       46 GROUP   
     5 PHE5       51 GROUP   
     6 GLY6       71 GROUP   
     7 CUB7       84 GROUP   
@<TRIPOS>SET

