#    Name: 6dna_4_PLP_CAVITY_N1_4
#    Modification time : Fri May 22 19:46:17 2020

@<TRIPOS>MOLECULE
6dna_4_PLP_CAVITY_N1_4
   49     0     7     0     0
SMALL
NO_CHARGES


@<TRIPOS>ATOM
      1 OG        -98.3200  -80.5900   18.4000 O.3       1 SER1        0.0000 
      2 OG        -97.6600  -80.2200   17.1000 O.3       1 SER1        0.0000 
      3 OG        -95.7500  -80.4300   18.0100 O.3       1 SER1        0.0000 
      4 OG        -95.1000  -80.0700   16.7100 O.3       1 SER1        0.0000 
      5 OG        -96.7300  -79.3000   17.8300 O.3       1 SER1        0.0000 
      6 OG        -98.3600  -78.5400   18.9500 O.3       1 SER1        0.0000 
      7 OG        -93.8500  -80.6300   18.9100 O.3       1 SER1        0.0000 
      8 OG        -97.1100  -79.1100   21.1600 O.3       1 SER1        0.0000 
      9 OG        -94.2200  -80.4300   22.2400 O.3       1 SER1        0.0000 
     10 OG        -96.1700  -78.1800   21.8900 O.3       1 SER1        0.0000 
     11 OG        -95.2400  -77.2600   22.6100 O.3       1 SER1        0.0000 
     12 O         -98.6400  -79.1000   16.9200 O.2       2 ALA2        0.0000 
     13 O         -97.7000  -78.1800   17.6500 O.2       2 ALA2        0.0000 
     14 O         -97.0500  -77.8100   16.3500 O.2       2 ALA2        0.0000 
     15 O         -97.7500  -76.1300   18.2000 O.2       2 ALA2        0.0000 
     16 O         -93.5700  -80.0700   20.9400 O.2       2 ALA2        0.0000 
     17 O         -94.5400  -78.9500   20.7600 O.2       2 ALA2        0.0000 
     18 O         -92.3200  -80.6400   23.1500 O.2       2 ALA2        0.0000 
     19 O         -93.2900  -79.5100   22.9700 O.2       2 ALA2        0.0000 
     20 OD1       -98.0400  -80.0300   20.4300 O.co2     3 ASP3        0.0000 
     21 OD1       -97.3800  -79.6600   19.1300 O.co2     3 ASP3        0.0000 
     22 OD1       -96.0700  -78.9400   16.5300 O.co2     3 ASP3        0.0000 
     23 OD1       -93.5300  -82.1200   20.3900 O.co2     3 ASP3        0.0000 
     24 OD1       -94.5000  -80.9900   20.2100 O.co2     3 ASP3        0.0000 
     25 OD1       -95.4800  -79.8700   20.0400 O.co2     3 ASP3        0.0000 
     26 OD1       -96.4500  -78.7400   19.8600 O.co2     3 ASP3        0.0000 
     27 OD1       -93.2500  -81.5600   22.4200 O.co2     3 ASP3        0.0000 
     28 OD1       -92.5900  -81.2000   21.1200 O.co2     3 ASP3        0.0000 
     29 NZ        -98.1200  -75.9300   21.5300 N.4       4 LYS4        0.0000 
     30 NZ        -97.4700  -75.5700   20.2300 N.4       4 LYS4        0.0000 
     31 CZ        -94.1200  -81.1900   16.8900 C.ar      5 PHE5        0.0000 
     32 CZ        -94.8200  -79.5100   18.7400 C.ar      5 PHE5        0.0000 
     33 CZ        -94.1600  -79.1400   17.4400 C.ar      5 PHE5        0.0000 
     34 CZ        -95.8000  -78.3800   18.5600 C.ar      5 PHE5        0.0000 
     35 CZ        -95.1400  -78.0200   17.2600 C.ar      5 PHE5        0.0000 
     36 CZ        -96.7700  -77.2500   18.3800 C.ar      5 PHE5        0.0000 
     37 CZ        -92.9100  -79.7100   19.6400 C.ar      5 PHE5        0.0000 
     38 CZ        -95.5200  -77.8200   20.5900 C.ar      5 PHE5        0.0000 
     39 CZ        -96.4900  -76.6900   20.4100 C.ar      5 PHE5        0.0000 
     40 CZ        -96.8700  -76.5000   23.7300 C.ar      5 PHE5        0.0000 
     41 CZ        -96.2200  -76.1300   22.4400 C.ar      5 PHE5        0.0000 
     42 CZ        -95.5600  -75.7700   21.1400 C.ar      5 PHE5        0.0000 
     43 CA        -99.0100  -78.9000   20.2500 C.3       6 GLY6        0.0000 
     44 CA        -99.3300  -77.4100   18.7700 C.3       6 GLY6        0.0000 
     45 CA        -98.0800  -77.9800   20.9800 C.3       6 GLY6        0.0000 
     46 CA        -96.1100  -76.8900   17.0800 C.3       6 GLY6        0.0000 
     47 CA        -98.4000  -76.4900   19.5000 C.3       6 GLY6        0.0000 
     48 CA        -97.1500  -77.0600   21.7100 C.3       6 GLY6        0.0000 
     49 DU        -97.4300  -77.6200   19.6800 H         7 CUB7        0.0000 
@<TRIPOS>BOND
@<TRIPOS>SUBSTRUCTURE
     1 SER1        1 GROUP   
     2 ALA2       12 GROUP   
     3 ASP3       20 GROUP   
     4 LYS4       29 GROUP   
     5 PHE5       31 GROUP   
     6 GLY6       43 GROUP   
     7 CUB7       49 GROUP   
@<TRIPOS>SET

