#    Name: 6s32_5_FMN
#    Modification time : Fri May 22 19:26:22 2020

@<TRIPOS>MOLECULE
6s32_5_FMN
   31    33     1     0     1
SMALL
NO_CHARGES


@<TRIPOS>ATOM
      1 N1         20.6360  111.5500   78.6270 N.2       1 FMN402      0.0000 
      2 C2         21.7180  111.5320   79.4690 C.2       1 FMN402      0.0000 
      3 O2         21.8500  110.5510   80.2250 O.2       1 FMN402      0.0000 
      4 N3         22.5170  112.6120   79.5960 N.am      1 FMN402      0.0000 
      5 C4         22.4610  113.7190   78.8520 C.2       1 FMN402      0.0000 
      6 O4         23.2120  114.6450   79.0020 O.2       1 FMN402      0.0000 
      7 C4A        21.3630  113.8360   77.8910 C.2       1 FMN402      0.0000 
      8 N5         21.2390  114.8630   76.9950 N.2       1 FMN402      0.0000 
      9 C5A        20.0630  114.9420   76.2720 C.ar      1 FMN402      0.0000 
     10 C6         19.9150  116.0930   75.5150 C.ar      1 FMN402      0.0000 
     11 C7         18.7630  116.2050   74.7490 C.ar      1 FMN402      0.0000 
     12 C7M        18.6470  117.4510   73.9340 C.3       1 FMN402      0.0000 
     13 C8         17.8020  115.0550   74.6740 C.ar      1 FMN402      0.0000 
     14 C8M        16.5700  115.1160   73.8070 C.3       1 FMN402      0.0000 
     15 C9         17.9240  113.9110   75.4240 C.ar      1 FMN402      0.0000 
     16 C9A        19.1090  113.8120   76.1710 C.ar      1 FMN402      0.0000 
     17 N10        19.3640  112.7310   77.0070 N.pl3     1 FMN402      0.0000 
     18 C10        20.4570  112.7030   77.8600 C.2       1 FMN402      0.0000 
     19 C1'        18.3600  111.6580   77.0730 C.3       1 FMN402      0.0000 
     20 C2'        17.3300  112.2170   78.0910 C.3       1 FMN402      0.0000 
     21 O2'        17.7800  112.1550   79.4230 O.3       1 FMN402      0.0000 
     22 C3'        16.0670  111.4330   78.3180 C.3       1 FMN402      0.0000 
     23 O3'        16.2940  110.0350   78.5370 O.3       1 FMN402      0.0000 
     24 C4'        15.0660  111.5730   77.1690 C.3       1 FMN402      0.0000 
     25 O4'        15.1540  112.8420   76.5080 O.3       1 FMN402      0.0000 
     26 C5'        13.7520  111.4370   77.8900 C.3       1 FMN402      0.0000 
     27 O5'        12.8250  111.0590   76.9950 O.3       1 FMN402      0.0000 
     28 P          11.7800  112.2260   76.7180 P.3       1 FMN402      0.0000 
     29 O1P        10.7700  111.6740   75.7360 O.co2     1 FMN402      0.0000 
     30 O2P        11.2210  112.4260   78.1090 O.co2     1 FMN402      0.0000 
     31 O3P        12.4710  113.5010   76.1210 O.co2     1 FMN402      0.0000 
@<TRIPOS>BOND
     1    1    2 1    
     2    1   18 2    
     3    2    3 2    
     4    2    4 am   
     5    4    5 am   
     6    5    6 2    
     7    5    7 1    
     8    7    8 2    
     9    7   18 1    
    10    8    9 1    
    11    9   10 ar   
    12    9   16 ar   
    13   10   11 ar   
    14   11   12 1    
    15   11   13 ar   
    16   13   14 1    
    17   13   15 ar   
    18   15   16 ar   
    19   16   17 1    
    20   17   18 1    
    21   17   19 1    
    22   19   20 1    
    23   20   21 1    
    24   20   22 1    
    25   22   23 1    
    26   22   24 1    
    27   24   25 1    
    28   24   26 1    
    29   26   27 1    
    30   27   28 1    
    31   28   29 ar   
    32   28   30 ar   
    33   28   31 ar   
@<TRIPOS>SUBSTRUCTURE
     1 FMN402      1 GROUP   
@<TRIPOS>SET
ATOM$ORANGE STATIC     ATOMS   COLORGROUP SYSTEM 
34 2 2 5 5 7 7 9 9 10 10 11 11 12 12 13 13 14 \
14 15 15 16 16 18 18 19 19 20 20 22 22 24 24 26 26 

