#    Name: 6s32_2_FMN
#    Modification time : Fri May 22 19:26:11 2020

@<TRIPOS>MOLECULE
6s32_2_FMN
   31    33     1     0     1
SMALL
NO_CHARGES


@<TRIPOS>ATOM
      1 N1         16.8640   53.6250   14.6330 N.2       1 FMN403      0.0000 
      2 C2         17.8630   54.2970   15.2000 C.2       1 FMN403      0.0000 
      3 O2         18.0360   54.2480   16.4150 O.2       1 FMN403      0.0000 
      4 N3         18.6710   55.0450   14.3970 N.am      1 FMN403      0.0000 
      5 C4         18.5630   55.1140   13.0630 C.2       1 FMN403      0.0000 
      6 O4         19.2970   55.8630   12.3890 O.2       1 FMN403      0.0000 
      7 C4A        17.4280   54.4460   12.4110 C.2       1 FMN403      0.0000 
      8 N5         17.3160   54.3630   11.0460 N.2       1 FMN403      0.0000 
      9 C5A        16.1570   53.8720   10.5450 C.ar      1 FMN403      0.0000 
     10 C6         15.9310   54.0040    9.1940 C.ar      1 FMN403      0.0000 
     11 C7         14.7580   53.4630    8.6120 C.ar      1 FMN403      0.0000 
     12 C7M        14.4650   53.5880    7.1160 C.3       1 FMN403      0.0000 
     13 C8         13.8150   52.7560    9.4300 C.ar      1 FMN403      0.0000 
     14 C8M        12.6000   52.1260    8.7780 C.3       1 FMN403      0.0000 
     15 C9         14.0450   52.6170   10.7900 C.ar      1 FMN403      0.0000 
     16 C9A        15.1640   53.1460   11.3800 C.ar      1 FMN403      0.0000 
     17 N10        15.4250   53.0840   12.7560 N.pl3     1 FMN403      0.0000 
     18 C10        16.6040   53.6970   13.2920 C.2       1 FMN403      0.0000 
     19 C1'        14.4280   52.5130   13.6790 C.3       1 FMN403      0.0000 
     20 C2'        13.3940   53.6270   13.9110 C.3       1 FMN403      0.0000 
     21 O2'        13.9690   54.7090   14.7230 O.3       1 FMN403      0.0000 
     22 C3'        12.0760   53.2820   14.5640 C.3       1 FMN403      0.0000 
     23 O3'        12.3090   52.6600   15.7560 O.3       1 FMN403      0.0000 
     24 C4'        11.0300   52.5940   13.7330 C.3       1 FMN403      0.0000 
     25 O4'        11.0340   53.1820   12.4340 O.3       1 FMN403      0.0000 
     26 C5'         9.7230   52.8680   14.5100 C.3       1 FMN403      0.0000 
     27 O5'         8.8600   52.0190   13.9910 O.3       1 FMN403      0.0000 
     28 P           7.8430   52.5320   12.8900 P.3       1 FMN403      0.0000 
     29 O1P         7.2940   53.8490   13.4270 O.co2     1 FMN403      0.0000 
     30 O2P         8.5460   52.7280   11.5410 O.co2     1 FMN403      0.0000 
     31 O3P         6.8910   51.3800   12.8310 O.co2     1 FMN403      0.0000 
@<TRIPOS>BOND
     1    1    2 1    
     2    1   18 2    
     3    2    3 2    
     4    2    4 am   
     5    4    5 am   
     6    5    6 2    
     7    5    7 1    
     8    7    8 2    
     9    7   18 1    
    10    8    9 1    
    11    9   10 ar   
    12    9   16 ar   
    13   10   11 ar   
    14   11   12 1    
    15   11   13 ar   
    16   13   14 1    
    17   13   15 ar   
    18   15   16 ar   
    19   16   17 1    
    20   17   18 1    
    21   17   19 1    
    22   19   20 1    
    23   20   21 1    
    24   20   22 1    
    25   22   23 1    
    26   22   24 1    
    27   24   25 1    
    28   24   26 1    
    29   26   27 1    
    30   27   28 1    
    31   28   29 ar   
    32   28   30 ar   
    33   28   31 ar   
@<TRIPOS>SUBSTRUCTURE
     1 FMN403      1 GROUP   
@<TRIPOS>SET
ATOM$ORANGE STATIC     ATOMS   COLORGROUP SYSTEM 
34 2 2 5 5 7 7 9 9 10 10 11 11 12 12 13 13 14 \
14 15 15 16 16 18 18 19 19 20 20 22 22 24 24 26 26 

