#    Name: 6s32_3_FMN_CAVITY_N1_6
#    Modification time : Fri May 22 19:26:16 2020

@<TRIPOS>MOLECULE
6s32_3_FMN_CAVITY_N1_6
   96     0     6     0     0
SMALL
NO_CHARGES


@<TRIPOS>ATOM
      1 OG         32.7200   90.0200   44.1400 O.3       1 SER1        0.0000 
      2 OG         33.9900   92.1500   41.8800 O.3       1 SER1        0.0000 
      3 OG         31.6800   91.1500   45.6100 O.3       1 SER1        0.0000 
      4 OG         33.0300   92.1200   44.2900 O.3       1 SER1        0.0000 
      5 OG         33.1200   90.9600   45.2400 O.3       1 SER1        0.0000 
      6 OG         33.2100   89.8000   46.1900 O.3       1 SER1        0.0000 
      7 OG         33.2900   88.6400   47.1400 O.3       1 SER1        0.0000 
      8 OG         34.3900   93.0800   42.9800 O.3       1 SER1        0.0000 
      9 OG         34.6500   89.6100   45.8300 O.3       1 SER1        0.0000 
     10 OG         34.7300   88.4500   46.7800 O.3       1 SER1        0.0000 
     11 OG         34.8200   87.2900   47.7300 O.3       1 SER1        0.0000 
     12 OG         36.1800   88.2600   46.4200 O.3       1 SER1        0.0000 
     13 OG         33.5200   91.8900   46.3500 O.3       1 SER1        0.0000 
     14 OG         33.6100   90.7300   47.3000 O.3       1 SER1        0.0000 
     15 OG         33.6900   89.5800   48.2500 O.3       1 SER1        0.0000 
     16 OG         34.8800   92.8600   45.0300 O.3       1 SER1        0.0000 
     17 OG         34.9600   91.7000   45.9800 O.3       1 SER1        0.0000 
     18 OG         36.4100   91.5100   45.6200 O.3       1 SER1        0.0000 
     19 OG         37.9300   90.1600   46.2100 O.3       1 SER1        0.0000 
     20 OG         36.8100   92.4500   46.7300 O.3       1 SER1        0.0000 
     21 OG         38.3300   91.1000   47.3100 O.3       1 SER1        0.0000 
     22 OG         39.8600   89.7500   47.9000 O.3       1 SER1        0.0000 
     23 OG         38.7300   92.0300   48.4200 O.3       1 SER1        0.0000 
     24 OG         38.8200   90.8700   49.3700 O.3       1 SER1        0.0000 
     25 O          34.0800   90.9900   42.8300 O.2       2 ALA2        0.0000 
     26 O          34.4800   91.9300   43.9300 O.2       2 ALA2        0.0000 
     27 N          35.8300   92.8900   42.6200 N.am      2 ALA2        0.0000 
     28 O          35.9200   91.7400   43.5700 O.2       2 ALA2        0.0000 
     29 O          43.0500   91.9400   40.8100 O.2       2 ALA2        0.0000 
     30 N          34.7900   94.0200   44.0900 N.am      2 ALA2        0.0000 
     31 N          36.3200   92.6700   44.6700 N.am      2 ALA2        0.0000 
     32 N          37.7600   92.4800   44.3100 N.am      2 ALA2        0.0000 
     33 N          39.1200   93.4500   43.0000 N.am      2 ALA2        0.0000 
     34 O          43.4500   92.8800   41.9100 O.2       2 ALA2        0.0000 
     35 O          43.5400   91.7200   42.8600 O.2       2 ALA2        0.0000 
     36 O          44.9800   91.5300   42.5000 O.2       2 ALA2        0.0000 
     37 O          45.0600   90.3700   43.4500 O.2       2 ALA2        0.0000 
     38 O          43.9400   92.6500   43.9600 O.2       2 ALA2        0.0000 
     39 N          37.2100   93.3800   47.8300 N.am      2 ALA2        0.0000 
     40 N          37.6900   93.1600   49.8800 N.am      2 ALA2        0.0000 
     41 OD1        37.2800   92.7000   42.2600 O.co2     3 ASP3        0.0000 
     42 OD1        37.3600   91.5500   43.2100 O.co2     3 ASP3        0.0000 
     43 OD1        38.7200   92.5100   41.9000 O.co2     3 ASP3        0.0000 
     44 OD1        38.8100   91.3500   42.8400 O.co2     3 ASP3        0.0000 
     45 OD1        40.1600   92.3200   41.5300 O.co2     3 ASP3        0.0000 
     46 OD1        41.6100   92.1300   41.1700 O.co2     3 ASP3        0.0000 
     47 OD1        44.7500   88.2800   43.3000 O.co2     3 ASP3        0.0000 
     48 OD1        42.2600   89.5900   45.1200 O.co2     3 ASP3        0.0000 
     49 OD1        43.6200   90.5600   43.8100 O.co2     3 ASP3        0.0000 
     50 OD1        43.7100   89.4000   44.7600 O.co2     3 ASP3        0.0000 
     51 OD1        44.0200   91.5000   44.9100 O.co2     3 ASP3        0.0000 
     52 CZ         32.6300   91.1800   43.1900 C.ar      4 PHE5        0.0000 
     53 CZ         32.2500   89.7700   48.6100 C.ar      4 PHE5        0.0000 
     54 CZ         33.7800   88.4200   49.2000 C.ar      4 PHE5        0.0000 
     55 CZ         37.2900   92.2200   48.7800 C.ar      4 PHE5        0.0000 
     56 CZ         40.2600   90.6800   49.0000 C.ar      4 PHE5        0.0000 
     57 CZ         40.3500   89.5300   49.9500 C.ar      4 PHE5        0.0000 
     58 CZ         41.7900   89.3400   49.5900 C.ar      4 PHE5        0.0000 
     59 CA         42.8200   88.6900   41.6000 C.3       5 GLY6        0.0000 
     60 CA         32.9500   93.2700   43.3400 C.3       5 GLY6        0.0000 
     61 CA         43.1400   90.7800   41.7600 C.3       5 GLY6        0.0000 
     62 CA         43.2200   89.6300   42.7100 C.3       5 GLY6        0.0000 
     63 CA         32.1600   90.9200   47.6600 C.3       5 GLY6        0.0000 
     64 CA         39.2100   92.2900   43.9500 C.3       5 GLY6        0.0000 
     65 CA         40.5600   93.2600   42.6400 C.3       5 GLY6        0.0000 
     66 CA         40.6500   92.1000   43.5900 C.3       5 GLY6        0.0000 
     67 CA         42.0100   93.0700   42.2700 C.3       5 GLY6        0.0000 
     68 CA         42.0900   91.9100   43.2200 C.3       5 GLY6        0.0000 
     69 CA         35.3600   92.6400   47.0900 C.3       5 GLY6        0.0000 
     70 CA         36.7200   93.6000   45.7800 C.3       5 GLY6        0.0000 
     71 CA         38.1600   93.4100   45.4100 C.3       5 GLY6        0.0000 
     72 CA         38.2500   92.2600   46.3600 C.3       5 GLY6        0.0000 
     73 CA         39.6900   92.0700   46.0000 C.3       5 GLY6        0.0000 
     74 CA         41.0500   93.0300   44.6900 C.3       5 GLY6        0.0000 
     75 CA         41.1400   91.8800   45.6400 C.3       5 GLY6        0.0000 
     76 CA         41.2200   90.7200   46.5900 C.3       5 GLY6        0.0000 
     77 CA         41.3100   89.5600   47.5400 C.3       5 GLY6        0.0000 
     78 CA         42.4900   92.8400   44.3300 C.3       5 GLY6        0.0000 
     79 CA         42.5800   91.6900   45.2800 C.3       5 GLY6        0.0000 
     80 CA         38.6500   93.1900   47.4700 C.3       5 GLY6        0.0000 
     81 CA         40.1800   91.8400   48.0500 C.3       5 GLY6        0.0000 
     82 CA         41.5400   92.8100   46.7400 C.3       5 GLY6        0.0000 
     83 CA         41.7100   90.4900   48.6400 C.3       5 GLY6        0.0000 
     84 CA         39.0500   94.1200   48.5700 C.3       5 GLY6        0.0000 
     85 CA         39.1300   92.9700   49.5200 C.3       5 GLY6        0.0000 
     86 CA         40.5800   92.7800   49.1600 C.3       5 GLY6        0.0000 
     87 DU         34.5600   90.7700   44.8800 H         6 CUB7        0.0000 
     88 DU         41.6900   90.9700   42.1200 H         6 CUB7        0.0000 
     89 DU         41.7800   89.8200   43.0700 H         6 CUB7        0.0000 
     90 DU         37.8500   91.3200   45.2600 H         6 CUB7        0.0000 
     91 DU         39.2900   91.1300   44.9000 H         6 CUB7        0.0000 
     92 DU         39.3800   89.9700   45.8500 H         6 CUB7        0.0000 
     93 DU         40.7400   90.9400   44.5400 H         6 CUB7        0.0000 
     94 DU         40.8200   89.7800   45.4800 H         6 CUB7        0.0000 
     95 DU         42.1800   90.7500   44.1700 H         6 CUB7        0.0000 
     96 DU         39.7800   90.9100   46.9500 H         6 CUB7        0.0000 
@<TRIPOS>BOND
@<TRIPOS>SUBSTRUCTURE
     1 SER1        1 GROUP   
     2 ALA2       25 GROUP   
     3 ASP3       41 GROUP   
     4 PHE5       52 GROUP   
     5 GLY6       59 GROUP   
     6 CUB7       87 GROUP   
@<TRIPOS>SET

