#    Name: 6s32_3_FMN
#    Modification time : Fri May 22 19:26:15 2020

@<TRIPOS>MOLECULE
6s32_3_FMN
   31    33     1     0     1
SMALL
NO_CHARGES


@<TRIPOS>ATOM
      1 N1         36.0300   92.6490   42.0290 N.2       1 FMN402      0.0000 
      2 C2         34.9350   93.2960   41.5000 C.2       1 FMN402      0.0000 
      3 O2         34.7670   93.2460   40.2640 O.2       1 FMN402      0.0000 
      4 N3         34.1290   94.0610   42.3030 N.am      1 FMN402      0.0000 
      5 C4         34.2200   94.1140   43.6390 C.2       1 FMN402      0.0000 
      6 O4         33.5040   94.8490   44.4230 O.2       1 FMN402      0.0000 
      7 C4A        35.3800   93.4160   44.2520 C.2       1 FMN402      0.0000 
      8 N5         35.4890   93.4210   45.5880 N.2       1 FMN402      0.0000 
      9 C5A        36.6000   92.8800   46.1760 C.ar      1 FMN402      0.0000 
     10 C6         36.8470   92.9270   47.5740 C.ar      1 FMN402      0.0000 
     11 C7         37.9820   92.3300   48.1070 C.ar      1 FMN402      0.0000 
     12 C7M        38.2450   92.4330   49.5760 C.3       1 FMN402      0.0000 
     13 C8         38.8930   91.6170   47.2060 C.ar      1 FMN402      0.0000 
     14 C8M        40.1660   90.9140   47.7110 C.3       1 FMN402      0.0000 
     15 C9         38.6900   91.5420   45.8440 C.ar      1 FMN402      0.0000 
     16 C9A        37.5180   92.1020   45.3050 C.ar      1 FMN402      0.0000 
     17 N10        37.3660   92.0790   43.8980 N.pl3     1 FMN402      0.0000 
     18 C10        36.2260   92.6870   43.3300 C.2       1 FMN402      0.0000 
     19 C1'        38.3410   91.4980   42.9980 C.3       1 FMN402      0.0000 
     20 C2'        39.4370   92.6260   42.9550 C.3       1 FMN402      0.0000 
     21 O2'        38.9200   93.6760   42.0140 O.3       1 FMN402      0.0000 
     22 C3'        40.8870   92.0180   42.8310 C.3       1 FMN402      0.0000 
     23 O3'        41.7860   92.1300   44.0270 O.3       1 FMN402      0.0000 
     24 C4'        41.4770   92.2670   41.4870 C.3       1 FMN402      0.0000 
     25 O4'        40.4400   91.5950   40.7810 O.3       1 FMN402      0.0000 
     26 C5'        43.0150   91.8480   41.3900 C.3       1 FMN402      0.0000 
     27 O5'        43.7280   91.1770   42.4650 O.3       1 FMN402      0.0000 
     28 P          44.9060   91.5330   43.6030 P.3       1 FMN402      0.0000 
     29 O1P        44.2730   91.6020   44.9630 O.co2     1 FMN402      0.0000 
     30 O2P        45.9350   90.4040   43.6170 O.co2     1 FMN402      0.0000 
     31 O3P        45.5380   92.8990   43.2280 O.co2     1 FMN402      0.0000 
@<TRIPOS>BOND
     1    1    2 1    
     2    1   18 2    
     3    2    3 2    
     4    2    4 am   
     5    4    5 am   
     6    5    6 2    
     7    5    7 1    
     8    7    8 2    
     9    7   18 1    
    10    8    9 1    
    11    9   10 ar   
    12    9   16 ar   
    13   10   11 ar   
    14   11   12 1    
    15   11   13 ar   
    16   13   14 1    
    17   13   15 ar   
    18   15   16 ar   
    19   16   17 1    
    20   17   18 1    
    21   17   19 1    
    22   19   20 1    
    23   20   21 1    
    24   20   22 1    
    25   22   23 1    
    26   22   24 1    
    27   24   25 1    
    28   24   26 1    
    29   26   27 1    
    30   27   28 1    
    31   28   29 ar   
    32   28   30 ar   
    33   28   31 ar   
@<TRIPOS>SUBSTRUCTURE
     1 FMN402      1 GROUP   
@<TRIPOS>SET
ATOM$ORANGE STATIC     ATOMS   COLORGROUP SYSTEM 
34 2 2 5 5 7 7 9 9 10 10 11 11 12 12 13 13 14 \
14 15 15 16 16 18 18 19 19 20 20 22 22 24 24 26 26 

