#    Name: 6s32_5_FMN_CAVITY_N1_12
#    Modification time : Fri May 22 19:26:23 2020

@<TRIPOS>MOLECULE
6s32_5_FMN_CAVITY_N1_12
   73     0     6     0     0
SMALL
NO_CHARGES


@<TRIPOS>ATOM
      1 OG         16.9000  114.9700   73.6200 O.3       1 SER1        0.0000 
      2 OG         18.3400  114.7800   73.2600 O.3       1 SER1        0.0000 
      3 OG         18.6600  116.8700   73.4100 O.3       1 SER1        0.0000 
      4 OG         18.7400  115.7100   74.3600 O.3       1 SER1        0.0000 
      5 OG         20.2700  114.3700   74.9500 O.3       1 SER1        0.0000 
      6 OG         22.2000  113.9500   76.6400 O.3       1 SER1        0.0000 
      7 OG         22.3700  111.6400   78.5400 O.3       1 SER1        0.0000 
      8 OG         23.6500  113.7600   76.2700 O.3       1 SER1        0.0000 
      9 OG         23.7300  112.6000   77.2200 O.3       1 SER1        0.0000 
     10 OG         22.6900  113.7300   78.6900 O.3       1 SER1        0.0000 
     11 O          12.0300  110.2000   75.3500 O.2       2 ALA2        0.0000 
     12 O          12.4300  111.1300   76.4500 O.2       2 ALA2        0.0000 
     13 O          12.8300  112.0700   77.5500 O.2       2 ALA2        0.0000 
     14 O          12.9200  110.9100   78.5000 O.2       2 ALA2        0.0000 
     15 O          14.1900  113.0300   76.2400 O.2       2 ALA2        0.0000 
     16 O          13.3200  111.8400   79.6100 O.2       2 ALA2        0.0000 
     17 N          17.5600  112.4300   77.5700 N.am      2 ALA2        0.0000 
     18 N          18.9200  113.4000   76.2600 N.am      2 ALA2        0.0000 
     19 N          19.0000  112.2400   77.2100 N.am      2 ALA2        0.0000 
     20 O          20.4500  112.0500   76.8500 O.2       2 ALA2        0.0000 
     21 O          20.5300  110.8900   77.8000 O.2       2 ALA2        0.0000 
     22 O          21.8900  111.8600   76.4800 O.2       2 ALA2        0.0000 
     23 N          19.0600  117.8100   74.5100 N.am      2 ALA2        0.0000 
     24 N          20.5900  116.4600   75.1000 N.am      2 ALA2        0.0000 
     25 O          20.6700  115.3000   76.0500 O.2       2 ALA2        0.0000 
     26 N          20.7600  114.1400   77.0000 N.am      2 ALA2        0.0000 
     27 N          20.8500  112.9800   77.9500 N.am      2 ALA2        0.0000 
     28 N          22.7700  112.5700   79.6400 N.am      2 ALA2        0.0000 
     29 OD1        13.3900  111.1700   74.0400 O.co2     3 ASP3        0.0000 
     30 OD1        13.4700  110.0100   74.9900 O.co2     3 ASP3        0.0000 
     31 OD1        12.3400  112.2900   75.5000 O.co2     3 ASP3        0.0000 
     32 OD1        13.7900  112.1000   75.1400 O.co2     3 ASP3        0.0000 
     33 OD1        15.1400  113.0700   73.8300 O.co2     3 ASP3        0.0000 
     34 OD1        16.2000  111.4600   78.8800 O.co2     3 ASP3        0.0000 
     35 OD1        17.6400  111.2700   78.5200 O.co2     3 ASP3        0.0000 
     36 OD1        19.0900  111.0800   78.1600 O.co2     3 ASP3        0.0000 
     37 OD1        19.4900  112.0200   79.2600 O.co2     3 ASP3        0.0000 
     38 OD1        20.9300  111.8300   78.9000 O.co2     3 ASP3        0.0000 
     39 CZ         16.8200  116.1300   72.6700 C.ar      4 PHE5        0.0000 
     40 CZ         17.2200  117.0600   73.7700 C.ar      4 PHE5        0.0000 
     41 CZ         23.3300  111.6700   76.1200 C.ar      4 PHE5        0.0000 
     42 CA         13.9600  109.7800   77.0400 C.3       5 GLY6        0.0000 
     43 CA         14.1000  114.1900   75.2900 C.3       5 GLY6        0.0000 
     44 CA         14.2700  111.8800   77.1900 C.3       5 GLY6        0.0000 
     45 CA         14.3600  110.7200   78.1400 C.3       5 GLY6        0.0000 
     46 CA         14.4400  109.5600   79.0900 C.3       5 GLY6        0.0000 
     47 CA         15.4600  115.1600   73.9800 C.3       5 GLY6        0.0000 
     48 CA         15.5400  114.0000   74.9300 C.3       5 GLY6        0.0000 
     49 CA         14.6700  112.8100   78.3000 C.3       5 GLY6        0.0000 
     50 CA         14.7600  111.6500   79.2400 C.3       5 GLY6        0.0000 
     51 CA         15.7700  117.2500   74.1300 C.3       5 GLY6        0.0000 
     52 CA         15.8600  116.0900   75.0800 C.3       5 GLY6        0.0000 
     53 CA         15.9400  114.9400   76.0300 C.3       5 GLY6        0.0000 
     54 CA         16.0300  113.7800   76.9800 C.3       5 GLY6        0.0000 
     55 CA         16.1200  112.6200   77.9300 C.3       5 GLY6        0.0000 
     56 CA         17.3000  115.9000   74.7200 C.3       5 GLY6        0.0000 
     57 CA         17.3900  114.7500   75.6700 C.3       5 GLY6        0.0000 
     58 CA         17.4700  113.5900   76.6200 C.3       5 GLY6        0.0000 
     59 CA         18.8300  114.5600   75.3100 C.3       5 GLY6        0.0000 
     60 CA         17.6200  118.0000   74.8800 C.3       5 GLY6        0.0000 
     61 CA         19.1400  116.6500   75.4600 C.3       5 GLY6        0.0000 
     62 CA         19.2300  115.4900   76.4100 C.3       5 GLY6        0.0000 
     63 CA         24.1300  113.5400   78.3300 C.3       5 GLY6        0.0000 
     64 DU         13.8700  110.9400   76.0900 H         6 CUB7        0.0000 
     65 DU         15.2300  111.9100   74.7800 H         6 CUB7        0.0000 
     66 DU         15.6300  112.8400   75.8800 H         6 CUB7        0.0000 
     67 DU         15.7200  111.6900   76.8300 H         6 CUB7        0.0000 
     68 DU         16.9900  113.8100   74.5700 H         6 CUB7        0.0000 
     69 DU         17.0700  112.6500   75.5200 H         6 CUB7        0.0000 
     70 DU         17.1600  111.5000   76.4700 H         6 CUB7        0.0000 
     71 DU         18.6000  111.3100   76.1100 H         6 CUB7        0.0000 
     72 DU         20.3600  113.2100   75.9000 H         6 CUB7        0.0000 
     73 DU         22.2900  112.7900   77.5900 H         6 CUB7        0.0000 
@<TRIPOS>BOND
@<TRIPOS>SUBSTRUCTURE
     1 SER1        1 GROUP   
     2 ALA2       11 GROUP   
     3 ASP3       29 GROUP   
     4 PHE5       39 GROUP   
     5 GLY6       42 GROUP   
     6 CUB7       64 GROUP   
@<TRIPOS>SET

