#    Name: 6s32_2_FMN_CAVITY_N1_ALL
#    Modification time : Fri May 22 19:26:12 2020

@<TRIPOS>MOLECULE
6s32_2_FMN_CAVITY_N1_ALL
   75     0     6     0     0
SMALL
NO_CHARGES


@<TRIPOS>ATOM
      1 OG         13.8500   52.5500    7.2600 O.3       1 SER1        0.0000 
      2 OG         14.0200   50.2300    9.1600 O.3       1 SER1        0.0000 
      3 OG         14.2500   53.4800    8.3600 O.3       1 SER1        0.0000 
      4 OG         14.3300   52.3200    9.3100 O.3       1 SER1        0.0000 
      5 OG         14.4200   51.1700   10.2600 O.3       1 SER1        0.0000 
      6 OG         15.6900   53.2900    8.0000 O.3       1 SER1        0.0000 
      7 OG         15.8600   50.9800    9.9000 O.3       1 SER1        0.0000 
      8 OG         16.1700   53.0700   10.0500 O.3       1 SER1        0.0000 
      9 OG         16.2600   51.9100   11.0000 O.3       1 SER1        0.0000 
     10 OG         18.4200   54.7500   11.9000 O.3       1 SER1        0.0000 
     11 OG         18.5000   53.5900   12.8500 O.3       1 SER1        0.0000 
     12 OG         18.9900   53.3700   14.9000 O.3       1 SER1        0.0000 
     13 O           7.6000   53.0500   13.1800 O.2       2 ALA2        0.0000 
     14 O           7.6900   51.8900   14.1300 O.2       2 ALA2        0.0000 
     15 O           9.0500   52.8600   12.8100 O.2       2 ALA2        0.0000 
     16 O          16.0900   54.2300    9.1000 O.2       2 ALA2        0.0000 
     17 O           9.4500   53.8000   13.9200 O.2       2 ALA2        0.0000 
     18 N          13.7700   53.2300   12.8300 N.am      2 ALA2        0.0000 
     19 N          15.1300   54.1900   11.5200 N.am      2 ALA2        0.0000 
     20 N          15.2200   53.0400   12.4700 N.am      2 ALA2        0.0000 
     21 O          15.3000   51.8800   13.4200 O.2       2 ALA2        0.0000 
     22 O          16.5700   54.0000   11.1600 O.2       2 ALA2        0.0000 
     23 N          16.6600   52.8500   12.1100 N.am      2 ALA2        0.0000 
     24 O          18.0200   53.8100   10.7900 O.2       2 ALA2        0.0000 
     25 N          14.1700   54.1600   13.9300 N.am      2 ALA2        0.0000 
     26 N          15.6200   53.9700   13.5700 N.am      2 ALA2        0.0000 
     27 N          17.0600   53.7800   13.2100 N.am      2 ALA2        0.0000 
     28 O          17.1500   52.6200   14.1600 O.2       2 ALA2        0.0000 
     29 O          18.5900   52.4300   13.8000 O.2       2 ALA2        0.0000 
     30 N          17.4600   54.7100   14.3100 N.am      2 ALA2        0.0000 
     31 N          18.9000   54.5200   13.9500 N.am      2 ALA2        0.0000 
     32 OD1         7.2900   50.9600   13.0200 O.co2     3 ASP3        0.0000 
     33 OD1         8.6400   51.9300   11.7100 O.co2     3 ASP3        0.0000 
     34 OD1         8.7300   50.7700   12.6600 O.co2     3 ASP3        0.0000 
     35 OD1        10.0900   51.7400   11.3500 O.co2     3 ASP3        0.0000 
     36 OD1        10.1700   50.5800   12.3000 O.co2     3 ASP3        0.0000 
     37 OD1        11.3700   53.3800   15.6100 O.co2     3 ASP3        0.0000 
     38 OD1        12.8200   53.1900   15.2500 O.co2     3 ASP3        0.0000 
     39 OD1        14.2600   53.0000   14.8800 O.co2     3 ASP3        0.0000 
     40 OD1        15.7000   52.8100   14.5200 O.co2     3 ASP3        0.0000 
     41 OD1        17.5500   53.5600   15.2600 O.co2     3 ASP3        0.0000 
     42 CZ         12.0900   50.6500    7.4700 C.ar      4 PHE5        0.0000 
     43 CZ         12.4000   52.7400    7.6200 C.ar      4 PHE5        0.0000 
     44 CA         11.0500   51.7700    8.9300 C.3       5 GLY6        0.0000 
     45 CA         12.4900   51.5800    8.5700 C.3       5 GLY6        0.0000 
     46 CA         11.3600   53.8600    9.0900 C.3       5 GLY6        0.0000 
     47 CA         11.4500   52.7100   10.0400 C.3       5 GLY6        0.0000 
     48 CA         11.5300   51.5500   10.9900 C.3       5 GLY6        0.0000 
     49 CA         12.8000   53.6700    8.7300 C.3       5 GLY6        0.0000 
     50 CA         12.8900   52.5100    9.6700 C.3       5 GLY6        0.0000 
     51 CA         14.1600   54.6400    7.4100 C.3       5 GLY6        0.0000 
     52 CA          9.1300   51.7000   13.7600 C.3       5 GLY6        0.0000 
     53 CA          9.2200   50.5500   14.7100 C.3       5 GLY6        0.0000 
     54 CA         10.4000   53.8300   11.5000 C.3       5 GLY6        0.0000 
     55 CA         10.4900   52.6700   12.4500 C.3       5 GLY6        0.0000 
     56 CA         11.8500   53.6400   11.1400 C.3       5 GLY6        0.0000 
     57 CA         13.2900   53.4500   10.7800 C.3       5 GLY6        0.0000 
     58 CA         14.6500   54.4200    9.4700 C.3       5 GLY6        0.0000 
     59 CA         14.7300   53.2600   10.4200 C.3       5 GLY6        0.0000 
     60 CA          9.5300   52.6400   14.8700 C.3       5 GLY6        0.0000 
     61 CA         10.8900   53.6100   13.5600 C.3       5 GLY6        0.0000 
     62 CA         12.3300   53.4200   13.1900 C.3       5 GLY6        0.0000 
     63 CA         11.2900   54.5400   14.6600 C.3       5 GLY6        0.0000 
     64 CA         12.7300   54.3500   14.3000 C.3       5 GLY6        0.0000 
     65 DU         12.5700   50.4200    9.5200 H         6 CUB7        0.0000 
     66 DU         11.6200   50.3900   11.9400 H         6 CUB7        0.0000 
     67 DU         12.9700   51.3600   10.6200 H         6 CUB7        0.0000 
     68 DU         14.5000   50.0100   11.2100 H         6 CUB7        0.0000 
     69 DU         10.5700   51.5100   13.4000 H         6 CUB7        0.0000 
     70 DU         11.9300   52.4800   12.0900 H         6 CUB7        0.0000 
     71 DU         13.3700   52.2900   11.7300 H         6 CUB7        0.0000 
     72 DU         14.8200   52.1000   11.3700 H         6 CUB7        0.0000 
     73 DU         10.9700   52.4500   14.5100 H         6 CUB7        0.0000 
     74 DU         12.4200   52.2600   14.1400 H         6 CUB7        0.0000 
     75 DU         13.8600   52.0700   13.7800 H         6 CUB7        0.0000 
@<TRIPOS>BOND
@<TRIPOS>SUBSTRUCTURE
     1 SER1        1 GROUP   
     2 ALA2       13 GROUP   
     3 ASP3       32 GROUP   
     4 PHE5       42 GROUP   
     5 GLY6       44 GROUP   
     6 CUB7       65 GROUP   
@<TRIPOS>SET

