#    Name: 6s32_4_FMN
#    Modification time : Fri May 22 19:26:18 2020

@<TRIPOS>MOLECULE
6s32_4_FMN
   31    33     1     0     1
SMALL
NO_CHARGES


@<TRIPOS>ATOM
      1 N1         43.7520   68.7930   59.4910 N.2       1 FMN402      0.0000 
      2 C2         44.8410   68.0730   60.0080 C.2       1 FMN402      0.0000 
      3 O2         45.0240   66.9080   59.6050 O.2       1 FMN402      0.0000 
      4 N3         45.6470   68.6240   60.9600 N.am      1 FMN402      0.0000 
      5 C4         45.5490   69.8990   61.3720 C.2       1 FMN402      0.0000 
      6 O4         46.2900   70.4180   62.2650 O.2       1 FMN402      0.0000 
      7 C4A        44.4490   70.7090   60.8400 C.2       1 FMN402      0.0000 
      8 N5         44.2500   71.9870   61.2020 N.2       1 FMN402      0.0000 
      9 C5A        43.1400   72.6540   60.8290 C.ar      1 FMN402      0.0000 
     10 C6         42.9240   73.9510   61.3340 C.ar      1 FMN402      0.0000 
     11 C7         41.7680   74.6270   60.9520 C.ar      1 FMN402      0.0000 
     12 C7M        41.6350   76.0040   61.5530 C.3       1 FMN402      0.0000 
     13 C8         40.8600   74.0220   60.0180 C.ar      1 FMN402      0.0000 
     14 C8M        39.6450   74.7440   59.5490 C.3       1 FMN402      0.0000 
     15 C9         41.0670   72.7150   59.5560 C.ar      1 FMN402      0.0000 
     16 C9A        42.2100   71.9900   59.9050 C.ar      1 FMN402      0.0000 
     17 N10        42.4250   70.6950   59.4780 N.pl3     1 FMN402      0.0000 
     18 C10        43.5650   70.0360   59.9120 C.2       1 FMN402      0.0000 
     19 C1'        41.4840   69.9160   58.6910 C.3       1 FMN402      0.0000 
     20 C2'        40.3940   69.4580   59.7500 C.3       1 FMN402      0.0000 
     21 O2'        40.9540   68.3810   60.5630 O.3       1 FMN402      0.0000 
     22 C3'        39.0950   68.8280   59.2430 C.3       1 FMN402      0.0000 
     23 O3'        39.3250   67.7890   58.2410 O.3       1 FMN402      0.0000 
     24 C4'        38.0350   69.8400   58.7770 C.3       1 FMN402      0.0000 
     25 O4'        37.9930   70.9590   59.7140 O.3       1 FMN402      0.0000 
     26 C5'        36.6720   69.1070   58.7970 C.3       1 FMN402      0.0000 
     27 O5'        35.6720   69.8170   58.1130 O.3       1 FMN402      0.0000 
     28 P          34.7460   70.7320   58.9460 P.3       1 FMN402      0.0000 
     29 O1P        33.6580   71.0760   58.0100 O.co2     1 FMN402      0.0000 
     30 O2P        34.1760   69.8340   60.0430 O.co2     1 FMN402      0.0000 
     31 O3P        35.4480   71.9150   59.4870 O.co2     1 FMN402      0.0000 
@<TRIPOS>BOND
     1    1    2 1    
     2    1   18 2    
     3    2    3 2    
     4    2    4 am   
     5    4    5 am   
     6    5    6 2    
     7    5    7 1    
     8    7    8 2    
     9    7   18 1    
    10    8    9 1    
    11    9   10 ar   
    12    9   16 ar   
    13   10   11 ar   
    14   11   12 1    
    15   11   13 ar   
    16   13   14 1    
    17   13   15 ar   
    18   15   16 ar   
    19   16   17 1    
    20   17   18 1    
    21   17   19 1    
    22   19   20 1    
    23   20   21 1    
    24   20   22 1    
    25   22   23 1    
    26   22   24 1    
    27   24   25 1    
    28   24   26 1    
    29   26   27 1    
    30   27   28 1    
    31   28   29 ar   
    32   28   30 ar   
    33   28   31 ar   
@<TRIPOS>SUBSTRUCTURE
     1 FMN402      1 GROUP   
@<TRIPOS>SET
ATOM$ORANGE STATIC     ATOMS   COLORGROUP SYSTEM 
34 2 2 5 5 7 7 9 9 10 10 11 11 12 12 13 13 14 \
14 15 15 16 16 18 18 19 19 20 20 22 22 24 24 26 26 

