#    Name: 6s32_4_FMN_CAVITY_N1_8
#    Modification time : Fri May 22 19:26:19 2020

@<TRIPOS>MOLECULE
6s32_4_FMN_CAVITY_N1_8
   83     0     6     0     0
SMALL
NO_CHARGES


@<TRIPOS>ATOM
      1 OG         40.4900   74.9200   58.1900 O.3       1 SER1        0.0000 
      2 OG         40.5800   73.7600   59.1400 O.3       1 SER1        0.0000 
      3 OG         42.0200   73.5700   58.7800 O.3       1 SER1        0.0000 
      4 OG         43.3800   74.5400   57.4700 O.3       1 SER1        0.0000 
      5 OG         45.0800   70.8800   59.9500 O.3       1 SER1        0.0000 
      6 OG         46.5200   70.6900   59.5900 O.3       1 SER1        0.0000 
      7 OG         40.9800   74.7000   60.2500 O.3       1 SER1        0.0000 
      8 OG         42.4200   74.5100   59.8800 O.3       1 SER1        0.0000 
      9 OG         45.4800   71.8100   61.0600 O.3       1 SER1        0.0000 
     10 OG         41.3800   75.6300   61.3500 O.3       1 SER1        0.0000 
     11 O          35.1400   70.3700   57.8700 O.2       2 ALA2        0.0000 
     12 O          36.7500   67.8700   59.4100 O.2       2 ALA2        0.0000 
     13 O          35.6200   70.1500   59.9200 O.2       2 ALA2        0.0000 
     14 O          37.1500   68.8000   60.5100 O.2       2 ALA2        0.0000 
     15 O          42.7500   70.3600   57.1600 O.2       2 ALA2        0.0000 
     16 O          42.8400   69.2000   58.1100 O.2       2 ALA2        0.0000 
     17 O          44.1100   71.3200   55.8500 O.2       2 ALA2        0.0000 
     18 O          37.3800   72.0500   59.7100 O.2       2 ALA2        0.0000 
     19 N          40.3500   70.5100   59.9400 N.am      2 ALA2        0.0000 
     20 N          40.4400   69.3500   60.8900 N.am      2 ALA2        0.0000 
     21 N          41.7900   70.3200   59.5800 N.am      2 ALA2        0.0000 
     22 N          43.2400   70.1300   59.2100 N.am      2 ALA2        0.0000 
     23 N          43.3200   68.9700   60.1600 N.am      2 ALA2        0.0000 
     24 O          44.5900   71.1000   57.9000 O.2       2 ALA2        0.0000 
     25 O          44.6800   69.9400   58.8500 O.2       2 ALA2        0.0000 
     26 O          44.7700   68.7800   59.8000 O.2       2 ALA2        0.0000 
     27 O          46.0400   70.9100   57.5400 O.2       2 ALA2        0.0000 
     28 O          46.1200   69.7500   58.4900 O.2       2 ALA2        0.0000 
     29 N          42.1900   71.2600   60.6800 N.am      2 ALA2        0.0000 
     30 N          43.6400   71.0700   60.3200 N.am      2 ALA2        0.0000 
     31 N          45.1700   69.7200   60.9000 N.am      2 ALA2        0.0000 
     32 O          43.9500   73.1600   60.4700 O.2       2 ALA2        0.0000 
     33 O          44.0400   72.0000   61.4200 O.2       2 ALA2        0.0000 
     34 N          42.9100   74.2800   61.9400 N.am      2 ALA2        0.0000 
     35 OD1        35.0500   71.5300   56.9200 O.co2     3 ASP3        0.0000 
     36 OD1        36.4900   71.3400   56.5600 O.co2     3 ASP3        0.0000 
     37 OD1        38.1900   67.6800   59.0400 O.co2     3 ASP3        0.0000 
     38 OD1        35.5400   71.3100   58.9700 O.co2     3 ASP3        0.0000 
     39 OD1        36.8100   73.4300   56.7100 O.co2     3 ASP3        0.0000 
     40 OD1        36.8900   72.2700   57.6600 O.co2     3 ASP3        0.0000 
     41 OD1        36.9800   71.1200   58.6100 O.co2     3 ASP3        0.0000 
     42 OD1        40.0400   68.4200   59.7900 O.co2     3 ASP3        0.0000 
     43 OD1        41.3900   69.3900   58.4700 O.co2     3 ASP3        0.0000 
     44 OD1        37.2900   73.2100   58.7600 O.co2     3 ASP3        0.0000 
     45 CZ         44.0200   72.4800   54.9000 C.ar      4 PHE5        0.0000 
     46 CZ         44.4200   73.4200   56.0000 C.ar      4 PHE5        0.0000 
     47 CZ         39.4500   76.0400   59.6600 C.ar      4 PHE5        0.0000 
     48 CA         35.2200   69.2100   58.8200 C.3       5 GLY6        0.0000 
     49 CA         36.5800   70.1800   57.5100 C.3       5 GLY6        0.0000 
     50 CA         36.6600   69.0200   58.4600 C.3       5 GLY6        0.0000 
     51 CA         37.0600   69.9600   59.5600 C.3       5 GLY6        0.0000 
     52 CA         38.5900   68.6100   60.1500 C.3       5 GLY6        0.0000 
     53 CA         38.7400   73.0200   58.4000 C.3       5 GLY6        0.0000 
     54 CA         38.8200   71.8600   59.3500 C.3       5 GLY6        0.0000 
     55 CA         38.9100   70.7000   60.3000 C.3       5 GLY6        0.0000 
     56 CA         38.9900   69.5400   61.2500 C.3       5 GLY6        0.0000 
     57 CA         37.7800   72.9800   60.8200 C.3       5 GLY6        0.0000 
     58 CA         39.0500   75.1100   58.5600 C.3       5 GLY6        0.0000 
     59 CA         39.1400   73.9500   59.5000 C.3       5 GLY6        0.0000 
     60 CA         39.2200   72.7900   60.4500 C.3       5 GLY6        0.0000 
     61 CA         40.6600   72.6000   60.0900 C.3       5 GLY6        0.0000 
     62 CA         46.6100   69.5300   60.5400 C.3       5 GLY6        0.0000 
     63 CA         39.5400   74.8900   60.6100 C.3       5 GLY6        0.0000 
     64 CA         41.0700   73.5400   61.2000 C.3       5 GLY6        0.0000 
     65 CA         42.5100   73.3500   60.8300 C.3       5 GLY6        0.0000 
     66 CA         42.5900   72.1900   61.7800 C.3       5 GLY6        0.0000 
     67 CA         41.4700   74.4700   62.3000 C.3       5 GLY6        0.0000 
     68 DU         38.1100   68.8300   58.0900 H         6 CUB7        0.0000 
     69 DU         38.3400   72.0800   57.3000 H         6 CUB7        0.0000 
     70 DU         38.4200   70.9300   58.2500 H         6 CUB7        0.0000 
     71 DU         38.5100   69.7700   59.2000 H         6 CUB7        0.0000 
     72 DU         39.9500   69.5800   58.8400 H         6 CUB7        0.0000 
     73 DU         41.3100   70.5500   57.5200 H         6 CUB7        0.0000 
     74 DU         42.6700   71.5100   56.2100 H         6 CUB7        0.0000 
     75 DU         40.1800   72.8300   58.0400 H         6 CUB7        0.0000 
     76 DU         40.2600   71.6700   58.9900 H         6 CUB7        0.0000 
     77 DU         41.6200   72.6400   57.6800 H         6 CUB7        0.0000 
     78 DU         41.7100   71.4800   58.6300 H         6 CUB7        0.0000 
     79 DU         43.0700   72.4500   57.3100 H         6 CUB7        0.0000 
     80 DU         43.1500   71.2900   58.2600 H         6 CUB7        0.0000 
     81 DU         44.5100   72.2600   56.9500 H         6 CUB7        0.0000 
     82 DU         42.1100   72.4100   59.7300 H         6 CUB7        0.0000 
     83 DU         43.5500   72.2200   59.3700 H         6 CUB7        0.0000 
@<TRIPOS>BOND
@<TRIPOS>SUBSTRUCTURE
     1 SER1        1 GROUP   
     2 ALA2       11 GROUP   
     3 ASP3       35 GROUP   
     4 PHE5       45 GROUP   
     5 GLY6       48 GROUP   
     6 CUB7       68 GROUP   
@<TRIPOS>SET

