#    Name: 6o2y_3_NAP_CAVITY_N1_4
#    Modification time : Fri May 22 19:27:53 2020

@<TRIPOS>MOLECULE
6o2y_3_NAP_CAVITY_N1_4
   59     0     5     0     0
SMALL
NO_CHARGES


@<TRIPOS>ATOM
      1 OG        -17.2200  -35.0300  -14.6200 O.3       1 SER1        0.0000 
      2 OG        -17.7000  -34.6700  -12.5900 O.3       1 SER1        0.0000 
      3 OG        -18.4900  -33.4600  -12.9900 O.3       1 SER1        0.0000 
      4 OG        -16.6000  -31.1200   -9.6400 O.3       1 SER1        0.0000 
      5 OG        -17.7100  -31.5400   -8.7200 O.3       1 SER1        0.0000 
      6 OG        -19.6100  -30.7500   -8.2000 O.3       1 SER1        0.0000 
      7 OG        -19.9200  -32.3800   -6.8800 O.3       1 SER1        0.0000 
      8 OG        -15.9700  -30.3400   -8.5300 O.3       1 SER1        0.0000 
      9 OG        -17.0800  -30.7600   -7.6100 O.3       1 SER1        0.0000 
     10 OG        -18.9700  -29.9700   -7.0900 O.3       1 SER1        0.0000 
     11 O         -17.8600  -32.6800  -11.8700 O.2       2 ALA2        0.0000 
     12 N         -18.9700  -33.1000  -10.9500 N.am      2 ALA2        0.0000 
     13 O         -17.2300  -31.9000  -10.7600 O.2       2 ALA2        0.0000 
     14 N         -18.6600  -33.9500   -8.5200 N.am      2 ALA2        0.0000 
     15 O         -15.0200  -33.5400   -8.8400 O.2       2 ALA2        0.0000 
     16 O         -15.3400  -35.1700   -7.5200 O.2       2 ALA2        0.0000 
     17 N         -16.4400  -35.5900   -6.6000 N.am      2 ALA2        0.0000 
     18 N         -17.2300  -34.3800   -7.0000 N.am      2 ALA2        0.0000 
     19 N         -18.8200  -31.9600   -7.8000 N.am      2 ALA2        0.0000 
     20 N         -18.3400  -34.8000   -6.0800 N.am      2 ALA2        0.0000 
     21 N         -19.1300  -33.5900   -6.4800 N.am      2 ALA2        0.0000 
     22 O         -15.1800  -31.5500   -8.1300 O.2       2 ALA2        0.0000 
     23 O         -14.7100  -34.3900   -6.4100 O.2       2 ALA2        0.0000 
     24 O         -15.5000  -33.1800   -6.8100 O.2       2 ALA2        0.0000 
     25 N         -15.8100  -34.8100   -5.4900 N.am      2 ALA2        0.0000 
     26 N         -16.6000  -33.6000   -5.8900 N.am      2 ALA2        0.0000 
     27 N         -17.3900  -32.3900   -6.2900 N.am      2 ALA2        0.0000 
     28 N         -18.1800  -31.1800   -6.6900 N.am      2 ALA2        0.0000 
     29 N         -17.7100  -34.0200   -4.9700 N.am      2 ALA2        0.0000 
     30 O         -13.7600  -31.9800   -6.6100 O.2       2 ALA2        0.0000 
     31 N         -14.0700  -33.6100   -5.2900 N.am      2 ALA2        0.0000 
     32 O         -14.8600  -32.4000   -5.6900 O.2       2 ALA2        0.0000 
     33 N         -15.1800  -34.0300   -4.3700 N.am      2 ALA2        0.0000 
     34 N         -16.7600  -31.6100   -5.1700 N.am      2 ALA2        0.0000 
     35 N         -17.5500  -30.4000   -5.5700 N.am      2 ALA2        0.0000 
     36 N         -16.2900  -34.4500   -3.4500 N.am      2 ALA2        0.0000 
     37 N         -17.0800  -33.2400   -3.8500 N.am      2 ALA2        0.0000 
     38 N         -17.4000  -34.8700   -2.5300 N.am      2 ALA2        0.0000 
     39 N         -18.1900  -33.6600   -2.9300 N.am      2 ALA2        0.0000 
     40 OD1       -17.3800  -33.0400  -13.9100 O.co2     3 ASP3        0.0000 
     41 CA        -16.2800  -35.1000  -11.0700 C.3       4 GLY6        0.0000 
     42 CA        -18.1800  -34.3100  -10.5500 C.3       4 GLY6        0.0000 
     43 CA        -16.1200  -31.4800  -11.6800 C.3       4 GLY6        0.0000 
     44 CA        -14.8600  -35.5300   -9.5600 C.3       4 GLY6        0.0000 
     45 CA        -15.6500  -34.3200   -9.9600 C.3       4 GLY6        0.0000 
     46 CA        -16.7600  -34.7400   -9.0400 C.3       4 GLY6        0.0000 
     47 CA        -17.5500  -33.5300   -9.4400 C.3       4 GLY6        0.0000 
     48 CA        -19.7600  -34.3700   -7.6000 C.3       4 GLY6        0.0000 
     49 CA        -15.4900  -30.7000  -10.5600 C.3       4 GLY6        0.0000 
     50 CA        -16.1300  -33.9600   -7.9200 C.3       4 GLY6        0.0000 
     51 DU        -16.7500  -32.2600  -12.7900 H         5 CUB7        0.0000 
     52 DU        -17.0700  -33.8900  -11.4700 H         5 CUB7        0.0000 
     53 DU        -16.4400  -33.1100  -10.3600 H         5 CUB7        0.0000 
     54 DU        -15.8100  -32.3300   -9.2400 H         5 CUB7        0.0000 
     55 DU        -16.9200  -32.7500   -8.3200 H         5 CUB7        0.0000 
     56 DU        -18.0200  -33.1700   -7.4000 H         5 CUB7        0.0000 
     57 DU        -16.2900  -31.9700   -7.2100 H         5 CUB7        0.0000 
     58 DU        -15.6600  -31.1900   -6.0900 H         5 CUB7        0.0000 
     59 DU        -15.9700  -32.8200   -4.7700 H         5 CUB7        0.0000 
@<TRIPOS>BOND
@<TRIPOS>SUBSTRUCTURE
     1 SER1        1 GROUP   
     2 ALA2       11 GROUP   
     3 ASP3       40 GROUP   
     4 GLY6       41 GROUP   
     5 CUB7       51 GROUP   
@<TRIPOS>SET

