#    Name: 6o2y_3_NAP_CAVITY_N1_8
#    Modification time : Fri May 22 19:27:53 2020

@<TRIPOS>MOLECULE
6o2y_3_NAP_CAVITY_N1_8
   92     0     7     0     0
SMALL
NO_CHARGES


@<TRIPOS>ATOM
      1 OG        -17.2200  -35.0300  -14.6200 O.3       1 SER1        0.0000 
      2 OG        -17.7000  -34.6700  -12.5900 O.3       1 SER1        0.0000 
      3 OG        -18.4900  -33.4600  -12.9900 O.3       1 SER1        0.0000 
      4 OG        -16.6000  -31.1200   -9.6400 O.3       1 SER1        0.0000 
      5 OG        -17.7100  -31.5400   -8.7200 O.3       1 SER1        0.0000 
      6 OG        -19.6100  -30.7500   -8.2000 O.3       1 SER1        0.0000 
      7 OG        -19.9200  -32.3800   -6.8800 O.3       1 SER1        0.0000 
      8 OG        -15.9700  -30.3400   -8.5300 O.3       1 SER1        0.0000 
      9 OG        -17.0800  -30.7600   -7.6100 O.3       1 SER1        0.0000 
     10 OG        -18.9700  -29.9700   -7.0900 O.3       1 SER1        0.0000 
     11 OG        -15.3400  -29.5600   -7.4100 O.3       1 SER1        0.0000 
     12 OG        -16.4500  -29.9800   -6.4900 O.3       1 SER1        0.0000 
     13 OG        -13.6000  -28.3600   -7.2200 O.3       1 SER1        0.0000 
     14 OG        -14.7100  -28.7800   -6.3000 O.3       1 SER1        0.0000 
     15 OG        -15.5000  -27.5700   -6.7000 O.3       1 SER1        0.0000 
     16 OG        -15.8100  -29.2000   -5.3800 O.3       1 SER1        0.0000 
     17 OG        -15.6600  -33.6700   -2.3400 O.3       1 SER1        0.0000 
     18 OG        -16.4500  -32.4600   -2.7400 O.3       1 SER1        0.0000 
     19 OG        -17.2400  -31.2500   -3.1400 O.3       1 SER1        0.0000 
     20 OG        -16.7700  -34.0900   -1.4200 O.3       1 SER1        0.0000 
     21 OG        -14.0800  -28.0000   -5.1800 O.3       1 SER1        0.0000 
     22 OG        -14.8700  -26.7900   -5.5800 O.3       1 SER1        0.0000 
     23 OG        -15.1800  -28.4200   -4.2600 O.3       1 SER1        0.0000 
     24 OG        -15.9700  -27.2100   -4.6600 O.3       1 SER1        0.0000 
     25 O         -17.8600  -32.6800  -11.8700 O.2       2 ALA2        0.0000 
     26 N         -18.9700  -33.1000  -10.9500 N.am      2 ALA2        0.0000 
     27 O         -17.2300  -31.9000  -10.7600 O.2       2 ALA2        0.0000 
     28 N         -18.6600  -33.9500   -8.5200 N.am      2 ALA2        0.0000 
     29 O         -15.0200  -33.5400   -8.8400 O.2       2 ALA2        0.0000 
     30 O         -15.3400  -35.1700   -7.5200 O.2       2 ALA2        0.0000 
     31 N         -16.4400  -35.5900   -6.6000 N.am      2 ALA2        0.0000 
     32 N         -17.2300  -34.3800   -7.0000 N.am      2 ALA2        0.0000 
     33 N         -18.8200  -31.9600   -7.8000 N.am      2 ALA2        0.0000 
     34 N         -18.3400  -34.8000   -6.0800 N.am      2 ALA2        0.0000 
     35 N         -19.1300  -33.5900   -6.4800 N.am      2 ALA2        0.0000 
     36 O         -15.1800  -31.5500   -8.1300 O.2       2 ALA2        0.0000 
     37 O         -14.7100  -34.3900   -6.4100 O.2       2 ALA2        0.0000 
     38 O         -15.5000  -33.1800   -6.8100 O.2       2 ALA2        0.0000 
     39 N         -15.8100  -34.8100   -5.4900 N.am      2 ALA2        0.0000 
     40 N         -16.6000  -33.6000   -5.8900 N.am      2 ALA2        0.0000 
     41 N         -17.3900  -32.3900   -6.2900 N.am      2 ALA2        0.0000 
     42 N         -18.1800  -31.1800   -6.6900 N.am      2 ALA2        0.0000 
     43 N         -17.7100  -34.0200   -4.9700 N.am      2 ALA2        0.0000 
     44 O         -13.7600  -31.9800   -6.6100 O.2       2 ALA2        0.0000 
     45 O         -14.5500  -30.7700   -7.0100 O.2       2 ALA2        0.0000 
     46 N         -14.0700  -33.6100   -5.2900 N.am      2 ALA2        0.0000 
     47 O         -14.8600  -32.4000   -5.6900 O.2       2 ALA2        0.0000 
     48 N         -15.1800  -34.0300   -4.3700 N.am      2 ALA2        0.0000 
     49 N         -16.7600  -31.6100   -5.1700 N.am      2 ALA2        0.0000 
     50 N         -17.5500  -30.4000   -5.5700 N.am      2 ALA2        0.0000 
     51 N         -16.2900  -34.4500   -3.4500 N.am      2 ALA2        0.0000 
     52 N         -17.0800  -33.2400   -3.8500 N.am      2 ALA2        0.0000 
     53 N         -17.4000  -34.8700   -2.5300 N.am      2 ALA2        0.0000 
     54 N         -18.1900  -33.6600   -2.9300 N.am      2 ALA2        0.0000 
     55 N         -13.4400  -32.8300   -4.1800 N.am      2 ALA2        0.0000 
     56 N         -16.1300  -30.8300   -4.0600 N.am      2 ALA2        0.0000 
     57 OD1       -17.3800  -33.0400  -13.9100 O.co2     3 ASP3        0.0000 
     58 NZ        -12.8100  -29.5700   -6.8200 N.4       4 LYS4        0.0000 
     59 NZ        -13.9200  -29.9900   -5.9000 N.4       4 LYS4        0.0000 
     60 NZ        -14.2300  -31.6200   -4.5800 N.4       4 LYS4        0.0000 
     61 NZ        -15.0200  -30.4100   -4.9800 N.4       4 LYS4        0.0000 
     62 NZ        -13.6000  -30.8400   -3.4600 N.4       4 LYS4        0.0000 
     63 NZ        -14.3900  -29.6300   -3.8600 N.4       4 LYS4        0.0000 
     64 CZ        -15.3400  -32.0400   -3.6600 C.ar      5 PHE5        0.0000 
     65 CZ        -13.7600  -26.3700   -6.5000 C.ar      5 PHE5        0.0000 
     66 CZ        -13.9200  -32.4700   -2.1400 C.ar      5 PHE5        0.0000 
     67 CZ        -15.5000  -30.0500   -2.9400 C.ar      5 PHE5        0.0000 
     68 CA        -16.2800  -35.1000  -11.0700 C.3       6 GLY6        0.0000 
     69 CA        -18.1800  -34.3100  -10.5500 C.3       6 GLY6        0.0000 
     70 CA        -16.1200  -31.4800  -11.6800 C.3       6 GLY6        0.0000 
     71 CA        -14.8600  -35.5300   -9.5600 C.3       6 GLY6        0.0000 
     72 CA        -15.6500  -34.3200   -9.9600 C.3       6 GLY6        0.0000 
     73 CA        -16.7600  -34.7400   -9.0400 C.3       6 GLY6        0.0000 
     74 CA        -17.5500  -33.5300   -9.4400 C.3       6 GLY6        0.0000 
     75 CA        -19.7600  -34.3700   -7.6000 C.3       6 GLY6        0.0000 
     76 CA        -15.4900  -30.7000  -10.5600 C.3       6 GLY6        0.0000 
     77 CA        -16.1300  -33.9600   -7.9200 C.3       6 GLY6        0.0000 
     78 CA        -14.5500  -33.2500   -3.2600 C.3       6 GLY6        0.0000 
     79 CA        -16.9200  -29.6200   -4.4600 C.3       6 GLY6        0.0000 
     80 CA        -14.8700  -34.8800   -1.9400 C.3       6 GLY6        0.0000 
     81 CA        -15.9800  -35.3000   -1.0200 C.3       6 GLY6        0.0000 
     82 CA        -16.2900  -28.8400   -3.3400 C.3       6 GLY6        0.0000 
     83 CA        -14.2400  -34.1000   -0.8200 C.3       6 GLY6        0.0000 
     84 DU        -16.7500  -32.2600  -12.7900 H         7 CUB7        0.0000 
     85 DU        -17.0700  -33.8900  -11.4700 H         7 CUB7        0.0000 
     86 DU        -16.4400  -33.1100  -10.3600 H         7 CUB7        0.0000 
     87 DU        -15.8100  -32.3300   -9.2400 H         7 CUB7        0.0000 
     88 DU        -16.9200  -32.7500   -8.3200 H         7 CUB7        0.0000 
     89 DU        -18.0200  -33.1700   -7.4000 H         7 CUB7        0.0000 
     90 DU        -16.2900  -31.9700   -7.2100 H         7 CUB7        0.0000 
     91 DU        -15.6600  -31.1900   -6.0900 H         7 CUB7        0.0000 
     92 DU        -15.9700  -32.8200   -4.7700 H         7 CUB7        0.0000 
@<TRIPOS>BOND
@<TRIPOS>SUBSTRUCTURE
     1 SER1        1 GROUP   
     2 ALA2       25 GROUP   
     3 ASP3       57 GROUP   
     4 LYS4       58 GROUP   
     5 PHE5       64 GROUP   
     6 GLY6       68 GROUP   
     7 CUB7       84 GROUP   
@<TRIPOS>SET

