#    Name: 6o2y_2_NAP_CAVITY_N1_6
#    Modification time : Fri May 22 19:27:45 2020

@<TRIPOS>MOLECULE
6o2y_2_NAP_CAVITY_N1_6
  120     0     7     0     0
SMALL
NO_CHARGES


@<TRIPOS>ATOM
      1 OG        -41.0100  -15.3000   41.5300 O.3       1 SER1        0.0000 
      2 OG        -44.9700   -9.2400   39.5300 O.3       1 SER1        0.0000 
      3 OG        -45.7600   -8.0300   39.1300 O.3       1 SER1        0.0000 
      4 OG        -44.3400   -8.4600   40.6500 O.3       1 SER1        0.0000 
      5 OG        -45.1300   -7.2500   40.2500 O.3       1 SER1        0.0000 
      6 OG        -45.4400   -8.8800   41.5700 O.3       1 SER1        0.0000 
      7 OG        -44.0200   -9.3100   43.0800 O.3       1 SER1        0.0000 
      8 OG        -44.8100   -8.1000   42.6800 O.3       1 SER1        0.0000 
      9 O         -44.4900   -7.1300   33.7400 O.2       2 ALA2        0.0000 
     10 N         -44.3300  -11.6000   36.7800 N.am      2 ALA2        0.0000 
     11 N         -45.9100   -9.1700   35.9800 N.am      2 ALA2        0.0000 
     12 N         -46.7000   -7.9600   35.5800 N.am      2 ALA2        0.0000 
     13 N         -44.6500  -13.2300   38.1000 N.am      2 ALA2        0.0000 
     14 O         -45.4400  -12.0200   37.7000 O.2       2 ALA2        0.0000 
     15 N         -46.2300  -10.8000   37.3000 N.am      2 ALA2        0.0000 
     16 O         -41.4800   -9.9800   36.0500 O.2       2 ALA2        0.0000 
     17 N         -42.9100  -12.0300   38.2900 N.am      2 ALA2        0.0000 
     18 N         -43.7000  -10.8200   37.8900 N.am      2 ALA2        0.0000 
     19 N         -45.2800   -8.3900   37.1000 N.am      2 ALA2        0.0000 
     20 O         -46.0700   -7.1800   36.7000 O.2       2 ALA2        0.0000 
     21 O         -46.8600   -5.9700   36.3000 O.2       2 ALA2        0.0000 
     22 N         -47.6500   -4.7600   35.9000 N.am      2 ALA2        0.0000 
     23 N         -42.4400  -14.8700   40.0100 N.am      2 ALA2        0.0000 
     24 N         -43.2300  -13.6600   39.6100 N.am      2 ALA2        0.0000 
     25 N         -44.0200  -12.4500   39.2100 N.am      2 ALA2        0.0000 
     26 N         -44.8100  -11.2400   38.8100 N.am      2 ALA2        0.0000 
     27 N         -45.6000  -10.0200   38.4200 N.am      2 ALA2        0.0000 
     28 O         -44.3300  -14.0800   40.5300 O.2       2 ALA2        0.0000 
     29 N         -46.7100  -10.4400   39.3400 N.am      2 ALA2        0.0000 
     30 N         -40.0600  -10.4100   37.5700 N.am      2 ALA2        0.0000 
     31 O         -40.8500   -9.2000   37.1700 O.2       2 ALA2        0.0000 
     32 O         -41.6400   -7.9900   36.7700 O.2       2 ALA2        0.0000 
     33 O         -42.4300   -6.7800   36.3700 O.2       2 ALA2        0.0000 
     34 N         -41.1700  -10.8300   38.4900 N.am      2 ALA2        0.0000 
     35 O         -41.9600   -9.6200   38.0900 O.2       2 ALA2        0.0000 
     36 O         -42.7500   -8.4100   37.6900 O.2       2 ALA2        0.0000 
     37 N         -45.1200   -4.7700   36.4900 N.am      2 ALA2        0.0000 
     38 N         -45.9100   -3.5600   36.0900 N.am      2 ALA2        0.0000 
     39 N         -40.7000  -13.6700   40.2100 N.am      2 ALA2        0.0000 
     40 N         -41.4900  -12.4600   39.8100 N.am      2 ALA2        0.0000 
     41 N         -42.2800  -11.2500   39.4100 N.am      2 ALA2        0.0000 
     42 N         -46.2300   -5.1900   37.4100 N.am      2 ALA2        0.0000 
     43 N         -43.3900  -11.6700   40.3300 N.am      2 ALA2        0.0000 
     44 N         -44.1800  -10.4600   39.9300 N.am      2 ALA2        0.0000 
     45 O         -43.7000  -13.3000   41.6500 O.2       2 ALA2        0.0000 
     46 N         -46.0700   -9.6600   40.4500 N.am      2 ALA2        0.0000 
     47 N         -40.5400  -10.0500   39.6000 N.am      2 ALA2        0.0000 
     48 O         -42.9100   -6.4200   38.4100 O.2       2 ALA2        0.0000 
     49 N         -45.2800   -2.7800   37.2100 N.am      2 ALA2        0.0000 
     50 O         -41.6500  -10.4700   40.5200 O.2       2 ALA2        0.0000 
     51 O         -42.4400   -9.2600   40.1200 O.2       2 ALA2        0.0000 
     52 O         -43.2300   -8.0500   39.7300 O.2       2 ALA2        0.0000 
     53 N         -45.6000   -4.4100   38.5300 N.am      2 ALA2        0.0000 
     54 N         -43.8600  -11.3100   42.3600 N.am      2 ALA2        0.0000 
     55 N         -44.6500  -10.0900   41.9700 N.am      2 ALA2        0.0000 
     56 O         -42.2800   -5.6300   39.5200 O.2       2 ALA2        0.0000 
     57 N         -41.0200   -9.6900   41.6400 N.am      2 ALA2        0.0000 
     58 O         -41.8100   -8.4800   41.2400 O.2       2 ALA2        0.0000 
     59 O         -42.6000   -7.2700   40.8400 O.2       2 ALA2        0.0000 
     60 O         -43.3900   -6.0500   40.4400 O.2       2 ALA2        0.0000 
     61 O         -41.1800   -7.7000   42.3500 O.2       2 ALA2        0.0000 
     62 O         -41.9700   -6.4900   41.9600 O.2       2 ALA2        0.0000 
     63 O         -42.7600   -5.2700   41.5600 O.2       2 ALA2        0.0000 
     64 OD1       -44.9600   -4.2800   32.0200 O.co2     3 ASP3        0.0000 
     65 OD1       -45.2800   -5.9100   33.3400 O.co2     3 ASP3        0.0000 
     66 OD1       -46.0700   -4.7000   32.9400 O.co2     3 ASP3        0.0000 
     67 OD1       -46.3800   -6.3300   34.2600 O.co2     3 ASP3        0.0000 
     68 OD1       -47.1700   -5.1200   33.8600 O.co2     3 ASP3        0.0000 
     69 OD1       -45.4400   -3.9200   34.0600 O.co2     3 ASP3        0.0000 
     70 OD1       -46.2300   -2.7100   33.6600 O.co2     3 ASP3        0.0000 
     71 OD1       -46.5400   -4.3400   34.9800 O.co2     3 ASP3        0.0000 
     72 OD1       -47.3300   -3.1300   34.5800 O.co2     3 ASP3        0.0000 
     73 NZ        -45.6000   -1.9300   34.7700 N.4       4 LYS4        0.0000 
     74 NZ        -46.7000   -2.3500   35.6900 N.4       4 LYS4        0.0000 
     75 NZ        -42.9100  -14.5100   42.0500 N.4       4 LYS4        0.0000 
     76 NZ        -40.3900   -8.9100   42.7500 N.4       4 LYS4        0.0000 
     77 CZ        -42.2800  -13.7300   43.1600 C.ar      5 PHE5        0.0000 
     78 CZ        -41.3300  -11.3200   42.9600 C.ar      5 PHE5        0.0000 
     79 CZ        -43.2300  -10.5300   43.4800 C.ar      5 PHE5        0.0000 
     80 CA        -43.7000   -8.3400   34.1400 C.3       6 GLY6        0.0000 
     81 CA        -44.8000   -8.7600   35.0600 C.3       6 GLY6        0.0000 
     82 CA        -45.1200  -10.3900   36.3800 C.3       6 GLY6        0.0000 
     83 CA        -47.4900   -6.7500   35.1800 C.3       6 GLY6        0.0000 
     84 CA        -39.5900  -10.7700   35.5300 C.3       6 GLY6        0.0000 
     85 CA        -41.1700   -8.3500   34.7300 C.3       6 GLY6        0.0000 
     86 CA        -42.2700   -8.7700   35.6500 C.3       6 GLY6        0.0000 
     87 CA        -43.0600   -7.5600   35.2500 C.3       6 GLY6        0.0000 
     88 CA        -42.5900  -10.4000   36.9700 C.3       6 GLY6        0.0000 
     89 CA        -43.3800   -9.1900   36.5700 C.3       6 GLY6        0.0000 
     90 CA        -44.1700   -7.9800   36.1700 C.3       6 GLY6        0.0000 
     91 CA        -44.4900   -9.6100   37.4900 C.3       6 GLY6        0.0000 
     92 CA        -39.7500   -8.7800   36.2500 C.3       6 GLY6        0.0000 
     93 CA        -39.9100  -14.8800   40.6100 C.3       6 GLY6        0.0000 
     94 CA        -44.6500   -7.6100   38.2100 C.3       6 GLY6        0.0000 
     95 CA        -45.4400   -6.4000   37.8100 C.3       6 GLY6        0.0000 
     96 CA        -41.8100  -14.0900   41.1300 C.3       6 GLY6        0.0000 
     97 CA        -40.0700  -12.8900   41.3200 C.3       6 GLY6        0.0000 
     98 CA        -40.8600  -11.6800   40.9200 C.3       6 GLY6        0.0000 
     99 CA        -44.0200   -6.8300   39.3300 C.3       6 GLY6        0.0000 
    100 CA        -44.8100   -5.6200   38.9300 C.3       6 GLY6        0.0000 
    101 CA        -43.0700  -12.5200   42.7600 C.3       6 GLY6        0.0000 
    102 CA        -40.2300  -10.9000   42.0400 C.3       6 GLY6        0.0000 
    103 CA        -45.6000   -6.8900   42.2800 C.3       6 GLY6        0.0000 
    104 DU        -43.8500   -6.3400   34.8600 H         7 CUB7        0.0000 
    105 DU        -44.6500   -5.1300   34.4600 H         7 CUB7        0.0000 
    106 DU        -44.9600   -6.7600   35.7800 H         7 CUB7        0.0000 
    107 DU        -45.7500   -5.5500   35.3800 H         7 CUB7        0.0000 
    108 DU        -44.8000   -3.1400   35.1700 H         7 CUB7        0.0000 
    109 DU        -43.5400   -7.2000   37.2900 H         7 CUB7        0.0000 
    110 DU        -44.3300   -5.9800   36.8900 H         7 CUB7        0.0000 
    111 DU        -43.0700  -10.0400   39.0100 H         7 CUB7        0.0000 
    112 DU        -43.8600   -8.8300   38.6100 H         7 CUB7        0.0000 
    113 DU        -42.6000  -12.8800   40.7300 H         7 CUB7        0.0000 
    114 DU        -41.1700  -13.3100   42.2400 H         7 CUB7        0.0000 
    115 DU        -41.9600  -12.1000   41.8400 H         7 CUB7        0.0000 
    116 DU        -42.7500  -10.8900   41.4400 H         7 CUB7        0.0000 
    117 DU        -43.5500   -9.6800   41.0400 H         7 CUB7        0.0000 
    118 DU        -42.1200  -10.1100   42.5600 H         7 CUB7        0.0000 
    119 DU        -42.9100   -8.9000   42.1600 H         7 CUB7        0.0000 
    120 DU        -43.7000   -7.6800   41.7600 H         7 CUB7        0.0000 
@<TRIPOS>BOND
@<TRIPOS>SUBSTRUCTURE
     1 SER1        1 GROUP   
     2 ALA2        9 GROUP   
     3 ASP3       64 GROUP   
     4 LYS4       73 GROUP   
     5 PHE5       77 GROUP   
     6 GLY6       80 GROUP   
     7 CUB7      104 GROUP   
@<TRIPOS>SET

