#    Name: 6o2y_1_NAP
#    Modification time : Fri May 22 19:27:28 2020

@<TRIPOS>MOLECULE
6o2y_1_NAP
   48    52     1     0     1
SMALL
NO_CHARGES


@<TRIPOS>ATOM
      1 PA         -7.9230  -10.9270   50.1600 P.3       1 NAP501      0.0000 
      2 O1A        -8.6520  -10.1940   49.0580 O.co2     1 NAP501      0.0000 
      3 O2A        -6.5760  -10.4350   50.6030 O.co2     1 NAP501      0.0000 
      4 O5B        -7.7100  -12.4580   49.7460 O.3       1 NAP501      0.0000 
      5 C5B        -8.8020  -13.2790   49.3590 C.3       1 NAP501      0.0000 
      6 C4B        -8.3810  -14.2140   48.2350 C.3       1 NAP501      0.0000 
      7 O4B        -8.6190  -13.6180   46.9500 O.3       1 NAP501      0.0000 
      8 C3B        -6.9100  -14.6150   48.2290 C.3       1 NAP501      0.0000 
      9 O3B        -6.6710  -15.6950   49.1420 O.3       1 NAP501      0.0000 
     10 C2B        -6.7120  -14.9530   46.7680 C.3       1 NAP501      0.0000 
     11 O2B        -7.3180  -16.2000   46.4600 O.3       1 NAP501      0.0000 
     12 C1B        -7.5380  -13.9070   46.0610 C.3       1 NAP501      0.0000 
     13 N9A        -6.7770  -12.6730   45.8020 N.pl3     1 NAP501      0.0000 
     14 C8A        -7.0240  -11.4790   46.3570 C.2       1 NAP501      0.0000 
     15 N7A        -6.1530  -10.5480   45.9050 N.2       1 NAP501      0.0000 
     16 C5A        -5.3470  -11.1470   45.0340 C.ar      1 NAP501      0.0000 
     17 C6A        -4.2220  -10.7160   44.2040 C.ar      1 NAP501      0.0000 
     18 N6A        -3.8050   -9.4280   44.2460 N.pl3     1 NAP501      0.0000 
     19 N1A        -3.6400  -11.6520   43.4200 N.ar      1 NAP501      0.0000 
     20 C2A        -4.0640  -12.9350   43.3920 C.ar      1 NAP501      0.0000 
     21 N3A        -5.0890  -13.3850   44.1390 N.ar      1 NAP501      0.0000 
     22 C4A        -5.7570  -12.5490   44.9620 C.ar      1 NAP501      0.0000 
     23 O3         -8.9700  -10.9880   51.3790 O.3       1 NAP501      0.0000 
     24 PN         -8.7820  -11.8220   52.7440 P.3       1 NAP501      0.0000 
     25 O1N       -10.1830  -12.0180   53.2600 O.co2     1 NAP501      0.0000 
     26 O2N        -7.8310  -12.9870   52.5870 O.co2     1 NAP501      0.0000 
     27 O5D        -8.1050  -10.6770   53.6380 O.3       1 NAP501      0.0000 
     28 C5D        -6.7220  -10.6580   53.9710 C.3       1 NAP501      0.0000 
     29 C4D        -6.4590   -9.4490   54.8610 C.3       1 NAP501      0.0000 
     30 O4D        -6.6060   -8.2350   54.1090 O.3       1 NAP501      0.0000 
     31 C3D        -7.4020   -9.3450   56.0600 C.3       1 NAP501      0.0000 
     32 O3D        -6.6490   -8.9790   57.2290 O.3       1 NAP501      0.0000 
     33 C2D        -8.4030   -8.2830   55.6560 C.3       1 NAP501      0.0000 
     34 O2D        -8.9600   -7.5860   56.7770 O.3       1 NAP501      0.0000 
     35 C1D        -7.5640   -7.3810   54.7460 C.3       1 NAP501      0.0000 
     36 N1N        -8.3060   -6.5660   53.7510 N.pl3     1 NAP501      0.0000 
     37 C2N        -7.8490   -5.3160   53.5450 C.ar      1 NAP501      0.0000 
     38 C3N        -8.4260   -4.4140   52.6590 C.ar      1 NAP501      0.0000 
     39 C7N        -7.8100   -3.0430   52.5090 C.2       1 NAP501      0.0000 
     40 O7N        -6.6020   -2.9060   52.5980 O.2       1 NAP501      0.0000 
     41 N7N        -8.5590   -1.9700   52.2830 N.am      1 NAP501      0.0000 
     42 C4N        -9.6360   -4.8340   51.8530 C.ar      1 NAP501      0.0000 
     43 C5N       -10.0570   -6.2060   52.1520 C.ar      1 NAP501      0.0000 
     44 C6N        -9.3880   -7.0150   53.0720 C.ar      1 NAP501      0.0000 
     45 P2B        -6.4620  -17.5380   46.2850 P.3       1 NAP501      0.0000 
     46 O1X        -5.6230  -17.2400   45.0650 O.co2     1 NAP501      0.0000 
     47 O2X        -5.6310  -17.6290   47.5350 O.co2     1 NAP501      0.0000 
     48 O3X        -7.5350  -18.5910   46.2070 O.co2     1 NAP501      0.0000 
@<TRIPOS>BOND
     1    1    2 ar   
     2    1    3 ar   
     3    1    4 1    
     4    1   23 1    
     5    4    5 1    
     6    5    6 1    
     7    6    7 1    
     8    6    8 1    
     9    7   12 1    
    10    8    9 1    
    11    8   10 1    
    12   10   11 1    
    13   10   12 1    
    14   11   45 1    
    15   12   13 1    
    16   13   14 1    
    17   13   22 1    
    18   14   15 2    
    19   15   16 1    
    20   16   17 ar   
    21   16   22 ar   
    22   17   18 1    
    23   17   19 ar   
    24   19   20 ar   
    25   20   21 ar   
    26   21   22 ar   
    27   23   24 1    
    28   24   25 ar   
    29   24   26 ar   
    30   24   27 1    
    31   27   28 1    
    32   28   29 1    
    33   29   30 1    
    34   29   31 1    
    35   30   35 1    
    36   31   32 1    
    37   31   33 1    
    38   33   34 1    
    39   33   35 1    
    40   35   36 1    
    41   36   37 ar   
    42   36   44 ar   
    43   37   38 ar   
    44   38   39 1    
    45   38   42 ar   
    46   39   40 2    
    47   39   41 am   
    48   42   43 ar   
    49   43   44 ar   
    50   45   46 ar   
    51   45   47 ar   
    52   45   48 ar   
@<TRIPOS>SUBSTRUCTURE
     1 NAP501      1 GROUP   
@<TRIPOS>SET
ATOM$ORANGE STATIC     ATOMS   COLORGROUP SYSTEM 
42 5 5 6 6 8 8 10 10 12 12 14 14 16 16 17 17 20 \
20 22 22 28 28 29 29 31 31 33 33 35 35 37 37 38 38 39 \
39 42 42 43 43 44 44 

