#    Name: 6o2y_2_NAP_CAVITY_N1_4
#    Modification time : Fri May 22 19:27:45 2020

@<TRIPOS>MOLECULE
6o2y_2_NAP_CAVITY_N1_4
   89     0     6     0     0
SMALL
NO_CHARGES


@<TRIPOS>ATOM
      1 OG        -44.9700   -9.2400   39.5300 O.3       1 SER1        0.0000 
      2 OG        -45.7600   -8.0300   39.1300 O.3       1 SER1        0.0000 
      3 OG        -44.3400   -8.4600   40.6500 O.3       1 SER1        0.0000 
      4 OG        -45.1300   -7.2500   40.2500 O.3       1 SER1        0.0000 
      5 O         -44.4900   -7.1300   33.7400 O.2       2 ALA2        0.0000 
      6 N         -44.3300  -11.6000   36.7800 N.am      2 ALA2        0.0000 
      7 N         -45.9100   -9.1700   35.9800 N.am      2 ALA2        0.0000 
      8 N         -46.7000   -7.9600   35.5800 N.am      2 ALA2        0.0000 
      9 N         -44.6500  -13.2300   38.1000 N.am      2 ALA2        0.0000 
     10 O         -45.4400  -12.0200   37.7000 O.2       2 ALA2        0.0000 
     11 N         -46.2300  -10.8000   37.3000 N.am      2 ALA2        0.0000 
     12 O         -41.4800   -9.9800   36.0500 O.2       2 ALA2        0.0000 
     13 N         -42.9100  -12.0300   38.2900 N.am      2 ALA2        0.0000 
     14 N         -43.7000  -10.8200   37.8900 N.am      2 ALA2        0.0000 
     15 N         -45.2800   -8.3900   37.1000 N.am      2 ALA2        0.0000 
     16 O         -46.0700   -7.1800   36.7000 O.2       2 ALA2        0.0000 
     17 O         -46.8600   -5.9700   36.3000 O.2       2 ALA2        0.0000 
     18 N         -47.6500   -4.7600   35.9000 N.am      2 ALA2        0.0000 
     19 N         -42.4400  -14.8700   40.0100 N.am      2 ALA2        0.0000 
     20 N         -43.2300  -13.6600   39.6100 N.am      2 ALA2        0.0000 
     21 N         -44.0200  -12.4500   39.2100 N.am      2 ALA2        0.0000 
     22 N         -44.8100  -11.2400   38.8100 N.am      2 ALA2        0.0000 
     23 N         -45.6000  -10.0200   38.4200 N.am      2 ALA2        0.0000 
     24 O         -44.3300  -14.0800   40.5300 O.2       2 ALA2        0.0000 
     25 N         -46.7100  -10.4400   39.3400 N.am      2 ALA2        0.0000 
     26 N         -40.0600  -10.4100   37.5700 N.am      2 ALA2        0.0000 
     27 O         -40.8500   -9.2000   37.1700 O.2       2 ALA2        0.0000 
     28 O         -41.6400   -7.9900   36.7700 O.2       2 ALA2        0.0000 
     29 O         -42.4300   -6.7800   36.3700 O.2       2 ALA2        0.0000 
     30 N         -41.1700  -10.8300   38.4900 N.am      2 ALA2        0.0000 
     31 O         -41.9600   -9.6200   38.0900 O.2       2 ALA2        0.0000 
     32 O         -42.7500   -8.4100   37.6900 O.2       2 ALA2        0.0000 
     33 N         -45.1200   -4.7700   36.4900 N.am      2 ALA2        0.0000 
     34 N         -45.9100   -3.5600   36.0900 N.am      2 ALA2        0.0000 
     35 N         -41.4900  -12.4600   39.8100 N.am      2 ALA2        0.0000 
     36 N         -42.2800  -11.2500   39.4100 N.am      2 ALA2        0.0000 
     37 N         -46.2300   -5.1900   37.4100 N.am      2 ALA2        0.0000 
     38 N         -43.3900  -11.6700   40.3300 N.am      2 ALA2        0.0000 
     39 N         -44.1800  -10.4600   39.9300 N.am      2 ALA2        0.0000 
     40 O         -43.7000  -13.3000   41.6500 O.2       2 ALA2        0.0000 
     41 N         -46.0700   -9.6600   40.4500 N.am      2 ALA2        0.0000 
     42 N         -40.5400  -10.0500   39.6000 N.am      2 ALA2        0.0000 
     43 O         -42.9100   -6.4200   38.4100 O.2       2 ALA2        0.0000 
     44 N         -45.2800   -2.7800   37.2100 N.am      2 ALA2        0.0000 
     45 O         -41.6500  -10.4700   40.5200 O.2       2 ALA2        0.0000 
     46 O         -42.4400   -9.2600   40.1200 O.2       2 ALA2        0.0000 
     47 O         -43.2300   -8.0500   39.7300 O.2       2 ALA2        0.0000 
     48 N         -45.6000   -4.4100   38.5300 N.am      2 ALA2        0.0000 
     49 OD1       -44.9600   -4.2800   32.0200 O.co2     3 ASP3        0.0000 
     50 OD1       -45.2800   -5.9100   33.3400 O.co2     3 ASP3        0.0000 
     51 OD1       -46.0700   -4.7000   32.9400 O.co2     3 ASP3        0.0000 
     52 OD1       -46.3800   -6.3300   34.2600 O.co2     3 ASP3        0.0000 
     53 OD1       -47.1700   -5.1200   33.8600 O.co2     3 ASP3        0.0000 
     54 OD1       -45.4400   -3.9200   34.0600 O.co2     3 ASP3        0.0000 
     55 OD1       -46.2300   -2.7100   33.6600 O.co2     3 ASP3        0.0000 
     56 OD1       -46.5400   -4.3400   34.9800 O.co2     3 ASP3        0.0000 
     57 OD1       -47.3300   -3.1300   34.5800 O.co2     3 ASP3        0.0000 
     58 NZ        -45.6000   -1.9300   34.7700 N.4       4 LYS4        0.0000 
     59 NZ        -46.7000   -2.3500   35.6900 N.4       4 LYS4        0.0000 
     60 CA        -43.7000   -8.3400   34.1400 C.3       5 GLY6        0.0000 
     61 CA        -44.8000   -8.7600   35.0600 C.3       5 GLY6        0.0000 
     62 CA        -45.1200  -10.3900   36.3800 C.3       5 GLY6        0.0000 
     63 CA        -47.4900   -6.7500   35.1800 C.3       5 GLY6        0.0000 
     64 CA        -39.5900  -10.7700   35.5300 C.3       5 GLY6        0.0000 
     65 CA        -41.1700   -8.3500   34.7300 C.3       5 GLY6        0.0000 
     66 CA        -42.2700   -8.7700   35.6500 C.3       5 GLY6        0.0000 
     67 CA        -43.0600   -7.5600   35.2500 C.3       5 GLY6        0.0000 
     68 CA        -42.5900  -10.4000   36.9700 C.3       5 GLY6        0.0000 
     69 CA        -43.3800   -9.1900   36.5700 C.3       5 GLY6        0.0000 
     70 CA        -44.1700   -7.9800   36.1700 C.3       5 GLY6        0.0000 
     71 CA        -44.4900   -9.6100   37.4900 C.3       5 GLY6        0.0000 
     72 CA        -39.7500   -8.7800   36.2500 C.3       5 GLY6        0.0000 
     73 CA        -44.6500   -7.6100   38.2100 C.3       5 GLY6        0.0000 
     74 CA        -45.4400   -6.4000   37.8100 C.3       5 GLY6        0.0000 
     75 CA        -40.8600  -11.6800   40.9200 C.3       5 GLY6        0.0000 
     76 CA        -44.0200   -6.8300   39.3300 C.3       5 GLY6        0.0000 
     77 CA        -44.8100   -5.6200   38.9300 C.3       5 GLY6        0.0000 
     78 DU        -43.8500   -6.3400   34.8600 H         6 CUB7        0.0000 
     79 DU        -44.6500   -5.1300   34.4600 H         6 CUB7        0.0000 
     80 DU        -44.9600   -6.7600   35.7800 H         6 CUB7        0.0000 
     81 DU        -45.7500   -5.5500   35.3800 H         6 CUB7        0.0000 
     82 DU        -44.8000   -3.1400   35.1700 H         6 CUB7        0.0000 
     83 DU        -43.5400   -7.2000   37.2900 H         6 CUB7        0.0000 
     84 DU        -44.3300   -5.9800   36.8900 H         6 CUB7        0.0000 
     85 DU        -43.0700  -10.0400   39.0100 H         6 CUB7        0.0000 
     86 DU        -43.8600   -8.8300   38.6100 H         6 CUB7        0.0000 
     87 DU        -42.6000  -12.8800   40.7300 H         6 CUB7        0.0000 
     88 DU        -42.7500  -10.8900   41.4400 H         6 CUB7        0.0000 
     89 DU        -43.5500   -9.6800   41.0400 H         6 CUB7        0.0000 
@<TRIPOS>BOND
@<TRIPOS>SUBSTRUCTURE
     1 SER1        1 GROUP   
     2 ALA2        5 GROUP   
     3 ASP3       49 GROUP   
     4 LYS4       58 GROUP   
     5 GLY6       60 GROUP   
     6 CUB7       78 GROUP   
@<TRIPOS>SET

