#    Name: 6o2y_3_NAP
#    Modification time : Fri May 22 19:27:51 2020

@<TRIPOS>MOLECULE
6o2y_3_NAP
   48    52     1     0     1
SMALL
NO_CHARGES


@<TRIPOS>ATOM
      1 PA        -15.5290  -39.2280  -11.2450 P.3       1 NAP501      0.0000 
      2 O1A       -14.6170  -38.5940  -10.2260 O.co2     1 NAP501      0.0000 
      3 O2A       -16.9400  -39.5730  -10.8570 O.co2     1 NAP501      0.0000 
      4 O5B       -14.8300  -40.5740  -11.7370 O.3       1 NAP501      0.0000 
      5 C5B       -13.5680  -40.5370  -12.3880 C.3       1 NAP501      0.0000 
      6 C4B       -13.1570  -41.9780  -12.5370 C.3       1 NAP501      0.0000 
      7 O4B       -13.1960  -42.6230  -11.2640 O.3       1 NAP501      0.0000 
      8 C3B       -14.1140  -42.7300  -13.4490 C.3       1 NAP501      0.0000 
      9 O3B       -13.6400  -42.6990  -14.8020 O.3       1 NAP501      0.0000 
     10 C2B       -14.1740  -44.1100  -12.8190 C.3       1 NAP501      0.0000 
     11 O2B       -13.1670  -44.9560  -13.3600 O.3       1 NAP501      0.0000 
     12 C1B       -13.8780  -43.8790  -11.3400 C.3       1 NAP501      0.0000 
     13 N9A       -15.1280  -43.8780  -10.5280 N.pl3     1 NAP501      0.0000 
     14 C8A       -15.6900  -42.8310   -9.8670 C.2       1 NAP501      0.0000 
     15 N7A       -16.8290  -43.2040   -9.2300 N.2       1 NAP501      0.0000 
     16 C5A       -16.9960  -44.5080   -9.4870 C.ar      1 NAP501      0.0000 
     17 C6A       -17.9970  -45.5170   -9.1230 C.ar      1 NAP501      0.0000 
     18 N6A       -19.0360  -45.1380   -8.3460 N.pl3     1 NAP501      0.0000 
     19 N1A       -17.8370  -46.7830   -9.5880 N.ar      1 NAP501      0.0000 
     20 C2A       -16.7880  -47.1270  -10.3650 C.ar      1 NAP501      0.0000 
     21 N3A       -15.8380  -46.2380  -10.7330 N.ar      1 NAP501      0.0000 
     22 C4A       -15.8860  -44.9500  -10.3300 C.ar      1 NAP501      0.0000 
     23 O3        -15.5090  -38.4490  -12.6460 O.3       1 NAP501      0.0000 
     24 PN        -14.8480  -37.0110  -12.8380 P.3       1 NAP501      0.0000 
     25 O1N       -13.9760  -36.6200  -11.6730 O.co2     1 NAP501      0.0000 
     26 O2N       -14.2570  -36.9710  -14.2220 O.co2     1 NAP501      0.0000 
     27 O5D       -16.1860  -36.1300  -12.7370 O.3       1 NAP501      0.0000 
     28 C5D       -16.4430  -35.1090  -13.6910 C.3       1 NAP501      0.0000 
     29 C4D       -17.4190  -34.0980  -13.1110 C.3       1 NAP501      0.0000 
     30 O4D       -17.8410  -34.5440  -11.8150 O.3       1 NAP501      0.0000 
     31 C3D       -16.7990  -32.7060  -12.9830 C.3       1 NAP501      0.0000 
     32 O3D       -17.4230  -31.7610  -13.8680 O.3       1 NAP501      0.0000 
     33 C2D       -16.9670  -32.3570  -11.5170 C.3       1 NAP501      0.0000 
     34 O2D       -17.5370  -31.0670  -11.3500 O.3       1 NAP501      0.0000 
     35 C1D       -17.8990  -33.4160  -10.9380 C.3       1 NAP501      0.0000 
     36 N1N       -17.5770  -33.7300   -9.5240 N.pl3     1 NAP501      0.0000 
     37 C2N       -18.5080  -33.4310   -8.5990 C.ar      1 NAP501      0.0000 
     38 C3N       -18.3420  -33.6710   -7.2400 C.ar      1 NAP501      0.0000 
     39 C7N       -19.4810  -33.2860   -6.3350 C.2       1 NAP501      0.0000 
     40 O7N       -20.0190  -32.1920   -6.4730 O.2       1 NAP501      0.0000 
     41 N7N       -19.9070  -34.1540   -5.4170 N.am      1 NAP501      0.0000 
     42 C4N       -17.0590  -34.2910   -6.7240 C.ar      1 NAP501      0.0000 
     43 C5N       -16.1170  -34.5790   -7.8120 C.ar      1 NAP501      0.0000 
     44 C6N       -16.4030  -34.2840   -9.1530 C.ar      1 NAP501      0.0000 
     45 P2B       -13.4130  -45.8910  -14.6370 P.3       1 NAP501      0.0000 
     46 O1X       -14.1840  -47.0950  -14.1260 O.co2     1 NAP501      0.0000 
     47 O2X       -12.0160  -46.1970  -15.1110 O.co2     1 NAP501      0.0000 
     48 O3X       -14.1720  -44.9820  -15.5650 O.co2     1 NAP501      0.0000 
@<TRIPOS>BOND
     1    1    2 ar   
     2    1    3 ar   
     3    1    4 1    
     4    1   23 1    
     5    4    5 1    
     6    5    6 1    
     7    6    7 1    
     8    6    8 1    
     9    7   12 1    
    10    8    9 1    
    11    8   10 1    
    12   10   11 1    
    13   10   12 1    
    14   11   45 1    
    15   12   13 1    
    16   13   14 1    
    17   13   22 1    
    18   14   15 2    
    19   15   16 1    
    20   16   17 ar   
    21   16   22 ar   
    22   17   18 1    
    23   17   19 ar   
    24   19   20 ar   
    25   20   21 ar   
    26   21   22 ar   
    27   23   24 1    
    28   24   25 ar   
    29   24   26 ar   
    30   24   27 1    
    31   27   28 1    
    32   28   29 1    
    33   29   30 1    
    34   29   31 1    
    35   30   35 1    
    36   31   32 1    
    37   31   33 1    
    38   33   34 1    
    39   33   35 1    
    40   35   36 1    
    41   36   37 ar   
    42   36   44 ar   
    43   37   38 ar   
    44   38   39 1    
    45   38   42 ar   
    46   39   40 2    
    47   39   41 am   
    48   42   43 ar   
    49   43   44 ar   
    50   45   46 ar   
    51   45   47 ar   
    52   45   48 ar   
@<TRIPOS>SUBSTRUCTURE
     1 NAP501      1 GROUP   
@<TRIPOS>SET
ATOM$ORANGE STATIC     ATOMS   COLORGROUP SYSTEM 
42 5 5 6 6 8 8 10 10 12 12 14 14 16 16 17 17 20 \
20 22 22 28 28 29 29 31 31 33 33 35 35 37 37 38 38 39 \
39 42 42 43 43 44 44 

