#    Name: 6o2y_2_NAP
#    Modification time : Fri May 22 19:27:43 2020

@<TRIPOS>MOLECULE
6o2y_2_NAP
   48    52     1     0     1
SMALL
NO_CHARGES


@<TRIPOS>ATOM
      1 PA        -41.0840   -9.0070   31.7870 P.3       1 NAP501      0.0000 
      2 O1A       -40.7850  -10.1830   32.6700 O.co2     1 NAP501      0.0000 
      3 O2A       -42.3760   -8.9670   31.0360 O.co2     1 NAP501      0.0000 
      4 O5B       -39.8320   -9.0270   30.7870 O.3       1 NAP501      0.0000 
      5 C5B       -39.3490   -7.8940   30.0910 C.3       1 NAP501      0.0000 
      6 C4B       -38.3290   -8.3550   29.0720 C.3       1 NAP501      0.0000 
      7 O4B       -37.6390   -9.5430   29.4620 O.3       1 NAP501      0.0000 
      8 C3B       -39.0120   -8.7020   27.7730 C.3       1 NAP501      0.0000 
      9 O3B       -39.2100   -7.5060   27.0190 O.3       1 NAP501      0.0000 
     10 C2B       -38.0470   -9.7000   27.1800 C.3       1 NAP501      0.0000 
     11 O2B       -36.9530   -9.0130   26.5900 O.3       1 NAP501      0.0000 
     12 C1B       -37.5320  -10.4720   28.3840 C.3       1 NAP501      0.0000 
     13 N9A       -38.3330  -11.6830   28.7020 N.pl3     1 NAP501      0.0000 
     14 C8A       -39.0910  -11.9030   29.8030 C.2       1 NAP501      0.0000 
     15 N7A       -39.6700  -13.1220   29.7570 N.2       1 NAP501      0.0000 
     16 C5A       -39.2920  -13.6980   28.6130 C.ar      1 NAP501      0.0000 
     17 C6A       -39.5480  -14.9830   27.9430 C.ar      1 NAP501      0.0000 
     18 N6A       -40.3460  -15.8950   28.5230 N.pl3     1 NAP501      0.0000 
     19 N1A       -38.9580  -15.2130   26.7520 N.ar      1 NAP501      0.0000 
     20 C2A       -38.1580  -14.2940   26.1740 C.ar      1 NAP501      0.0000 
     21 N3A       -37.8950  -13.0990   26.7320 N.ar      1 NAP501      0.0000 
     22 C4A       -38.4140  -12.7530   27.9270 C.ar      1 NAP501      0.0000 
     23 O3        -40.9530   -7.6160   32.5530 O.3       1 NAP501      0.0000 
     24 PN        -41.7650   -6.3250   32.0900 P.3       1 NAP501      0.0000 
     25 O1N       -41.5040   -5.2000   33.0630 O.co2     1 NAP501      0.0000 
     26 O2N       -41.5690   -6.0680   30.6260 O.co2     1 NAP501      0.0000 
     27 O5D       -43.2950   -6.7500   32.2720 O.3       1 NAP501      0.0000 
     28 C5D       -43.7160   -7.1820   33.5430 C.3       1 NAP501      0.0000 
     29 C4D       -45.1860   -6.8970   33.7540 C.3       1 NAP501      0.0000 
     30 O4D       -45.6990   -8.0080   34.4650 O.3       1 NAP501      0.0000 
     31 C3D       -45.4070   -5.6890   34.6380 C.3       1 NAP501      0.0000 
     32 O3D       -46.6880   -5.0990   34.3830 O.3       1 NAP501      0.0000 
     33 C2D       -45.3240   -6.2570   36.0410 C.3       1 NAP501      0.0000 
     34 O2D       -46.2950   -5.6300   36.8850 O.3       1 NAP501      0.0000 
     35 C1D       -45.6160   -7.7550   35.8750 C.3       1 NAP501      0.0000 
     36 N1N       -44.6840   -8.7380   36.5050 N.pl3     1 NAP501      0.0000 
     37 C2N       -45.2380   -9.8570   37.0180 C.ar      1 NAP501      0.0000 
     38 C3N       -44.5120  -10.8770   37.6250 C.ar      1 NAP501      0.0000 
     39 C7N       -45.2600  -12.0780   38.1600 C.2       1 NAP501      0.0000 
     40 O7N       -46.3670  -11.9200   38.6560 O.2       1 NAP501      0.0000 
     41 N7N       -44.7270  -13.3020   38.0820 N.am      1 NAP501      0.0000 
     42 C4N       -43.0010  -10.7590   37.7380 C.ar      1 NAP501      0.0000 
     43 C5N       -42.5000   -9.5210   37.1470 C.ar      1 NAP501      0.0000 
     44 C6N       -43.3450   -8.5730   36.5630 C.ar      1 NAP501      0.0000 
     45 P2B       -36.9170   -8.5420   25.0580 P.3       1 NAP501      0.0000 
     46 O1X       -38.0770   -7.5910   24.9510 O.co2     1 NAP501      0.0000 
     47 O2X       -37.0530   -9.8350   24.2860 O.co2     1 NAP501      0.0000 
     48 O3X       -35.5770   -7.8600   24.9390 O.co2     1 NAP501      0.0000 
@<TRIPOS>BOND
     1    1    2 ar   
     2    1    3 ar   
     3    1    4 1    
     4    1   23 1    
     5    4    5 1    
     6    5    6 1    
     7    6    7 1    
     8    6    8 1    
     9    7   12 1    
    10    8    9 1    
    11    8   10 1    
    12   10   11 1    
    13   10   12 1    
    14   11   45 1    
    15   12   13 1    
    16   13   14 1    
    17   13   22 1    
    18   14   15 2    
    19   15   16 1    
    20   16   17 ar   
    21   16   22 ar   
    22   17   18 1    
    23   17   19 ar   
    24   19   20 ar   
    25   20   21 ar   
    26   21   22 ar   
    27   23   24 1    
    28   24   25 ar   
    29   24   26 ar   
    30   24   27 1    
    31   27   28 1    
    32   28   29 1    
    33   29   30 1    
    34   29   31 1    
    35   30   35 1    
    36   31   32 1    
    37   31   33 1    
    38   33   34 1    
    39   33   35 1    
    40   35   36 1    
    41   36   37 ar   
    42   36   44 ar   
    43   37   38 ar   
    44   38   39 1    
    45   38   42 ar   
    46   39   40 2    
    47   39   41 am   
    48   42   43 ar   
    49   43   44 ar   
    50   45   46 ar   
    51   45   47 ar   
    52   45   48 ar   
@<TRIPOS>SUBSTRUCTURE
     1 NAP501      1 GROUP   
@<TRIPOS>SET
ATOM$ORANGE STATIC     ATOMS   COLORGROUP SYSTEM 
42 5 5 6 6 8 8 10 10 12 12 14 14 16 16 17 17 20 \
20 22 22 28 28 29 29 31 31 33 33 35 35 37 37 38 38 39 \
39 42 42 43 43 44 44 

