#    Name: 6d5w_1_GNP_CAVITY_N1_6
#    Modification time : Fri May 22 19:28:36 2020

@<TRIPOS>MOLECULE
6d5w_1_GNP_CAVITY_N1_6
   80     0     6     0     0
SMALL
NO_CHARGES


@<TRIPOS>ATOM
      1 N          13.5100   53.0200   63.4800 N.am      1 ALA2        0.0000 
      2 N          13.1800   54.3100   62.7900 N.am      1 ALA2        0.0000 
      3 O          16.7600   59.4100   60.8000 O.2       1 ALA2        0.0000 
      4 O          15.2200   53.9300   64.3500 O.2       1 ALA2        0.0000 
      5 N          13.1200   56.3500   63.3700 N.am      1 ALA2        0.0000 
      6 N          12.3400   53.6100   65.1500 N.am      1 ALA2        0.0000 
      7 N          12.0100   54.9000   64.4600 N.am      1 ALA2        0.0000 
      8 N          11.6800   56.1900   63.7700 N.am      1 ALA2        0.0000 
      9 N          11.3500   57.4800   63.0800 N.am      1 ALA2        0.0000 
     10 N          10.2400   56.0300   64.1700 N.am      1 ALA2        0.0000 
     11 N           9.9100   57.3200   63.4800 N.am      1 ALA2        0.0000 
     12 N           9.5700   58.6100   62.7800 N.am      1 ALA2        0.0000 
     13 O          15.9300   58.7100   63.1600 O.2       1 ALA2        0.0000 
     14 N          13.9900   56.5600   66.6000 N.am      1 ALA2        0.0000 
     15 N          12.5500   56.4000   67.0000 N.am      1 ALA2        0.0000 
     16 OD1        10.0800   60.6000   59.7400 O.co2     2 ASP3        0.0000 
     17 OD1        11.4500   62.8000   59.9200 O.co2     2 ASP3        0.0000 
     18 OD1        10.3500   61.3500   61.0100 O.co2     2 ASP3        0.0000 
     19 OD1        14.3800   53.2300   66.7100 O.co2     2 ASP3        0.0000 
     20 OD1        13.3800   57.1000   64.6400 O.co2     2 ASP3        0.0000 
     21 OD1        13.0500   58.3900   63.9500 O.co2     2 ASP3        0.0000 
     22 OD1        12.7200   59.6800   63.2600 O.co2     2 ASP3        0.0000 
     23 OD1        11.6100   58.2300   64.3500 O.co2     2 ASP3        0.0000 
     24 OD1        11.2800   59.5200   63.6600 O.co2     2 ASP3        0.0000 
     25 OD1        14.9900   52.6900   68.6700 O.co2     2 ASP3        0.0000 
     26 OD1        12.2200   57.6900   66.3100 O.co2     2 ASP3        0.0000 
     27 OD1        11.5500   60.2700   64.9300 O.co2     2 ASP3        0.0000 
     28 OD1        11.2200   61.5600   64.2400 O.co2     2 ASP3        0.0000 
     29 OD1        10.4500   58.8200   66.0200 O.co2     2 ASP3        0.0000 
     30 NZ         13.2200   61.6700   60.2100 N.4       3 LYS4        0.0000 
     31 NZ         15.2600   61.2900   61.7700 N.4       3 LYS4        0.0000 
     32 NZ         13.4900   62.4200   61.4800 N.4       3 LYS4        0.0000 
     33 CZ         10.7400   58.0200   61.1200 C.ar      4 PHE5        0.0000 
     34 CZ         10.4100   59.3100   60.4300 C.ar      4 PHE5        0.0000 
     35 CZ         15.6600   57.9600   61.8800 C.ar      4 PHE5        0.0000 
     36 CZ         15.3200   59.2500   61.1900 C.ar      4 PHE5        0.0000 
     37 CZ         14.2200   57.8000   62.2800 C.ar      4 PHE5        0.0000 
     38 CZ         13.8900   59.0900   61.5900 C.ar      4 PHE5        0.0000 
     39 CZ         13.5500   60.3800   60.9000 C.ar      4 PHE5        0.0000 
     40 CZ         12.7800   57.6400   62.6800 C.ar      4 PHE5        0.0000 
     41 CZ         12.4500   58.9300   61.9900 C.ar      4 PHE5        0.0000 
     42 CZ         12.1200   60.2200   61.3000 C.ar      4 PHE5        0.0000 
     43 CZ         11.0100   58.7700   62.3900 C.ar      4 PHE5        0.0000 
     44 CZ         10.6800   60.0600   61.7000 C.ar      4 PHE5        0.0000 
     45 CZ         12.9500   53.0700   67.1100 C.ar      4 PHE5        0.0000 
     46 CZ         12.6100   54.3600   66.4200 C.ar      4 PHE5        0.0000 
     47 CZ         12.2800   55.6500   65.7300 C.ar      4 PHE5        0.0000 
     48 CZ         10.7800   57.5300   66.7100 C.ar      4 PHE5        0.0000 
     49 CZ          9.3400   57.3800   67.1100 C.ar      4 PHE5        0.0000 
     50 CZ         11.0500   58.2800   67.9800 C.ar      4 PHE5        0.0000 
     51 CA         11.5100   60.7600   59.3400 C.3       5 GLY6        0.0000 
     52 CA         14.9900   60.5400   60.5000 C.3       5 GLY6        0.0000 
     53 CA         14.5500   56.5100   62.9700 C.3       5 GLY6        0.0000 
     54 CA         14.1200   52.4800   65.4400 C.3       5 GLY6        0.0000 
     55 CA         13.4500   55.0600   64.0600 C.3       5 GLY6        0.0000 
     56 CA         11.7800   61.5100   60.6100 C.3       5 GLY6        0.0000 
     57 CA         15.5900   60.0000   62.4700 C.3       5 GLY6        0.0000 
     58 CA         15.8200   53.3900   66.3100 C.3       5 GLY6        0.0000 
     59 CA         14.8200   57.2600   64.2400 C.3       5 GLY6        0.0000 
     60 CA         14.4900   58.5500   63.5500 C.3       5 GLY6        0.0000 
     61 CA         14.1600   59.8400   62.8600 C.3       5 GLY6        0.0000 
     62 CA         13.8200   61.1300   62.1700 C.3       5 GLY6        0.0000 
     63 CA         14.0500   54.5200   66.0200 C.3       5 GLY6        0.0000 
     64 CA         13.7200   55.8100   65.3300 C.3       5 GLY6        0.0000 
     65 CA         12.0500   62.2600   61.8800 C.3       5 GLY6        0.0000 
     66 CA         11.7200   63.5500   61.1900 C.3       5 GLY6        0.0000 
     67 CA         10.8400   55.4900   66.1300 C.3       5 GLY6        0.0000 
     68 CA         10.5100   56.7800   65.4400 C.3       5 GLY6        0.0000 
     69 CA          9.0700   56.6300   65.8300 C.3       5 GLY6        0.0000 
     70 CA         13.7600   63.1700   62.7500 C.3       5 GLY6        0.0000 
     71 CA         14.6500   53.9800   67.9800 C.3       5 GLY6        0.0000 
     72 CA         14.3200   55.2700   67.2900 C.3       5 GLY6        0.0000 
     73 CA         12.6500   61.7200   63.8400 C.3       5 GLY6        0.0000 
     74 CA         12.3200   63.0100   63.1500 C.3       5 GLY6        0.0000 
     75 CA         12.8800   55.1100   67.6900 C.3       5 GLY6        0.0000 
     76 DU         13.7800   53.7700   64.7500 H         6 CUB7        0.0000 
     77 DU         12.3900   60.9700   62.5700 H         6 CUB7        0.0000 
     78 DU         11.9500   56.9400   65.0400 H         6 CUB7        0.0000 
     79 DU         10.9500   60.8100   62.9700 H         6 CUB7        0.0000 
     80 DU         10.1800   58.0700   64.7500 H         6 CUB7        0.0000 
@<TRIPOS>BOND
@<TRIPOS>SUBSTRUCTURE
     1 ALA2        1 GROUP   
     2 ASP3       16 GROUP   
     3 LYS4       30 GROUP   
     4 PHE5       33 GROUP   
     5 GLY6       51 GROUP   
     6 CUB7       76 GROUP   
@<TRIPOS>SET

