#    Name: 6d5w_1_GNP
#    Modification time : Fri May 22 19:28:34 2020

@<TRIPOS>MOLECULE
6d5w_1_GNP
   32    34     1     0     1
SMALL
NO_CHARGES


@<TRIPOS>ATOM
      1 PG         15.1560   51.4970   70.4010 P.3       1 GNP202      0.0000 
      2 O1G        15.4590   50.2660   69.5850 O.co2     1 GNP202      0.0000 
      3 O2G        13.8340   51.3870   71.1210 O.co2     1 GNP202      0.0000 
      4 O3G        16.2240   51.8350   71.4170 O.co2     1 GNP202      0.0000 
      5 N3B        15.0560   52.8020   69.4740 N.3       1 GNP202      0.0000 
      6 PB         15.8990   53.1130   68.1500 P.3       1 GNP202      0.0000 
      7 O1B        15.9510   51.8320   67.4310 O.co2     1 GNP202      0.0000 
      8 O2B        17.1800   53.7930   68.4550 O.co2     1 GNP202      0.0000 
      9 O3A        15.0760   54.1050   67.3380 O.3       1 GNP202      0.0000 
     10 PA         14.3780   53.7640   66.0130 P.3       1 GNP202      0.0000 
     11 O1A        15.4620   53.5140   65.0310 O.co2     1 GNP202      0.0000 
     12 O2A        13.3030   52.7490   66.1640 O.co2     1 GNP202      0.0000 
     13 O5'        13.6460   55.0930   65.5700 O.3       1 GNP202      0.0000 
     14 C5'        12.7890   55.7950   66.4580 C.3       1 GNP202      0.0000 
     15 C4'        11.8420   56.6890   65.6790 C.3       1 GNP202      0.0000 
     16 O4'        12.5570   57.8310   65.1420 O.3       1 GNP202      0.0000 
     17 C3'        11.1630   56.0190   64.4880 C.3       1 GNP202      0.0000 
     18 O3'         9.8490   56.5120   64.3750 O.3       1 GNP202      0.0000 
     19 C2'        12.0400   56.4340   63.3080 C.3       1 GNP202      0.0000 
     20 O2'        11.3450   56.5080   62.0820 O.3       1 GNP202      0.0000 
     21 C1'        12.4810   57.8290   63.7240 C.3       1 GNP202      0.0000 
     22 N9         13.7960   58.1900   63.2050 N.pl3     1 GNP202      0.0000 
     23 C8         14.9410   57.4410   63.2890 C.2       1 GNP202      0.0000 
     24 N7         15.9790   58.0140   62.7510 N.2       1 GNP202      0.0000 
     25 C5         15.4900   59.2260   62.2700 C.2       1 GNP202      0.0000 
     26 C6         16.1440   60.2810   61.5830 C.2       1 GNP202      0.0000 
     27 O6         17.3300   60.3660   61.2420 O.2       1 GNP202      0.0000 
     28 N1         15.2790   61.3250   61.2780 N.am      1 GNP202      0.0000 
     29 C2         13.9470   61.3610   61.5870 C.2       1 GNP202      0.0000 
     30 N2         13.2840   62.4630   61.2050 N.pl3     1 GNP202      0.0000 
     31 N3         13.3190   60.3860   62.2320 N.2       1 GNP202      0.0000 
     32 C4         14.1470   59.3510   62.5440 C.2       1 GNP202      0.0000 
@<TRIPOS>BOND
     1    1    2 ar   
     2    1    3 ar   
     3    1    4 ar   
     4    1    5 1    
     5    5    6 1    
     6    6    7 ar   
     7    6    8 ar   
     8    6    9 1    
     9    9   10 1    
    10   10   11 ar   
    11   10   12 ar   
    12   10   13 1    
    13   13   14 1    
    14   14   15 1    
    15   15   16 1    
    16   15   17 1    
    17   16   21 1    
    18   17   18 1    
    19   17   19 1    
    20   19   20 1    
    21   19   21 1    
    22   21   22 1    
    23   22   23 1    
    24   22   32 1    
    25   23   24 2    
    26   24   25 1    
    27   25   26 1    
    28   25   32 2    
    29   26   27 2    
    30   26   28 am   
    31   28   29 1    
    32   29   30 1    
    33   29   31 2    
    34   31   32 1    
@<TRIPOS>SUBSTRUCTURE
     1 GNP202      1 GROUP   
@<TRIPOS>SET
ATOM$ORANGE STATIC     ATOMS   COLORGROUP SYSTEM 
20 14 14 15 15 17 17 19 19 21 21 23 23 25 25 26 26 29 \
29 32 32 

