#    Name: 5ofb_1_ATP
#    Modification time : Fri May 22 19:25:57 2020

@<TRIPOS>MOLECULE
5ofb_1_ATP
   31    33     1     0     1
SMALL
NO_CHARGES


@<TRIPOS>ATOM
      1 PG        -18.4110  -39.4730  -16.7370 P.3       1 ATP702      0.0000 
      2 O1G       -17.9070  -38.5350  -17.8620 O.co2     1 ATP702      0.0000 
      3 O2G       -17.3150  -39.9200  -15.8340 O.co2     1 ATP702      0.0000 
      4 O3G       -19.5990  -38.9630  -15.9950 O.co2     1 ATP702      0.0000 
      5 PB        -18.4090  -42.1570  -17.9130 P.3       1 ATP702      0.0000 
      6 O1B       -19.4050  -42.8470  -18.7620 O.co2     1 ATP702      0.0000 
      7 O2B       -17.8190  -42.6780  -16.6110 O.co2     1 ATP702      0.0000 
      8 O3B       -19.0880  -40.6950  -17.5620 O.3       1 ATP702      0.0000 
      9 PA        -15.6580  -42.0470  -18.6420 P.3       1 ATP702      0.0000 
     10 O1A       -14.9260  -41.3660  -19.7620 O.co2     1 ATP702      0.0000 
     11 O2A       -15.1900  -41.7990  -17.2300 O.co2     1 ATP702      0.0000 
     12 O3A       -17.2010  -41.6870  -18.8600 O.3       1 ATP702      0.0000 
     13 O5'       -15.4860  -43.6220  -18.9530 O.3       1 ATP702      0.0000 
     14 C5'       -15.8880  -44.1750  -20.1920 C.3       1 ATP702      0.0000 
     15 C4'       -16.4490  -45.5670  -20.0390 C.3       1 ATP702      0.0000 
     16 O4'       -15.3520  -46.4660  -19.8600 O.3       1 ATP702      0.0000 
     17 C3'       -17.3690  -45.7540  -18.8340 C.3       1 ATP702      0.0000 
     18 O3'       -18.7180  -45.4950  -19.1970 O.3       1 ATP702      0.0000 
     19 C2'       -17.1540  -47.2000  -18.5220 C.3       1 ATP702      0.0000 
     20 O2'       -18.0180  -47.9300  -19.4160 O.3       1 ATP702      0.0000 
     21 C1'       -15.7130  -47.4770  -18.9270 C.3       1 ATP702      0.0000 
     22 N9        -14.6920  -47.4660  -17.8550 N.pl3     1 ATP702      0.0000 
     23 C8        -13.7740  -46.5100  -17.5770 C.2       1 ATP702      0.0000 
     24 N7        -12.9720  -46.8790  -16.5430 N.2       1 ATP702      0.0000 
     25 C5        -13.3890  -48.1090  -16.1740 C.ar      1 ATP702      0.0000 
     26 C6        -13.0080  -49.1010  -15.1590 C.ar      1 ATP702      0.0000 
     27 N6        -12.0100  -48.8500  -14.3110 N.pl3     1 ATP702      0.0000 
     28 N1        -13.6840  -50.2570  -15.1080 N.ar      1 ATP702      0.0000 
     29 C2        -14.6960  -50.5420  -15.9480 C.ar      1 ATP702      0.0000 
     30 N3        -15.1170  -49.6850  -16.8980 N.ar      1 ATP702      0.0000 
     31 C4        -14.5030  -48.4900  -17.0450 C.ar      1 ATP702      0.0000 
@<TRIPOS>BOND
     1    1    2 ar   
     2    1    3 ar   
     3    1    4 ar   
     4    1    8 1    
     5    5    6 ar   
     6    5    7 ar   
     7    5    8 1    
     8    5   12 1    
     9    9   10 ar   
    10    9   11 ar   
    11    9   12 1    
    12    9   13 1    
    13   13   14 1    
    14   14   15 1    
    15   15   16 1    
    16   15   17 1    
    17   16   21 1    
    18   17   18 1    
    19   17   19 1    
    20   19   20 1    
    21   19   21 1    
    22   21   22 1    
    23   22   23 1    
    24   22   31 1    
    25   23   24 2    
    26   24   25 1    
    27   25   26 ar   
    28   25   31 ar   
    29   26   27 1    
    30   26   28 ar   
    31   28   29 ar   
    32   29   30 ar   
    33   30   31 ar   
@<TRIPOS>SUBSTRUCTURE
     1 ATP702      1 GROUP   
@<TRIPOS>SET
ATOM$ORANGE STATIC     ATOMS   COLORGROUP SYSTEM 
20 14 14 15 15 17 17 19 19 21 21 23 23 25 25 26 26 29 \
29 31 31 

