#    Name: 5ofb_2_ATP
#    Modification time : Fri May 22 19:26:11 2020

@<TRIPOS>MOLECULE
5ofb_2_ATP
   31    33     1     0     1
SMALL
NO_CHARGES


@<TRIPOS>ATOM
      1 PG        -12.3570  -20.8750  -27.9890 P.3       1 ATP702      0.0000 
      2 O1G       -13.4560  -19.8570  -28.1200 O.co2     1 ATP702      0.0000 
      3 O2G       -12.7800  -22.2460  -27.6810 O.co2     1 ATP702      0.0000 
      4 O3G       -11.1110  -20.4990  -27.1840 O.co2     1 ATP702      0.0000 
      5 PB        -12.3900  -20.6560  -30.9020 P.3       1 ATP702      0.0000 
      6 O1B       -11.3500  -21.0230  -31.9130 O.co2     1 ATP702      0.0000 
      7 O2B       -12.9480  -19.2760  -30.9140 O.co2     1 ATP702      0.0000 
      8 O3B       -11.7440  -21.0560  -29.4890 O.3       1 ATP702      0.0000 
      9 PA        -15.1210  -21.4510  -31.2400 P.3       1 ATP702      0.0000 
     10 O1A       -15.7850  -22.7540  -31.1230 O.co2     1 ATP702      0.0000 
     11 O2A       -15.4740  -20.3050  -30.3370 O.co2     1 ATP702      0.0000 
     12 O3A       -13.5720  -21.7980  -30.9960 O.3       1 ATP702      0.0000 
     13 O5'       -15.2020  -20.9650  -32.7860 O.3       1 ATP702      0.0000 
     14 C5'       -14.7110  -21.8420  -33.7670 C.3       1 ATP702      0.0000 
     15 C4'       -14.2330  -21.0690  -34.9800 C.3       1 ATP702      0.0000 
     16 O4'       -15.3390  -20.5050  -35.6560 O.3       1 ATP702      0.0000 
     17 C3'       -13.3700  -19.8690  -34.6160 C.3       1 ATP702      0.0000 
     18 O3'       -12.0410  -20.3560  -34.4920 O.3       1 ATP702      0.0000 
     19 C2'       -13.5840  -18.9660  -35.7860 C.3       1 ATP702      0.0000 
     20 O2'       -12.6780  -19.5030  -36.7670 O.3       1 ATP702      0.0000 
     21 C1'       -15.0150  -19.2480  -36.2070 C.3       1 ATP702      0.0000 
     22 N9        -16.0000  -18.2670  -35.7090 N.pl3     1 ATP702      0.0000 
     23 C8        -16.9210  -18.4560  -34.7280 C.2       1 ATP702      0.0000 
     24 N7        -17.6750  -17.3570  -34.5830 N.2       1 ATP702      0.0000 
     25 C5        -17.2310  -16.4560  -35.4860 C.ar      1 ATP702      0.0000 
     26 C6        -17.5890  -15.0730  -35.8560 C.ar      1 ATP702      0.0000 
     27 N6        -18.5670  -14.4240  -35.1880 N.pl3     1 ATP702      0.0000 
     28 N1        -16.8820  -14.4820  -36.8560 N.ar      1 ATP702      0.0000 
     29 C2        -15.9100  -15.1340  -37.5440 C.ar      1 ATP702      0.0000 
     30 N3        -15.5310  -16.3890  -37.2630 N.ar      1 ATP702      0.0000 
     31 C4        -16.1440  -17.0680  -36.2390 C.ar      1 ATP702      0.0000 
@<TRIPOS>BOND
     1    1    2 ar   
     2    1    3 ar   
     3    1    4 ar   
     4    1    8 1    
     5    5    6 ar   
     6    5    7 ar   
     7    5    8 1    
     8    5   12 1    
     9    9   10 ar   
    10    9   11 ar   
    11    9   12 1    
    12    9   13 1    
    13   13   14 1    
    14   14   15 1    
    15   15   16 1    
    16   15   17 1    
    17   16   21 1    
    18   17   18 1    
    19   17   19 1    
    20   19   20 1    
    21   19   21 1    
    22   21   22 1    
    23   22   23 1    
    24   22   31 1    
    25   23   24 2    
    26   24   25 1    
    27   25   26 ar   
    28   25   31 ar   
    29   26   27 1    
    30   26   28 ar   
    31   28   29 ar   
    32   29   30 ar   
    33   30   31 ar   
@<TRIPOS>SUBSTRUCTURE
     1 ATP702      1 GROUP   
@<TRIPOS>SET
ATOM$ORANGE STATIC     ATOMS   COLORGROUP SYSTEM 
20 14 14 15 15 17 17 19 19 21 21 23 23 25 25 26 26 29 \
29 31 31 

