#    Name: 6xxy_1_NAD
#    Modification time : Fri May 22 19:27:13 2020

@<TRIPOS>MOLECULE
6xxy_1_NAD
   44    48     1     0     1
SMALL
NO_CHARGES


@<TRIPOS>ATOM
      1 PA        -26.3800   54.1710    8.5950 P.3       1 NAD401      0.0000 
      2 O1A       -25.3900   53.0870    8.4050 O.co2     1 NAD401      0.0000 
      3 O2A       -27.7210   53.8240    8.0370 O.co2     1 NAD401      0.0000 
      4 O5B       -26.5410   54.5050   10.1500 O.3       1 NAD401      0.0000 
      5 C5B       -27.4190   55.4890   10.6480 C.3       1 NAD401      0.0000 
      6 C4B       -27.7240   55.1480   12.1090 C.3       1 NAD401      0.0000 
      7 O4B       -28.6220   54.0540   12.1010 O.3       1 NAD401      0.0000 
      8 C3B       -26.4750   54.6840   12.8500 C.3       1 NAD401      0.0000 
      9 O3B       -26.5350   55.0960   14.1980 O.3       1 NAD401      0.0000 
     10 C2B       -26.5740   53.1750   12.7930 C.3       1 NAD401      0.0000 
     11 O2B       -26.0110   52.5720   13.9260 O.3       1 NAD401      0.0000 
     12 C1B       -28.0690   52.9560   12.7770 C.3       1 NAD401      0.0000 
     13 N9A       -28.3950   51.6890   12.0990 N.pl3     1 NAD401      0.0000 
     14 C8A       -28.3760   51.4550   10.7510 C.2       1 NAD401      0.0000 
     15 N7A       -28.7270   50.1700   10.5380 N.2       1 NAD401      0.0000 
     16 C5A       -28.9680   49.5740   11.7260 C.ar      1 NAD401      0.0000 
     17 C6A       -29.3760   48.2850   12.0670 C.ar      1 NAD401      0.0000 
     18 N6A       -29.4360   47.2970   11.1730 N.pl3     1 NAD401      0.0000 
     19 N1A       -29.5380   47.9860   13.3920 N.ar      1 NAD401      0.0000 
     20 C2A       -29.3310   48.9490   14.3640 C.ar      1 NAD401      0.0000 
     21 N3A       -28.9490   50.2280   14.0280 N.ar      1 NAD401      0.0000 
     22 C4A       -28.7610   50.5300   12.7170 C.ar      1 NAD401      0.0000 
     23 O3        -25.9330   55.5220    7.8560 O.3       1 NAD401      0.0000 
     24 PN        -24.6220   56.4440    8.0670 P.3       1 NAD401      0.0000 
     25 O1N       -25.0300   57.7480    7.5420 O.co2     1 NAD401      0.0000 
     26 O2N       -24.0510   56.3480    9.4110 O.co2     1 NAD401      0.0000 
     27 O5D       -23.6020   55.7690    7.0410 O.3       1 NAD401      0.0000 
     28 C5D       -22.7460   54.7240    7.4770 C.3       1 NAD401      0.0000 
     29 C4D       -22.0120   54.1390    6.2760 C.3       1 NAD401      0.0000 
     30 O4D       -22.9380   53.4220    5.4780 O.3       1 NAD401      0.0000 
     31 C3D       -21.4370   55.2260    5.3800 C.3       1 NAD401      0.0000 
     32 O3D       -20.2100   54.7610    4.8670 O.3       1 NAD401      0.0000 
     33 C2D       -22.4120   55.2770    4.2320 C.3       1 NAD401      0.0000 
     34 O2D       -21.7340   55.6190    3.0600 O.3       1 NAD401      0.0000 
     35 C1D       -22.8550   53.8250    4.1400 C.3       1 NAD401      0.0000 
     36 N1N       -24.1430   53.5770    3.4690 N.pl3     1 NAD401      0.0000 
     37 C2N       -24.2510   52.5370    2.6040 C.ar      1 NAD401      0.0000 
     38 C3N       -25.4670   52.2600    1.9770 C.ar      1 NAD401      0.0000 
     39 C7N       -25.5940   50.9900    1.1930 C.2       1 NAD401      0.0000 
     40 O7N       -24.4590   50.1630    1.0480 O.2       1 NAD401      0.0000 
     41 N7N       -26.7580   50.6840    0.6310 N.am      1 NAD401      0.0000 
     42 C4N       -26.5850   53.0430    2.2520 C.ar      1 NAD401      0.0000 
     43 C5N       -26.4740   54.1020    3.1440 C.ar      1 NAD401      0.0000 
     44 C6N       -25.2350   54.3420    3.7490 C.ar      1 NAD401      0.0000 
@<TRIPOS>BOND
     1    1    2 ar   
     2    1    3 ar   
     3    1    4 1    
     4    1   23 1    
     5    4    5 1    
     6    5    6 1    
     7    6    7 1    
     8    6    8 1    
     9    7   12 1    
    10    8    9 1    
    11    8   10 1    
    12   10   11 1    
    13   10   12 1    
    14   12   13 1    
    15   13   14 1    
    16   13   22 1    
    17   14   15 2    
    18   15   16 1    
    19   16   17 ar   
    20   16   22 ar   
    21   17   18 1    
    22   17   19 ar   
    23   19   20 ar   
    24   20   21 ar   
    25   21   22 ar   
    26   23   24 1    
    27   24   25 ar   
    28   24   26 ar   
    29   24   27 1    
    30   27   28 1    
    31   28   29 1    
    32   29   30 1    
    33   29   31 1    
    34   30   35 1    
    35   31   32 1    
    36   31   33 1    
    37   33   34 1    
    38   33   35 1    
    39   35   36 1    
    40   36   37 ar   
    41   36   44 ar   
    42   37   38 ar   
    43   38   39 1    
    44   38   42 ar   
    45   39   40 2    
    46   39   41 am   
    47   42   43 ar   
    48   43   44 ar   
@<TRIPOS>SUBSTRUCTURE
     1 NAD401      1 GROUP   
@<TRIPOS>SET
ATOM$ORANGE STATIC     ATOMS   COLORGROUP SYSTEM 
42 5 5 6 6 8 8 10 10 12 12 14 14 16 16 17 17 20 \
20 22 22 28 28 29 29 31 31 33 33 35 35 37 37 38 38 39 \
39 42 42 43 43 44 44 

