#    Name: 6xxy_2_NAD
#    Modification time : Fri May 22 19:27:20 2020

@<TRIPOS>MOLECULE
6xxy_2_NAD
   44    48     1     0     1
SMALL
NO_CHARGES


@<TRIPOS>ATOM
      1 PA        -45.8190   76.2570    4.4260 P.3       1 NAD401      0.0000 
      2 O1A       -46.4250   77.5360    3.9740 O.co2     1 NAD401      0.0000 
      3 O2A       -44.7320   76.4950    5.3970 O.co2     1 NAD401      0.0000 
      4 O5B       -46.9270   75.2750    5.0920 O.3       1 NAD401      0.0000 
      5 C5B       -46.6190   73.9950    5.6260 C.3       1 NAD401      0.0000 
      6 C4B       -47.6430   73.5690    6.6880 C.3       1 NAD401      0.0000 
      7 O4B       -47.3940   74.2390    7.9180 O.3       1 NAD401      0.0000 
      8 C3B       -49.0480   73.9440    6.2290 C.3       1 NAD401      0.0000 
      9 O3B       -49.9760   72.9650    6.6460 O.3       1 NAD401      0.0000 
     10 C2B       -49.3070   75.2610    6.9370 C.3       1 NAD401      0.0000 
     11 O2B       -50.6690   75.4590    7.2510 O.3       1 NAD401      0.0000 
     12 C1B       -48.4530   75.1540    8.1950 C.3       1 NAD401      0.0000 
     13 N9A       -47.9800   76.4890    8.6440 N.pl3     1 NAD401      0.0000 
     14 C8A       -46.9960   77.2780    8.0850 C.2       1 NAD401      0.0000 
     15 N7A       -46.8820   78.4190    8.8060 N.2       1 NAD401      0.0000 
     16 C5A       -47.7870   78.3780    9.8150 C.ar      1 NAD401      0.0000 
     17 C6A       -48.1020   79.2720   10.8390 C.ar      1 NAD401      0.0000 
     18 N6A       -47.5490   80.4890   10.8960 N.pl3     1 NAD401      0.0000 
     19 N1A       -49.1010   78.9290   11.7300 N.ar      1 NAD401      0.0000 
     20 C2A       -49.7750   77.7250   11.6140 C.ar      1 NAD401      0.0000 
     21 N3A       -49.4610   76.8460   10.6020 N.ar      1 NAD401      0.0000 
     22 C4A       -48.4810   77.1700    9.7230 C.ar      1 NAD401      0.0000 
     23 O3        -45.1490   75.5070    3.1520 O.3       1 NAD401      0.0000 
     24 PN        -45.9230   74.8820    1.8830 P.3       1 NAD401      0.0000 
     25 O1N       -45.0330   73.8100    1.3650 O.co2     1 NAD401      0.0000 
     26 O2N       -47.3210   74.5120    2.2280 O.co2     1 NAD401      0.0000 
     27 O5D       -45.9190   76.0940    0.8110 O.3       1 NAD401      0.0000 
     28 C5D       -47.0650   76.9020    0.6400 C.3       1 NAD401      0.0000 
     29 C4D       -46.7050   78.1740   -0.1090 C.3       1 NAD401      0.0000 
     30 O4D       -45.7230   78.8780    0.6220 O.3       1 NAD401      0.0000 
     31 C3D       -46.0960   77.8490   -1.4530 C.3       1 NAD401      0.0000 
     32 O3D       -46.5480   78.7810   -2.4100 O.3       1 NAD401      0.0000 
     33 C2D       -44.6160   78.0360   -1.2220 C.3       1 NAD401      0.0000 
     34 O2D       -43.9790   78.4170   -2.4180 O.3       1 NAD401      0.0000 
     35 C1D       -44.6060   79.1510   -0.1950 C.3       1 NAD401      0.0000 
     36 N1N       -43.3650   79.2240    0.6050 N.pl3     1 NAD401      0.0000 
     37 C2N       -42.7320   80.4300    0.7200 C.ar      1 NAD401      0.0000 
     38 C3N       -41.5670   80.5740    1.4700 C.ar      1 NAD401      0.0000 
     39 C7N       -41.2440   81.9430    2.0000 C.2       1 NAD401      0.0000 
     40 O7N       -41.7760   83.0720    1.3480 O.2       1 NAD401      0.0000 
     41 N7N       -40.4540   82.0580    3.0690 N.am      1 NAD401      0.0000 
     42 C4N       -41.0410   79.4510    2.1110 C.ar      1 NAD401      0.0000 
     43 C5N       -41.6870   78.2200    1.9950 C.ar      1 NAD401      0.0000 
     44 C6N       -42.8550   78.1190    1.2380 C.ar      1 NAD401      0.0000 
@<TRIPOS>BOND
     1    1    2 ar   
     2    1    3 ar   
     3    1    4 1    
     4    1   23 1    
     5    4    5 1    
     6    5    6 1    
     7    6    7 1    
     8    6    8 1    
     9    7   12 1    
    10    8    9 1    
    11    8   10 1    
    12   10   11 1    
    13   10   12 1    
    14   12   13 1    
    15   13   14 1    
    16   13   22 1    
    17   14   15 2    
    18   15   16 1    
    19   16   17 ar   
    20   16   22 ar   
    21   17   18 1    
    22   17   19 ar   
    23   19   20 ar   
    24   20   21 ar   
    25   21   22 ar   
    26   23   24 1    
    27   24   25 ar   
    28   24   26 ar   
    29   24   27 1    
    30   27   28 1    
    31   28   29 1    
    32   29   30 1    
    33   29   31 1    
    34   30   35 1    
    35   31   32 1    
    36   31   33 1    
    37   33   34 1    
    38   33   35 1    
    39   35   36 1    
    40   36   37 ar   
    41   36   44 ar   
    42   37   38 ar   
    43   38   39 1    
    44   38   42 ar   
    45   39   40 2    
    46   39   41 am   
    47   42   43 ar   
    48   43   44 ar   
@<TRIPOS>SUBSTRUCTURE
     1 NAD401      1 GROUP   
@<TRIPOS>SET
ATOM$ORANGE STATIC     ATOMS   COLORGROUP SYSTEM 
42 5 5 6 6 8 8 10 10 12 12 14 14 16 16 17 17 20 \
20 22 22 28 28 29 29 31 31 33 33 35 35 37 37 38 38 39 \
39 42 42 43 43 44 44 

