#    Name: 6h3f_1_NAP
#    Modification time : Fri May 22 19:27:29 2020

@<TRIPOS>MOLECULE
6h3f_1_NAP
   48    52     1     0     1
SMALL
NO_CHARGES


@<TRIPOS>ATOM
      1 PA        -30.8050   14.4590   -5.5860 P.3       1 NAP600      0.0000 
      2 O1A       -31.2200   14.8470   -4.1830 O.co2     1 NAP600      0.0000 
      3 O2A       -29.9350   13.2310   -5.7420 O.co2     1 NAP600      0.0000 
      4 O5B       -32.1620   14.4650   -6.4310 O.3       1 NAP600      0.0000 
      5 C5B       -32.5510   13.5480   -7.4410 C.3       1 NAP600      0.0000 
      6 C4B       -34.0020   13.2260   -7.1320 C.3       1 NAP600      0.0000 
      7 O4B       -34.4630   12.2540   -8.0550 O.3       1 NAP600      0.0000 
      8 C3B       -34.0540   12.5720   -5.7750 C.3       1 NAP600      0.0000 
      9 O3B       -35.3370   12.7860   -5.1900 O.3       1 NAP600      0.0000 
     10 C2B       -33.7600   11.1020   -6.1090 C.3       1 NAP600      0.0000 
     11 O2B       -34.1890   10.2040   -5.0860 O.3       1 NAP600      0.0000 
     12 C1B       -34.5180   10.9540   -7.4200 C.3       1 NAP600      0.0000 
     13 N9A       -34.0000    9.9200   -8.3570 N.pl3     1 NAP600      0.0000 
     14 C8A       -34.7810    9.1980   -9.2040 C.2       1 NAP600      0.0000 
     15 N7A       -34.0380    8.3430   -9.9490 N.2       1 NAP600      0.0000 
     16 C5A       -32.7510    8.5280   -9.5820 C.ar      1 NAP600      0.0000 
     17 C6A       -31.4510    7.9480   -9.9710 C.ar      1 NAP600      0.0000 
     18 N6A       -31.3830    6.9950  -10.9260 N.pl3     1 NAP600      0.0000 
     19 N1A       -30.3510    8.4220   -9.3320 N.ar      1 NAP600      0.0000 
     20 C2A       -30.3980    9.3810   -8.3790 C.ar      1 NAP600      0.0000 
     21 N3A       -31.5440    9.9450   -7.9720 N.ar      1 NAP600      0.0000 
     22 C4A       -32.7240    9.5710   -8.5290 C.ar      1 NAP600      0.0000 
     23 O3        -30.0500   15.6090   -6.4360 O.3       1 NAP600      0.0000 
     24 PN        -30.4860   17.1720   -6.5780 P.3       1 NAP600      0.0000 
     25 O1N       -29.3580   17.9610   -5.9350 O.co2     1 NAP600      0.0000 
     26 O2N       -31.9070   17.3890   -6.1090 O.co2     1 NAP600      0.0000 
     27 O5D       -30.3910   17.4430   -8.1760 O.3       1 NAP600      0.0000 
     28 C5D       -31.2720   16.8250   -9.1270 C.3       1 NAP600      0.0000 
     29 C4D       -30.6360   16.8130  -10.5210 C.3       1 NAP600      0.0000 
     30 O4D       -30.1690   18.1190  -10.9030 O.3       1 NAP600      0.0000 
     31 C3D       -29.4090   15.9220  -10.5370 C.3       1 NAP600      0.0000 
     32 O3D       -29.1960   15.3560  -11.8270 O.3       1 NAP600      0.0000 
     33 C2D       -28.2710   16.8730  -10.2740 C.3       1 NAP600      0.0000 
     34 O2D       -27.0400   16.3510  -10.7840 O.3       1 NAP600      0.0000 
     35 C1D       -28.7300   18.1220  -11.0090 C.3       1 NAP600      0.0000 
     36 N1N       -28.0590   19.3030  -10.4440 N.pl3     1 NAP600      0.0000 
     37 C2N       -28.0250   19.4780   -9.1150 C.ar      1 NAP600      0.0000 
     38 C3N       -27.3870   20.5870   -8.5810 C.ar      1 NAP600      0.0000 
     39 C7N       -27.3450   20.7990   -7.1000 C.2       1 NAP600      0.0000 
     40 O7N       -27.4000   19.8540   -6.3270 O.2       1 NAP600      0.0000 
     41 N7N       -27.2130   22.0390   -6.6680 N.am      1 NAP600      0.0000 
     42 C4N       -26.7550   21.5030   -9.4170 C.ar      1 NAP600      0.0000 
     43 C5N       -26.7930   21.2960  -10.7910 C.ar      1 NAP600      0.0000 
     44 C6N       -27.4590   20.1750  -11.2820 C.ar      1 NAP600      0.0000 
     45 P2B       -33.4040   10.1450   -3.6710 P.3       1 NAP600      0.0000 
     46 O1X       -34.1560    9.0730   -2.9170 O.co2     1 NAP600      0.0000 
     47 O2X       -31.9690    9.7590   -4.0420 O.co2     1 NAP600      0.0000 
     48 O3X       -33.5420   11.5260   -3.0440 O.co2     1 NAP600      0.0000 
@<TRIPOS>BOND
     1    1    2 ar   
     2    1    3 ar   
     3    1    4 1    
     4    1   23 1    
     5    4    5 1    
     6    5    6 1    
     7    6    7 1    
     8    6    8 1    
     9    7   12 1    
    10    8    9 1    
    11    8   10 1    
    12   10   11 1    
    13   10   12 1    
    14   11   45 1    
    15   12   13 1    
    16   13   14 1    
    17   13   22 1    
    18   14   15 2    
    19   15   16 1    
    20   16   17 ar   
    21   16   22 ar   
    22   17   18 1    
    23   17   19 ar   
    24   19   20 ar   
    25   20   21 ar   
    26   21   22 ar   
    27   23   24 1    
    28   24   25 ar   
    29   24   26 ar   
    30   24   27 1    
    31   27   28 1    
    32   28   29 1    
    33   29   30 1    
    34   29   31 1    
    35   30   35 1    
    36   31   32 1    
    37   31   33 1    
    38   33   34 1    
    39   33   35 1    
    40   35   36 1    
    41   36   37 ar   
    42   36   44 ar   
    43   37   38 ar   
    44   38   39 1    
    45   38   42 ar   
    46   39   40 2    
    47   39   41 am   
    48   42   43 ar   
    49   43   44 ar   
    50   45   46 ar   
    51   45   47 ar   
    52   45   48 ar   
@<TRIPOS>SUBSTRUCTURE
     1 NAP600      1 GROUP   
@<TRIPOS>SET
ATOM$ORANGE STATIC     ATOMS   COLORGROUP SYSTEM 
42 5 5 6 6 8 8 10 10 12 12 14 14 16 16 17 17 20 \
20 22 22 28 28 29 29 31 31 33 33 35 35 37 37 38 38 39 \
39 42 42 43 43 44 44 

