#    Name: 6h3f_1_NAP_CAVITY_N1_4
#    Modification time : Fri May 22 19:27:31 2020

@<TRIPOS>MOLECULE
6h3f_1_NAP_CAVITY_N1_4
  119     0     6     0     0
SMALL
NO_CHARGES


@<TRIPOS>ATOM
      1 OG        -37.7900    6.9900   -9.2000 O.3       1 SER1        0.0000 
      2 OG        -36.6200    6.8900  -10.9700 O.3       1 SER1        0.0000 
      3 OG        -36.4400    8.5600   -9.6700 O.3       1 SER1        0.0000 
      4 OG        -36.3000   11.0100   -5.9000 O.3       1 SER1        0.0000 
      5 OG        -33.0000    9.8000  -10.0100 O.3       1 SER1        0.0000 
      6 OG        -31.0900    7.8100  -11.1700 O.3       1 SER1        0.0000 
      7 OG        -35.1700   11.6800   -5.1900 O.3       1 SER1        0.0000 
      8 OG        -31.8700   10.4800   -9.3000 O.3       1 SER1        0.0000 
      9 OG        -29.9500    8.4800  -10.4600 O.3       1 SER1        0.0000 
     10 OG        -34.2500   11.4600   -3.2900 O.3       1 SER1        0.0000 
     11 OG        -33.2900   10.4600   -3.8700 O.3       1 SER1        0.0000 
     12 OG        -30.6700    7.3500   -1.9500 O.3       1 SER1        0.0000 
     13 O         -34.9600   12.5800   -6.3700 O.2       2 ALA2        0.0000 
     14 O         -32.8300   11.4800   -8.7200 O.2       2 ALA2        0.0000 
     15 O         -28.2500    5.5900  -10.4400 O.2       2 ALA2        0.0000 
     16 O         -34.9900   13.3500   -3.8900 O.2       2 ALA2        0.0000 
     17 N         -33.6100   14.1500   -6.8400 N.am      2 ALA2        0.0000 
     18 O         -33.8200   13.2500   -5.6600 O.2       2 ALA2        0.0000 
     19 O         -26.9000    7.1600  -10.9100 O.2       2 ALA2        0.0000 
     20 O         -27.1200    6.2700   -9.7200 O.2       2 ALA2        0.0000 
     21 N         -32.2600   15.7100   -7.3200 N.am      2 ALA2        0.0000 
     22 OD1       -35.7000    6.6700   -9.0700 O.co2     3 ASP3        0.0000 
     23 OD1       -34.7400    5.6700   -9.6500 O.co2     3 ASP3        0.0000 
     24 OD1       -34.3500    8.2400   -9.5400 O.co2     3 ASP3        0.0000 
     25 OD1       -33.3900    7.2400  -10.1200 O.co2     3 ASP3        0.0000 
     26 OD1       -32.6500    5.3500   -9.5200 O.co2     3 ASP3        0.0000 
     27 OD1       -31.6900    4.3500  -10.1000 O.co2     3 ASP3        0.0000 
     28 OD1       -35.3500   10.0100   -6.4800 O.co2     3 ASP3        0.0000 
     29 OD1       -34.1700    9.9100   -8.2500 O.co2     3 ASP3        0.0000 
     30 OD1       -33.2200    8.9100   -8.8300 O.co2     3 ASP3        0.0000 
     31 OD1       -32.2600    7.9100   -9.4100 O.co2     3 ASP3        0.0000 
     32 OD1       -31.3000    6.9100   -9.9900 O.co2     3 ASP3        0.0000 
     33 OD1       -31.5100    6.0200   -8.8000 O.co2     3 ASP3        0.0000 
     34 OD1       -30.5600    5.0200   -9.3800 O.co2     3 ASP3        0.0000 
     35 OD1       -34.2100   10.6800   -5.7700 O.co2     3 ASP3        0.0000 
     36 OD1       -34.4200    9.7900   -4.5800 O.co2     3 ASP3        0.0000 
     37 OD1       -33.0400   10.5800   -7.5300 O.co2     3 ASP3        0.0000 
     38 OD1       -32.0800    9.5800   -8.1100 O.co2     3 ASP3        0.0000 
     39 OD1       -31.1200    8.5900   -8.6900 O.co2     3 ASP3        0.0000 
     40 OD1       -30.1700    7.5900   -9.2700 O.co2     3 ASP3        0.0000 
     41 OD1       -30.3800    6.6900   -8.0900 O.co2     3 ASP3        0.0000 
     42 OD1       -30.5900    5.8000   -6.9000 O.co2     3 ASP3        0.0000 
     43 OD1       -33.0800   11.3600   -5.0500 O.co2     3 ASP3        0.0000 
     44 OD1       -31.9100   11.2600   -6.8200 O.co2     3 ASP3        0.0000 
     45 OD1       -32.1200   10.3600   -5.6300 O.co2     3 ASP3        0.0000 
     46 OD1       -30.9500   10.2600   -7.4000 O.co2     3 ASP3        0.0000 
     47 OD1       -29.9900    9.2600   -7.9800 O.co2     3 ASP3        0.0000 
     48 OD1       -29.2500    7.3700   -7.3800 O.co2     3 ASP3        0.0000 
     49 OD1       -29.4600    6.4700   -6.1900 O.co2     3 ASP3        0.0000 
     50 OD1       -32.9000   13.0300   -3.7600 O.co2     3 ASP3        0.0000 
     51 OD1       -31.5200   13.8200   -6.7100 O.co2     3 ASP3        0.0000 
     52 OD1       -30.7700   11.9300   -6.1100 O.co2     3 ASP3        0.0000 
     53 OD1       -29.8100   10.9300   -6.6900 O.co2     3 ASP3        0.0000 
     54 OD1       -30.2400    9.1400   -4.3200 O.co2     3 ASP3        0.0000 
     55 OD1       -30.4500    8.2500   -3.1300 O.co2     3 ASP3        0.0000 
     56 OD1       -28.8600    9.9300   -7.2700 O.co2     3 ASP3        0.0000 
     57 OD1       -29.2800    8.1500   -4.9000 O.co2     3 ASP3        0.0000 
     58 OD1       -29.5000    7.2500   -3.7100 O.co2     3 ASP3        0.0000 
     59 OD1       -27.4700   10.7200  -10.2200 O.co2     3 ASP3        0.0000 
     60 OD1       -27.6800    9.8300   -9.0300 O.co2     3 ASP3        0.0000 
     61 OD1       -27.9000    8.9400   -7.8500 O.co2     3 ASP3        0.0000 
     62 OD1       -31.5500   14.6000   -4.2300 O.co2     3 ASP3        0.0000 
     63 OD1       -30.3800   14.5000   -6.0000 O.co2     3 ASP3        0.0000 
     64 OD1       -29.6400   12.6000   -5.3900 O.co2     3 ASP3        0.0000 
     65 OD1       -26.7600    9.6100   -7.1400 O.co2     3 ASP3        0.0000 
     66 OD1       -29.4600   14.2800   -4.1000 O.co2     3 ASP3        0.0000 
     67 NZ        -35.8800    4.9900  -10.3600 N.4       4 LYS4        0.0000 
     68 NZ        -30.1300    6.8100  -11.7500 N.4       4 LYS4        0.0000 
     69 NZ        -29.3900    4.9200  -11.1500 N.4       4 LYS4        0.0000 
     70 NZ        -29.0000    7.4800  -11.0400 N.4       4 LYS4        0.0000 
     71 NZ        -28.0400    6.4900  -11.6200 N.4       4 LYS4        0.0000 
     72 NZ        -27.6500    9.0500  -11.5100 N.4       4 LYS4        0.0000 
     73 NZ        -27.8600    8.1600  -10.3300 N.4       4 LYS4        0.0000 
     74 CA        -36.6600    7.6600   -8.4900 C.3       5 GLY6        0.0000 
     75 CA        -35.4900    7.5600  -10.2500 C.3       5 GLY6        0.0000 
     76 CA        -34.5300    6.5600  -10.8300 C.3       5 GLY6        0.0000 
     77 CA        -36.4800    9.3400   -7.1900 C.3       5 GLY6        0.0000 
     78 CA        -35.1000   10.1300  -10.1400 C.3       5 GLY6        0.0000 
     79 CA        -35.5200    8.3400   -7.7700 C.3       5 GLY6        0.0000 
     80 CA        -34.1400    9.1300  -10.7200 C.3       5 GLY6        0.0000 
     81 CA        -36.0900   11.9000   -7.0800 C.3       5 GLY6        0.0000 
     82 CA        -34.9200   11.8000   -8.8500 C.3       5 GLY6        0.0000 
     83 CA        -35.1300   10.9100   -7.6700 C.3       5 GLY6        0.0000 
     84 CA        -33.9600   10.8000   -9.4300 C.3       5 GLY6        0.0000 
     85 CA        -34.7400   13.4700   -7.5600 C.3       5 GLY6        0.0000 
     86 CA        -33.7800   12.4700   -8.1400 C.3       5 GLY6        0.0000 
     87 CA        -32.4400   14.0400   -8.6100 C.3       5 GLY6        0.0000 
     88 CA        -31.6900   12.1500   -8.0000 C.3       5 GLY6        0.0000 
     89 CA        -30.7300   11.1500   -8.5900 C.3       5 GLY6        0.0000 
     90 CA        -29.7800   10.1500   -9.1700 C.3       5 GLY6        0.0000 
     91 CA        -28.8200    9.1600   -9.7500 C.3       5 GLY6        0.0000 
     92 CA        -32.4700   14.8200   -6.1300 C.3       5 GLY6        0.0000 
     93 CA        -32.6900   13.9300   -4.9500 C.3       5 GLY6        0.0000 
     94 CA        -31.7300   12.9300   -5.5300 C.3       5 GLY6        0.0000 
     95 CA        -31.9400   12.0300   -4.3400 C.3       5 GLY6        0.0000 
     96 CA        -30.9800   11.0400   -4.9200 C.3       5 GLY6        0.0000 
     97 CA        -31.2000   10.1400   -3.7400 C.3       5 GLY6        0.0000 
     98 CA        -31.3400   15.4900   -5.4200 C.3       5 GLY6        0.0000 
     99 CA        -30.5900   13.6000   -4.8100 C.3       5 GLY6        0.0000 
    100 CA        -29.3200    8.9200   -2.4200 C.3       5 GLY6        0.0000 
    101 DU        -36.8300    5.9900   -9.7800 H         6 CUB7        0.0000 
    102 DU        -35.3100    9.2300   -8.9600 H         6 CUB7        0.0000 
    103 DU        -31.4800    5.2400  -11.2800 H         6 CUB7        0.0000 
    104 DU        -30.5200    4.2400  -11.8600 H         6 CUB7        0.0000 
    105 DU        -30.7300    3.3500  -10.6800 H         6 CUB7        0.0000 
    106 DU        -30.3400    5.9200  -10.5700 H         6 CUB7        0.0000 
    107 DU        -29.6000    4.0200   -9.9600 H         6 CUB7        0.0000 
    108 DU        -34.0000   11.5800   -6.9500 H         6 CUB7        0.0000 
    109 DU        -29.2100    6.5900   -9.8500 H         6 CUB7        0.0000 
    110 DU        -29.4200    5.7000   -8.6700 H         6 CUB7        0.0000 
    111 DU        -34.0300   12.3600   -4.4700 H         6 CUB7        0.0000 
    112 DU        -32.6500   13.1500   -7.4200 H         6 CUB7        0.0000 
    113 DU        -32.8600   12.2500   -6.2400 H         6 CUB7        0.0000 
    114 DU        -29.0300    8.2600   -8.5600 H         6 CUB7        0.0000 
    115 DU        -28.0700    7.2600   -9.1400 H         6 CUB7        0.0000 
    116 DU        -28.2900    6.3700   -7.9600 H         6 CUB7        0.0000 
    117 DU        -28.1100    8.0400   -6.6600 H         6 CUB7        0.0000 
    118 DU        -26.7300    8.8300   -9.6100 H         6 CUB7        0.0000 
    119 DU        -26.9400    7.9400   -8.4300 H         6 CUB7        0.0000 
@<TRIPOS>BOND
@<TRIPOS>SUBSTRUCTURE
     1 SER1        1 GROUP   
     2 ALA2       13 GROUP   
     3 ASP3       22 GROUP   
     4 LYS4       67 GROUP   
     5 GLY6       74 GROUP   
     6 CUB7      101 GROUP   
@<TRIPOS>SET

