#    Name: 6pf6_1_UMP_CAVITY_N1_4
#    Modification time : Fri May 22 19:28:30 2020

@<TRIPOS>MOLECULE
6pf6_1_UMP_CAVITY_N1_4
   72     0     7     0     0
SMALL
NO_CHARGES


@<TRIPOS>ATOM
      1 OG         33.1400  -13.3400   15.2900 O.3       1 SER1        0.0000 
      2 OG         40.0200  -18.2300   13.5800 O.3       1 SER1        0.0000 
      3 OG         35.1000  -12.7100   14.7900 O.3       1 SER1        0.0000 
      4 OG         34.2000  -12.5500   15.9800 O.3       1 SER1        0.0000 
      5 OG         40.8700  -15.0700   11.9000 O.3       1 SER1        0.0000 
      6 OG         40.5300  -16.1800   13.6800 O.3       1 SER1        0.0000 
      7 OG         41.0400  -14.1200   13.7900 O.3       1 SER1        0.0000 
      8 O          33.8700  -14.4600   12.2100 O.2       2 ALA2        0.0000 
      9 O          32.9700  -14.3000   13.4000 O.2       2 ALA2        0.0000 
     10 N          35.8300  -13.8200   11.7100 N.am      2 ALA2        0.0000 
     11 N          34.9300  -13.6600   12.9000 N.am      2 ALA2        0.0000 
     12 O          34.0400  -13.5000   14.0900 O.2       2 ALA2        0.0000 
     13 O          38.3500  -14.4500   11.8100 O.2       2 ALA2        0.0000 
     14 O          37.8000  -13.1800   11.2200 O.2       2 ALA2        0.0000 
     15 N          37.4500  -14.2900   13.0000 N.am      2 ALA2        0.0000 
     16 O          36.9000  -13.0300   12.4100 O.2       2 ALA2        0.0000 
     17 N          36.5600  -14.1300   14.1900 N.am      2 ALA2        0.0000 
     18 N          35.4400  -11.6000   13.0100 N.am      2 ALA2        0.0000 
     19 N          35.6600  -13.9700   15.3800 N.am      2 ALA2        0.0000 
     20 N          39.4200  -13.6500   12.5100 N.am      2 ALA2        0.0000 
     21 N          39.0700  -14.7500   14.2900 N.am      2 ALA2        0.0000 
     22 N          38.5200  -13.4900   13.7000 N.am      2 ALA2        0.0000 
     23 N          37.9600  -12.2300   13.1100 N.am      2 ALA2        0.0000 
     24 N          38.1800  -14.6000   15.4800 N.am      2 ALA2        0.0000 
     25 N          40.1400  -13.9600   14.9800 N.am      2 ALA2        0.0000 
     26 N          41.2000  -13.1700   15.6800 N.am      2 ALA2        0.0000 
     27 OD1        40.1900  -17.2800   15.4600 O.co2     3 ASP3        0.0000 
     28 OD1        39.6300  -16.0200   14.8700 O.co2     3 ASP3        0.0000 
     29 OD1        41.5900  -15.3800   14.3800 O.co2     3 ASP3        0.0000 
     30 OD1        40.7000  -15.2200   15.5700 O.co2     3 ASP3        0.0000 
     31 OD1        42.6600  -14.5900   15.0800 O.co2     3 ASP3        0.0000 
     32 OD1        41.7600  -14.4300   16.2700 O.co2     3 ASP3        0.0000 
     33 NZ         36.7800  -17.3000   11.0000 N.4       4 LYS4        0.0000 
     34 NZ         32.6300  -15.4000   15.1800 N.4       4 LYS4        0.0000 
     35 NZ         32.0700  -14.1400   14.5900 N.4       4 LYS4        0.0000 
     36 NZ         38.4000  -17.7700   12.2900 N.4       4 LYS4        0.0000 
     37 NZ         32.2400  -13.1800   16.4800 N.4       4 LYS4        0.0000 
     38 CZ         31.9100  -15.0900   12.7000 C.ar      5 PHE5        0.0000 
     39 CZ         34.7600  -13.8100   16.5700 C.ar      5 PHE5        0.0000 
     40 CA         35.8800  -17.1400   12.1900 C.3       6 GLY6        0.0000 
     41 CA         35.3300  -15.8800   11.6100 C.3       6 GLY6        0.0000 
     42 CA         34.4300  -15.7200   12.8000 C.3       6 GLY6        0.0000 
     43 CA         37.8400  -16.5000   11.7000 C.3       6 GLY6        0.0000 
     44 CA         37.2900  -15.2400   11.1100 C.3       6 GLY6        0.0000 
     45 CA         36.3900  -15.0800   12.3000 C.3       6 GLY6        0.0000 
     46 CA         38.9100  -15.7100   12.4000 C.3       6 GLY6        0.0000 
     47 CA         36.0000  -12.8700   13.6000 C.3       6 GLY6        0.0000 
     48 CA         36.7700  -16.4900   16.5600 C.3       6 GLY6        0.0000 
     49 CA         36.2100  -15.2300   15.9700 C.3       6 GLY6        0.0000 
     50 CA         35.3200  -15.0700   17.1600 C.3       6 GLY6        0.0000 
     51 CA         38.7300  -15.8600   16.0600 C.3       6 GLY6        0.0000 
     52 CA         37.2800  -14.4400   16.6700 C.3       6 GLY6        0.0000 
     53 CA         39.8000  -15.0600   16.7600 C.3       6 GLY6        0.0000 
     54 DU         34.9800  -16.9800   13.3800 H         7 CUB7        0.0000 
     55 DU         34.0900  -16.8200   14.5800 H         7 CUB7        0.0000 
     56 DU         33.5300  -15.5600   13.9900 H         7 CUB7        0.0000 
     57 DU         37.5000  -17.6100   13.4800 H         7 CUB7        0.0000 
     58 DU         36.9500  -16.3400   12.8900 H         7 CUB7        0.0000 
     59 DU         35.4900  -14.9200   13.4900 H         7 CUB7        0.0000 
     60 DU         35.7100  -17.2900   15.8600 H         7 CUB7        0.0000 
     61 DU         35.1500  -16.0300   15.2700 H         7 CUB7        0.0000 
     62 DU         34.5900  -14.7600   14.6800 H         7 CUB7        0.0000 
     63 DU         34.2500  -15.8700   16.4600 H         7 CUB7        0.0000 
     64 DU         33.6900  -14.6100   15.8700 H         7 CUB7        0.0000 
     65 DU         39.4700  -16.9700   12.9900 H         7 CUB7        0.0000 
     66 DU         39.1200  -18.0700   14.7700 H         7 CUB7        0.0000 
     67 DU         38.5700  -16.8100   14.1800 H         7 CUB7        0.0000 
     68 DU         38.0100  -15.5500   13.5900 H         7 CUB7        0.0000 
     69 DU         38.2300  -17.9200   15.9600 H         7 CUB7        0.0000 
     70 DU         37.6700  -16.6500   15.3700 H         7 CUB7        0.0000 
     71 DU         37.1100  -15.3900   14.7800 H         7 CUB7        0.0000 
     72 DU         39.9700  -14.9100   13.0900 H         7 CUB7        0.0000 
@<TRIPOS>BOND
@<TRIPOS>SUBSTRUCTURE
     1 SER1        1 GROUP   
     2 ALA2        8 GROUP   
     3 ASP3       27 GROUP   
     4 LYS4       33 GROUP   
     5 PHE5       38 GROUP   
     6 GLY6       40 GROUP   
     7 CUB7       54 GROUP   
@<TRIPOS>SET

