#    Name: 6pf6_1_UMP_CAVITY_N1_12
#    Modification time : Fri May 22 19:28:30 2020

@<TRIPOS>MOLECULE
6pf6_1_UMP_CAVITY_N1_12
  103     0     7     0     0
SMALL
NO_CHARGES


@<TRIPOS>ATOM
      1 OG         33.1400  -13.3400   15.2900 O.3       1 SER1        0.0000 
      2 OG         40.0200  -18.2300   13.5800 O.3       1 SER1        0.0000 
      3 OG         35.1000  -12.7100   14.7900 O.3       1 SER1        0.0000 
      4 OG         34.2000  -12.5500   15.9800 O.3       1 SER1        0.0000 
      5 OG         40.8700  -15.0700   11.9000 O.3       1 SER1        0.0000 
      6 OG         40.5300  -16.1800   13.6800 O.3       1 SER1        0.0000 
      7 OG         41.0400  -14.1200   13.7900 O.3       1 SER1        0.0000 
      8 O          33.8700  -14.4600   12.2100 O.2       2 ALA2        0.0000 
      9 O          32.9700  -14.3000   13.4000 O.2       2 ALA2        0.0000 
     10 N          33.7400  -17.9200   16.3500 N.am      2 ALA2        0.0000 
     11 O          32.2900  -16.5000   16.9600 O.2       2 ALA2        0.0000 
     12 N          35.8300  -13.8200   11.7100 N.am      2 ALA2        0.0000 
     13 N          34.9300  -13.6600   12.9000 N.am      2 ALA2        0.0000 
     14 O          34.0400  -13.5000   14.0900 O.2       2 ALA2        0.0000 
     15 O          35.9200  -19.6500   18.2300 O.2       2 ALA2        0.0000 
     16 N          35.3600  -18.3900   17.6400 N.am      2 ALA2        0.0000 
     17 N          34.8100  -17.1300   17.0500 N.am      2 ALA2        0.0000 
     18 N          34.4700  -18.2300   18.8300 N.am      2 ALA2        0.0000 
     19 O          38.3500  -14.4500   11.8100 O.2       2 ALA2        0.0000 
     20 O          37.8000  -13.1800   11.2200 O.2       2 ALA2        0.0000 
     21 N          37.4500  -14.2900   13.0000 N.am      2 ALA2        0.0000 
     22 O          36.9000  -13.0300   12.4100 O.2       2 ALA2        0.0000 
     23 N          36.5600  -14.1300   14.1900 N.am      2 ALA2        0.0000 
     24 N          35.4400  -11.6000   13.0100 N.am      2 ALA2        0.0000 
     25 O          37.8800  -19.0200   17.7400 O.2       2 ALA2        0.0000 
     26 N          35.6600  -13.9700   15.3800 N.am      2 ALA2        0.0000 
     27 O          36.4300  -17.6000   18.3400 O.2       2 ALA2        0.0000 
     28 N          39.4200  -13.6500   12.5100 N.am      2 ALA2        0.0000 
     29 N          39.0700  -14.7500   14.2900 N.am      2 ALA2        0.0000 
     30 N          38.5200  -13.4900   13.7000 N.am      2 ALA2        0.0000 
     31 N          37.9600  -12.2300   13.1100 N.am      2 ALA2        0.0000 
     32 N          38.1800  -14.6000   15.4800 N.am      2 ALA2        0.0000 
     33 N          40.1400  -13.9600   14.9800 N.am      2 ALA2        0.0000 
     34 N          41.2000  -13.1700   15.6800 N.am      2 ALA2        0.0000 
     35 OD1        40.1900  -17.2800   15.4600 O.co2     3 ASP3        0.0000 
     36 OD1        39.6300  -16.0200   14.8700 O.co2     3 ASP3        0.0000 
     37 OD1        41.5900  -15.3800   14.3800 O.co2     3 ASP3        0.0000 
     38 OD1        40.7000  -15.2200   15.5700 O.co2     3 ASP3        0.0000 
     39 OD1        42.6600  -14.5900   15.0800 O.co2     3 ASP3        0.0000 
     40 OD1        41.7600  -14.4300   16.2700 O.co2     3 ASP3        0.0000 
     41 NZ         37.3400  -18.5600   11.5900 N.4       4 LYS4        0.0000 
     42 NZ         36.7800  -17.3000   11.0000 N.4       4 LYS4        0.0000 
     43 NZ         32.6300  -15.4000   15.1800 N.4       4 LYS4        0.0000 
     44 NZ         32.0700  -14.1400   14.5900 N.4       4 LYS4        0.0000 
     45 NZ         38.4000  -17.7700   12.2900 N.4       4 LYS4        0.0000 
     46 NZ         32.2400  -13.1800   16.4800 N.4       4 LYS4        0.0000 
     47 CZ         31.4000  -17.1500   12.5900 C.ar      5 PHE5        0.0000 
     48 CZ         31.9100  -15.0900   12.7000 C.ar      5 PHE5        0.0000 
     49 CZ         33.9100  -16.9700   18.2400 C.ar      5 PHE5        0.0000 
     50 CZ         33.3500  -15.7100   17.6500 C.ar      5 PHE5        0.0000 
     51 CZ         32.8000  -14.4500   17.0600 C.ar      5 PHE5        0.0000 
     52 CZ         34.7600  -13.8100   16.5700 C.ar      5 PHE5        0.0000 
     53 CZ         34.9700  -16.1800   18.9400 C.ar      5 PHE5        0.0000 
     54 CA         32.3000  -17.3100   11.4000 C.3       6 GLY6        0.0000 
     55 CA         31.9600  -18.4100   13.1800 C.3       6 GLY6        0.0000 
     56 CA         33.3600  -16.5100   12.1000 C.3       6 GLY6        0.0000 
     57 CA         32.8100  -15.2500   11.5100 C.3       6 GLY6        0.0000 
     58 CA         32.6800  -18.7200   15.6600 C.3       6 GLY6        0.0000 
     59 CA         32.1200  -17.4600   15.0700 C.3       6 GLY6        0.0000 
     60 CA         31.5700  -16.1900   14.4800 C.3       6 GLY6        0.0000 
     61 CA         35.8800  -17.1400   12.1900 C.3       6 GLY6        0.0000 
     62 CA         35.3300  -15.8800   11.6100 C.3       6 GLY6        0.0000 
     63 CA         34.4300  -15.7200   12.8000 C.3       6 GLY6        0.0000 
     64 CA         33.1900  -16.6600   15.7700 C.3       6 GLY6        0.0000 
     65 CA         37.8400  -16.5000   11.7000 C.3       6 GLY6        0.0000 
     66 CA         37.2900  -15.2400   11.1100 C.3       6 GLY6        0.0000 
     67 CA         36.3900  -15.0800   12.3000 C.3       6 GLY6        0.0000 
     68 CA         38.9100  -15.7100   12.4000 C.3       6 GLY6        0.0000 
     69 CA         36.0000  -12.8700   13.6000 C.3       6 GLY6        0.0000 
     70 CA         37.3300  -17.7600   17.1500 C.3       6 GLY6        0.0000 
     71 CA         36.7700  -16.4900   16.5600 C.3       6 GLY6        0.0000 
     72 CA         36.2100  -15.2300   15.9700 C.3       6 GLY6        0.0000 
     73 CA         35.8700  -16.3300   17.7500 C.3       6 GLY6        0.0000 
     74 CA         35.3200  -15.0700   17.1600 C.3       6 GLY6        0.0000 
     75 CA         38.7300  -15.8600   16.0600 C.3       6 GLY6        0.0000 
     76 CA         38.3900  -16.9600   17.8400 C.3       6 GLY6        0.0000 
     77 CA         37.2800  -14.4400   16.6700 C.3       6 GLY6        0.0000 
     78 CA         39.8000  -15.0600   16.7600 C.3       6 GLY6        0.0000 
     79 DU         33.9200  -17.7700   12.6900 H         7 CUB7        0.0000 
     80 DU         33.0200  -17.6200   13.8800 H         7 CUB7        0.0000 
     81 DU         32.4600  -16.3500   13.2900 H         7 CUB7        0.0000 
     82 DU         34.9800  -16.9800   13.3800 H         7 CUB7        0.0000 
     83 DU         34.6400  -18.0800   15.1600 H         7 CUB7        0.0000 
     84 DU         34.0900  -16.8200   14.5800 H         7 CUB7        0.0000 
     85 DU         33.5300  -15.5600   13.9900 H         7 CUB7        0.0000 
     86 DU         37.5000  -17.6100   13.4800 H         7 CUB7        0.0000 
     87 DU         36.9500  -16.3400   12.8900 H         7 CUB7        0.0000 
     88 DU         35.4900  -14.9200   13.4900 H         7 CUB7        0.0000 
     89 DU         36.2600  -18.5500   16.4500 H         7 CUB7        0.0000 
     90 DU         35.7100  -17.2900   15.8600 H         7 CUB7        0.0000 
     91 DU         35.1500  -16.0300   15.2700 H         7 CUB7        0.0000 
     92 DU         34.5900  -14.7600   14.6800 H         7 CUB7        0.0000 
     93 DU         34.2500  -15.8700   16.4600 H         7 CUB7        0.0000 
     94 DU         33.6900  -14.6100   15.8700 H         7 CUB7        0.0000 
     95 DU         39.4700  -16.9700   12.9900 H         7 CUB7        0.0000 
     96 DU         39.1200  -18.0700   14.7700 H         7 CUB7        0.0000 
     97 DU         38.5700  -16.8100   14.1800 H         7 CUB7        0.0000 
     98 DU         38.0100  -15.5500   13.5900 H         7 CUB7        0.0000 
     99 DU         38.7800  -19.1800   16.5500 H         7 CUB7        0.0000 
    100 DU         38.2300  -17.9200   15.9600 H         7 CUB7        0.0000 
    101 DU         37.6700  -16.6500   15.3700 H         7 CUB7        0.0000 
    102 DU         37.1100  -15.3900   14.7800 H         7 CUB7        0.0000 
    103 DU         39.9700  -14.9100   13.0900 H         7 CUB7        0.0000 
@<TRIPOS>BOND
@<TRIPOS>SUBSTRUCTURE
     1 SER1        1 GROUP   
     2 ALA2        8 GROUP   
     3 ASP3       35 GROUP   
     4 LYS4       41 GROUP   
     5 PHE5       47 GROUP   
     6 GLY6       54 GROUP   
     7 CUB7       79 GROUP   
@<TRIPOS>SET

