#    Name: 6pf6_4_UMP_CAVITY_N1_4
#    Modification time : Fri May 22 19:28:35 2020

@<TRIPOS>MOLECULE
6pf6_4_UMP_CAVITY_N1_4
  112     0     7     0     0
SMALL
NO_CHARGES


@<TRIPOS>ATOM
      1 OG         18.4400   35.0600   37.4200 O.3       1 SER1        0.0000 
      2 OG         17.8800   36.3200   36.8300 O.3       1 SER1        0.0000 
      3 OG         16.9900   36.4800   38.0200 O.3       1 SER1        0.0000 
      4 OG         18.0500   37.2800   38.7100 O.3       1 SER1        0.0000 
      5 OG         18.6800   42.8000   34.6800 O.3       1 SER1        0.0000 
      6 OG         20.6500   43.4400   34.1800 O.3       1 SER1        0.0000 
      7 OG         19.7500   43.6000   35.3700 O.3       1 SER1        0.0000 
      8 OG         19.1900   44.8600   34.7800 O.3       1 SER1        0.0000 
      9 OG         18.8500   43.7600   36.5600 O.3       1 SER1        0.0000 
     10 OG         18.2900   45.0200   35.9700 O.3       1 SER1        0.0000 
     11 OG         17.7400   46.2800   35.3900 O.3       1 SER1        0.0000 
     12 OG         17.3900   45.1800   37.1600 O.3       1 SER1        0.0000 
     13 OG         16.8400   46.4400   36.5800 O.3       1 SER1        0.0000 
     14 OG         23.1700   42.8100   34.2800 O.3       1 SER1        0.0000 
     15 OG         22.2700   42.9700   35.4700 O.3       1 SER1        0.0000 
     16 OG         20.8100   44.3900   36.0700 O.3       1 SER1        0.0000 
     17 OG         19.7000   46.9200   34.8900 O.3       1 SER1        0.0000 
     18 OG         23.3300   43.7700   36.1600 O.3       1 SER1        0.0000 
     19 OG         21.3200   46.4500   36.1800 O.3       1 SER1        0.0000 
     20 O          20.2400   34.7400   35.0400 O.2       2 ALA2        0.0000 
     21 O          19.6800   36.0100   34.4500 O.2       2 ALA2        0.0000 
     22 N          19.1200   37.2700   33.8600 N.am      2 ALA2        0.0000 
     23 N          18.5700   38.5300   33.2700 N.am      2 ALA2        0.0000 
     24 O          19.3400   34.9000   36.2300 O.2       2 ALA2        0.0000 
     25 O          18.7800   36.1600   35.6400 O.2       2 ALA2        0.0000 
     26 N          18.2300   37.4300   35.0500 N.am      2 ALA2        0.0000 
     27 O          17.6700   38.6900   34.4600 O.2       2 ALA2        0.0000 
     28 O          19.0700   40.5900   33.3800 O.2       2 ALA2        0.0000 
     29 N          18.7300   39.4800   35.1600 N.am      2 ALA2        0.0000 
     30 N          18.1800   40.7500   34.5700 N.am      2 ALA2        0.0000 
     31 N          18.3900   38.3800   36.9400 N.am      2 ALA2        0.0000 
     32 N          17.4900   38.5400   38.1300 N.am      2 ALA2        0.0000 
     33 N          19.8000   40.2800   35.8500 N.am      2 ALA2        0.0000 
     34 N          19.2400   41.5400   35.2600 N.am      2 ALA2        0.0000 
     35 N          19.4600   39.1800   37.6300 N.am      2 ALA2        0.0000 
     36 N          19.4100   42.4900   37.1500 N.am      2 ALA2        0.0000 
     37 N          18.5100   42.6500   38.3400 N.am      2 ALA2        0.0000 
     38 OD1        14.3200   47.0700   36.4800 O.co2     3 ASP3        0.0000 
     39 OD1        17.9500   43.9200   37.7500 O.co2     3 ASP3        0.0000 
     40 OD1        15.3800   47.8600   37.1800 O.co2     3 ASP3        0.0000 
     41 OD1        21.9300   41.8700   37.2500 O.co2     3 ASP3        0.0000 
     42 OD1        21.3700   43.1300   36.6600 O.co2     3 ASP3        0.0000 
     43 OD1        21.0300   42.0300   38.4400 O.co2     3 ASP3        0.0000 
     44 OD1        20.4700   43.2900   37.8500 O.co2     3 ASP3        0.0000 
     45 OD1        19.9100   44.5500   37.2600 O.co2     3 ASP3        0.0000 
     46 OD1        19.3600   45.8100   36.6700 O.co2     3 ASP3        0.0000 
     47 OD1        19.5700   43.4500   39.0400 O.co2     3 ASP3        0.0000 
     48 OD1        19.0200   44.7100   38.4500 O.co2     3 ASP3        0.0000 
     49 OD1        18.4600   45.9700   37.8600 O.co2     3 ASP3        0.0000 
     50 OD1        18.1200   44.8700   39.6400 O.co2     3 ASP3        0.0000 
     51 OD1        17.5600   46.1300   39.0500 O.co2     3 ASP3        0.0000 
     52 OD1        17.0000   47.3900   38.4600 O.co2     3 ASP3        0.0000 
     53 OD1        16.6600   46.2900   40.2400 O.co2     3 ASP3        0.0000 
     54 OD1        22.9900   42.6600   37.9400 O.co2     3 ASP3        0.0000 
     55 OD1        22.4300   43.9200   37.3600 O.co2     3 ASP3        0.0000 
     56 OD1        21.8800   45.1900   36.7700 O.co2     3 ASP3        0.0000 
     57 OD1        20.4200   46.6100   37.3700 O.co2     3 ASP3        0.0000 
     58 NZ         19.9000   33.6400   36.8100 N.4       4 LYS4        0.0000 
     59 NZ         22.6600   40.7600   34.1700 N.4       4 LYS4        0.0000 
     60 NZ         19.8600   47.8700   36.7800 N.4       4 LYS4        0.0000 
     61 CZ         19.5000   35.8600   38.1100 C.ar      5 PHE5        0.0000 
     62 CZ         18.6100   36.0200   39.3000 C.ar      5 PHE5        0.0000 
     63 CZ         18.6300   46.1200   34.1900 C.ar      5 PHE5        0.0000 
     64 CZ         18.0800   47.3800   33.6100 C.ar      5 PHE5        0.0000 
     65 CZ         17.1800   47.5400   34.8000 C.ar      5 PHE5        0.0000 
     66 CA         20.5800   35.8500   33.2600 C.3       6 GLY6        0.0000 
     67 CA         17.3300   37.5900   36.2400 C.3       6 GLY6        0.0000 
     68 CA         21.6400   36.6400   33.9500 C.3       6 GLY6        0.0000 
     69 CA         20.1900   38.0600   34.5500 C.3       6 GLY6        0.0000 
     70 CA         19.6300   39.3200   33.9700 C.3       6 GLY6        0.0000 
     71 CA         22.1500   38.7000   34.0600 C.3       6 GLY6        0.0000 
     72 CA         21.5900   39.9600   33.4700 C.3       6 GLY6        0.0000 
     73 CA         20.7000   40.1200   34.6600 C.3       6 GLY6        0.0000 
     74 CA         20.1400   41.3800   34.0700 C.3       6 GLY6        0.0000 
     75 CA         19.5800   42.6400   33.4800 C.3       6 GLY6        0.0000 
     76 CA         20.0100   37.9100   38.2200 C.3       6 GLY6        0.0000 
     77 CA         16.1100   46.7500   34.1000 C.3       6 GLY6        0.0000 
     78 CA         19.1100   38.0700   39.4100 C.3       6 GLY6        0.0000 
     79 CA         18.5600   39.3300   38.8200 C.3       6 GLY6        0.0000 
     80 CA         22.1000   42.0200   33.5800 C.3       6 GLY6        0.0000 
     81 CA         21.2000   42.1800   34.7700 C.3       6 GLY6        0.0000 
     82 CA         20.5200   39.9700   38.3300 C.3       6 GLY6        0.0000 
     83 CA         19.9600   41.2300   37.7400 C.3       6 GLY6        0.0000 
     84 CA         16.2800   47.7000   35.9900 C.3       6 GLY6        0.0000 
     85 CA         18.2400   48.3400   35.4900 C.3       6 GLY6        0.0000 
     86 CA         18.9700   48.0300   37.9700 C.3       6 GLY6        0.0000 
     87 CA         18.4100   49.2900   37.3800 C.3       6 GLY6        0.0000 
     88 CA         18.0700   48.1900   39.1600 C.3       6 GLY6        0.0000 
     89 CA         17.5100   49.4500   38.5700 C.3       6 GLY6        0.0000 
     90 DU         21.3000   35.5400   35.7300 H         7 CUB7        0.0000 
     91 DU         20.7500   36.8000   35.1400 H         7 CUB7        0.0000 
     92 DU         20.4000   35.7000   36.9200 H         7 CUB7        0.0000 
     93 DU         19.8500   36.9600   36.3300 H         7 CUB7        0.0000 
     94 DU         19.2900   38.2200   35.7500 H         7 CUB7        0.0000 
     95 DU         18.9500   37.1200   37.5200 H         7 CUB7        0.0000 
     96 DU         21.8100   37.6000   35.8400 H         7 CUB7        0.0000 
     97 DU         21.2500   38.8600   35.2500 H         7 CUB7        0.0000 
     98 DU         20.9100   37.7500   37.0300 H         7 CUB7        0.0000 
     99 DU         20.3500   39.0200   36.4400 H         7 CUB7        0.0000 
    100 DU         23.2200   39.4900   34.7600 H         7 CUB7        0.0000 
    101 DU         21.7600   40.9100   35.3600 H         7 CUB7        0.0000 
    102 DU         21.4200   39.8100   37.1400 H         7 CUB7        0.0000 
    103 DU         20.8600   41.0700   36.5500 H         7 CUB7        0.0000 
    104 DU         20.3000   42.3400   35.9600 H         7 CUB7        0.0000 
    105 DU         23.7200   41.5500   34.8700 H         7 CUB7        0.0000 
    106 DU         22.8200   41.7100   36.0600 H         7 CUB7        0.0000 
    107 DU         22.4800   40.6100   37.8400 H         7 CUB7        0.0000 
    108 DU         18.8000   47.0800   36.0800 H         7 CUB7        0.0000 
    109 DU         17.9000   47.2300   37.2700 H         7 CUB7        0.0000 
    110 DU         17.3400   48.5000   36.6800 H         7 CUB7        0.0000 
    111 DU         16.4500   48.6600   37.8700 H         7 CUB7        0.0000 
    112 DU         23.8900   42.5000   36.7500 H         7 CUB7        0.0000 
@<TRIPOS>BOND
@<TRIPOS>SUBSTRUCTURE
     1 SER1        1 GROUP   
     2 ALA2       20 GROUP   
     3 ASP3       38 GROUP   
     4 LYS4       58 GROUP   
     5 PHE5       61 GROUP   
     6 GLY6       66 GROUP   
     7 CUB7       90 GROUP   
@<TRIPOS>SET

