#    Name: 6pf6_1_UMP
#    Modification time : Fri May 22 19:28:28 2020

@<TRIPOS>MOLECULE
6pf6_1_UMP
   20    21     1     0     1
SMALL
NO_CHARGES


@<TRIPOS>ATOM
      1 N1         37.9330  -14.2790   12.9450 N.am      1 UMP600      0.0000 
      2 C2         37.2470  -13.5300   11.9590 C.2       1 UMP600      0.0000 
      3 N3         36.0640  -12.9030   12.3470 N.am      1 UMP600      0.0000 
      4 C4         35.4990  -12.9500   13.6230 C.2       1 UMP600      0.0000 
      5 C5         36.2540  -13.7370   14.5920 C.2       1 UMP600      0.0000 
      6 C6         37.4020  -14.3540   14.2260 C.2       1 UMP600      0.0000 
      7 O2         37.6390  -13.4090   10.8000 O.2       1 UMP600      0.0000 
      8 O4         34.4470  -12.3560   13.8540 O.2       1 UMP600      0.0000 
      9 C1'        39.2260  -14.9970   12.6260 C.3       1 UMP600      0.0000 
     10 C2'        40.3870  -14.0610   12.2710 C.3       1 UMP600      0.0000 
     11 C3'        41.5640  -14.9180   12.7010 C.3       1 UMP600      0.0000 
     12 C4'        41.0320  -15.6320   13.9490 C.3       1 UMP600      0.0000 
     13 O3'        41.9220  -15.8250   11.6780 O.3       1 UMP600      0.0000 
     14 O4'        39.6180  -15.7060   13.7590 O.3       1 UMP600      0.0000 
     15 C5'        41.3550  -14.8850   15.2540 C.3       1 UMP600      0.0000 
     16 O5'        42.7170  -15.0080   15.6320 O.3       1 UMP600      0.0000 
     17 P          43.5610  -13.7780   16.2740 P.3       1 UMP600      0.0000 
     18 OP1        43.6010  -12.7120   15.0560 O.co2     1 UMP600      0.0000 
     19 OP2        43.0740  -13.2710   17.5880 O.co2     1 UMP600      0.0000 
     20 OP3        45.0780  -14.3530   16.2740 O.co2     1 UMP600      0.0000 
@<TRIPOS>BOND
     1    1    2 1    
     2    1    6 1    
     3    1    9 1    
     4    2    3 1    
     5    2    7 2    
     6    3    4 1    
     7    4    5 1    
     8    4    8 2    
     9    5    6 2    
    10    9   10 1    
    11    9   14 1    
    12   10   11 1    
    13   11   12 1    
    14   11   13 1    
    15   12   14 1    
    16   12   15 1    
    17   15   16 1    
    18   16   17 1    
    19   17   18 ar   
    20   17   19 ar   
    21   17   20 ar   
@<TRIPOS>SUBSTRUCTURE
     1 UMP600      1 GROUP   
@<TRIPOS>SET
ATOM$ORANGE STATIC     ATOMS   COLORGROUP SYSTEM 
18 2 2 4 4 5 5 6 6 9 9 10 10 11 11 12 12 15 \
15 

