#    Name: 6pf6_4_UMP
#    Modification time : Fri May 22 19:28:33 2020

@<TRIPOS>MOLECULE
6pf6_4_UMP
   20    21     1     0     1
SMALL
NO_CHARGES


@<TRIPOS>ATOM
      1 N1         19.1730   40.1680   34.9870 N.am      1 UMP600      0.0000 
      2 C2         18.4560   39.3800   34.0580 C.2       1 UMP600      0.0000 
      3 N3         18.0180   38.1270   34.4880 N.am      1 UMP600      0.0000 
      4 C4         18.2270   37.5860   35.7540 C.2       1 UMP600      0.0000 
      5 C5         18.9710   38.4470   36.6630 C.2       1 UMP600      0.0000 
      6 C6         19.4030   39.6650   36.2580 C.2       1 UMP600      0.0000 
      7 O2         18.2110   39.7490   32.9110 O.2       1 UMP600      0.0000 
      8 O4         17.7940   36.4690   36.0250 O.2       1 UMP600      0.0000 
      9 C1'        19.6820   41.5400   34.6080 C.3       1 UMP600      0.0000 
     10 C2'        18.5670   42.5690   34.3960 C.3       1 UMP600      0.0000 
     11 C3'        19.3140   43.8430   34.7380 C.3       1 UMP600      0.0000 
     12 C4'        20.2230   43.4030   35.8920 C.3       1 UMP600      0.0000 
     13 O3'        20.0510   44.2990   33.6240 O.3       1 UMP600      0.0000 
     14 O4'        20.4760   42.0190   35.6460 O.3       1 UMP600      0.0000 
     15 C5'        19.5720   43.5940   37.2760 C.3       1 UMP600      0.0000 
     16 O5'        18.3630   44.3380   37.2250 O.3       1 UMP600      0.0000 
     17 P          17.9900   45.5330   38.2670 P.3       1 UMP600      0.0000 
     18 OP1        16.4470   45.8320   37.8740 O.co2     1 UMP600      0.0000 
     19 OP2        18.8880   46.7200   38.2640 O.co2     1 UMP600      0.0000 
     20 OP3        17.8390   44.7540   39.6800 O.co2     1 UMP600      0.0000 
@<TRIPOS>BOND
     1    1    2 1    
     2    1    6 1    
     3    1    9 1    
     4    2    3 1    
     5    2    7 2    
     6    3    4 1    
     7    4    5 1    
     8    4    8 2    
     9    5    6 2    
    10    9   10 1    
    11    9   14 1    
    12   10   11 1    
    13   11   12 1    
    14   11   13 1    
    15   12   14 1    
    16   12   15 1    
    17   15   16 1    
    18   16   17 1    
    19   17   18 ar   
    20   17   19 ar   
    21   17   20 ar   
@<TRIPOS>SUBSTRUCTURE
     1 UMP600      1 GROUP   
@<TRIPOS>SET
ATOM$ORANGE STATIC     ATOMS   COLORGROUP SYSTEM 
18 2 2 4 4 5 5 6 6 9 9 10 10 11 11 12 12 15 \
15 

