#    Name: 6mfv_4_ADP
#    Modification time : Fri May 22 19:38:53 2020

@<TRIPOS>MOLECULE
6mfv_4_ADP
   27    29     1     0     1
SMALL
NO_CHARGES


@<TRIPOS>ATOM
      1 PB        -92.4920  -35.2390 -140.3720 P.3       1 ADP801      0.0000 
      2 O1B       -93.0340  -33.9380 -140.9690 O.co2     1 ADP801      0.0000 
      3 O2B       -92.2680  -35.1400 -138.8940 O.co2     1 ADP801      0.0000 
      4 O3B       -93.4680  -36.3580 -140.7340 O.co2     1 ADP801      0.0000 
      5 PA        -89.6540  -35.0490 -141.0810 P.3       1 ADP801      0.0000 
      6 O1A       -88.8110  -36.1710 -140.5080 O.co2     1 ADP801      0.0000 
      7 O2A       -89.5640  -33.7580 -140.3710 O.co2     1 ADP801      0.0000 
      8 O3A       -91.1460  -35.5970 -141.1480 O.3       1 ADP801      0.0000 
      9 O5'       -89.2180  -34.9260 -142.6040 O.3       1 ADP801      0.0000 
     10 C5'       -88.8160  -36.0550 -143.4000 C.3       1 ADP801      0.0000 
     11 C4'       -88.4000  -35.5690 -144.7630 C.3       1 ADP801      0.0000 
     12 O4'       -87.4130  -34.5230 -144.6250 O.3       1 ADP801      0.0000 
     13 C3'       -87.7580  -36.6360 -145.6410 C.3       1 ADP801      0.0000 
     14 O3'       -88.7420  -37.2680 -146.4500 O.3       1 ADP801      0.0000 
     15 C2'       -86.7680  -35.8330 -146.4840 C.3       1 ADP801      0.0000 
     16 O2'       -87.4070  -35.2380 -147.6060 O.3       1 ADP801      0.0000 
     17 C1'       -86.3160  -34.7660 -145.4870 C.3       1 ADP801      0.0000 
     18 N9        -85.1740  -35.1550 -144.6670 N.pl3     1 ADP801      0.0000 
     19 C8        -85.1080  -35.1630 -143.2980 C.2       1 ADP801      0.0000 
     20 N7        -83.9480  -35.5420 -142.8200 N.2       1 ADP801      0.0000 
     21 C5        -83.1940  -35.8050 -143.9570 C.ar      1 ADP801      0.0000 
     22 C6        -81.8680  -36.2310 -144.1340 C.ar      1 ADP801      0.0000 
     23 N6        -81.0290  -36.4930 -143.1280 N.pl3     1 ADP801      0.0000 
     24 N1        -81.4220  -36.3800 -145.4010 N.ar      1 ADP801      0.0000 
     25 C2        -82.2560  -36.1220 -146.4120 C.ar      1 ADP801      0.0000 
     26 N3        -83.5270  -35.7170 -146.3640 N.ar      1 ADP801      0.0000 
     27 C4        -83.9410  -35.5730 -145.0990 C.ar      1 ADP801      0.0000 
@<TRIPOS>BOND
     1    1    2 ar   
     2    1    3 ar   
     3    1    4 ar   
     4    1    8 1    
     5    5    6 ar   
     6    5    7 ar   
     7    5    8 1    
     8    5    9 1    
     9    9   10 1    
    10   10   11 1    
    11   11   12 1    
    12   11   13 1    
    13   12   17 1    
    14   13   14 1    
    15   13   15 1    
    16   15   16 1    
    17   15   17 1    
    18   17   18 1    
    19   18   19 1    
    20   18   27 1    
    21   19   20 2    
    22   20   21 1    
    23   21   22 ar   
    24   21   27 ar   
    25   22   23 1    
    26   22   24 ar   
    27   24   25 ar   
    28   25   26 ar   
    29   26   27 ar   
@<TRIPOS>SUBSTRUCTURE
     1 ADP801      1 GROUP   
@<TRIPOS>SET
ATOM$ORANGE STATIC     ATOMS   COLORGROUP SYSTEM 
20 10 10 11 11 13 13 15 15 17 17 19 19 21 21 22 22 25 \
25 27 27 

