#    Name: 6mfv_3_ADP
#    Modification time : Fri May 22 19:38:48 2020

@<TRIPOS>MOLECULE
6mfv_3_ADP
   27    29     1     0     1
SMALL
NO_CHARGES


@<TRIPOS>ATOM
      1 PB        -59.1950  -42.5250 -104.0030 P.3       1 ADP801      0.0000 
      2 O1B       -59.6130  -44.0010 -104.0690 O.co2     1 ADP801      0.0000 
      3 O2B       -60.4550  -41.6600 -103.8820 O.co2     1 ADP801      0.0000 
      4 O3B       -58.2020  -42.2500 -102.9240 O.co2     1 ADP801      0.0000 
      5 PA        -57.6850  -40.9650 -105.9330 P.3       1 ADP801      0.0000 
      6 O1A       -56.2260  -41.3650 -105.7920 O.co2     1 ADP801      0.0000 
      7 O2A       -58.0370  -39.7360 -105.1830 O.co2     1 ADP801      0.0000 
      8 O3A       -58.5600  -42.1940 -105.4270 O.3       1 ADP801      0.0000 
      9 O5'       -57.9670  -40.9220 -107.5160 O.3       1 ADP801      0.0000 
     10 C5'       -57.3460  -41.8100 -108.4710 C.3       1 ADP801      0.0000 
     11 C4'       -57.8180  -41.4890 -109.8690 C.3       1 ADP801      0.0000 
     12 O4'       -57.3840  -40.1610 -110.2330 O.3       1 ADP801      0.0000 
     13 C3'       -57.2750  -42.4200 -110.9490 C.3       1 ADP801      0.0000 
     14 O3'       -58.1740  -43.5000 -111.1750 O.3       1 ADP801      0.0000 
     15 C2'       -57.1810  -41.5150 -112.1810 C.3       1 ADP801      0.0000 
     16 O2'       -58.3820  -41.5250 -112.9450 O.3       1 ADP801      0.0000 
     17 C1'       -56.9110  -40.1340 -111.5680 C.3       1 ADP801      0.0000 
     18 N9        -55.5070  -39.7380 -111.5460 N.pl3     1 ADP801      0.0000 
     19 C8        -54.7810  -39.3650 -110.4440 C.2       1 ADP801      0.0000 
     20 N7        -53.5440  -39.0250 -110.7070 N.2       1 ADP801      0.0000 
     21 C5        -53.4430  -39.1870 -112.0800 C.ar      1 ADP801      0.0000 
     22 C6        -52.3830  -38.9850 -112.9850 C.ar      1 ADP801      0.0000 
     23 N6        -51.1680  -38.5570 -112.6230 N.pl3     1 ADP801      0.0000 
     24 N1        -52.6180  -39.2360 -114.2910 N.ar      1 ADP801      0.0000 
     25 C2        -53.8310  -39.6590 -114.6570 C.ar      1 ADP801      0.0000 
     26 N3        -54.9050  -39.8860 -113.8960 N.ar      1 ADP801      0.0000 
     27 C4        -54.6440  -39.6280 -112.6100 C.ar      1 ADP801      0.0000 
@<TRIPOS>BOND
     1    1    2 ar   
     2    1    3 ar   
     3    1    4 ar   
     4    1    8 1    
     5    5    6 ar   
     6    5    7 ar   
     7    5    8 1    
     8    5    9 1    
     9    9   10 1    
    10   10   11 1    
    11   11   12 1    
    12   11   13 1    
    13   12   17 1    
    14   13   14 1    
    15   13   15 1    
    16   15   16 1    
    17   15   17 1    
    18   17   18 1    
    19   18   19 1    
    20   18   27 1    
    21   19   20 2    
    22   20   21 1    
    23   21   22 ar   
    24   21   27 ar   
    25   22   23 1    
    26   22   24 ar   
    27   24   25 ar   
    28   25   26 ar   
    29   26   27 ar   
@<TRIPOS>SUBSTRUCTURE
     1 ADP801      1 GROUP   
@<TRIPOS>SET
ATOM$ORANGE STATIC     ATOMS   COLORGROUP SYSTEM 
20 10 10 11 11 13 13 15 15 17 17 19 19 21 21 22 22 25 \
25 27 27 

