#    Name: 6mfv_2_ADP
#    Modification time : Fri May 22 19:38:42 2020

@<TRIPOS>MOLECULE
6mfv_2_ADP
   27    29     1     0     1
SMALL
NO_CHARGES


@<TRIPOS>ATOM
      1 PB        -44.3370  -46.8890  -51.9060 P.3       1 ADP801      0.0000 
      2 O1B       -44.0570  -46.8410  -53.3740 O.co2     1 ADP801      0.0000 
      3 O2B       -45.1130  -48.1480  -51.5000 O.co2     1 ADP801      0.0000 
      4 O3B       -45.1160  -45.6590  -51.4170 O.co2     1 ADP801      0.0000 
      5 PA        -41.5480  -47.5800  -51.2280 P.3       1 ADP801      0.0000 
      6 O1A       -40.7050  -46.6150  -52.0590 O.co2     1 ADP801      0.0000 
      7 O2A       -41.6600  -48.9560  -51.7800 O.co2     1 ADP801      0.0000 
      8 O3A       -42.9800  -46.9010  -51.0630 O.3       1 ADP801      0.0000 
      9 O5'       -40.8780  -47.5650  -49.7690 O.3       1 ADP801      0.0000 
     10 C5'       -40.2050  -46.4270  -49.1930 C.3       1 ADP801      0.0000 
     11 C4'       -39.6390  -46.7950  -47.8440 C.3       1 ADP801      0.0000 
     12 O4'       -38.5580  -47.7410  -48.0040 O.3       1 ADP801      0.0000 
     13 C3'       -39.0370  -45.6350  -47.0600 C.3       1 ADP801      0.0000 
     14 O3'       -40.0220  -44.9760  -46.2740 O.3       1 ADP801      0.0000 
     15 C2'       -38.0010  -46.3310  -46.1770 C.3       1 ADP801      0.0000 
     16 O2'       -38.5900  -46.8780  -45.0030 O.3       1 ADP801      0.0000 
     17 C1'       -37.5040  -47.4460  -47.1020 C.3       1 ADP801      0.0000 
     18 N9        -36.3170  -47.1010  -47.8800 N.pl3     1 ADP801      0.0000 
     19 C8        -36.2100  -47.0970  -49.2450 C.2       1 ADP801      0.0000 
     20 N7        -35.0160  -46.7860  -49.6900 N.2       1 ADP801      0.0000 
     21 C5        -34.2840  -46.5640  -48.5330 C.ar      1 ADP801      0.0000 
     22 C6        -32.9410  -46.2070  -48.3160 C.ar      1 ADP801      0.0000 
     23 N6        -32.0600  -46.0000  -49.3010 N.pl3     1 ADP801      0.0000 
     24 N1        -32.5260  -46.0730  -47.0380 N.ar      1 ADP801      0.0000 
     25 C2        -33.4030  -46.2820  -46.0510 C.ar      1 ADP801      0.0000 
     26 N3        -34.6920  -46.6230  -46.1350 N.ar      1 ADP801      0.0000 
     27 C4        -35.0740  -46.7500  -47.4100 C.ar      1 ADP801      0.0000 
@<TRIPOS>BOND
     1    1    2 ar   
     2    1    3 ar   
     3    1    4 ar   
     4    1    8 1    
     5    5    6 ar   
     6    5    7 ar   
     7    5    8 1    
     8    5    9 1    
     9    9   10 1    
    10   10   11 1    
    11   11   12 1    
    12   11   13 1    
    13   12   17 1    
    14   13   14 1    
    15   13   15 1    
    16   15   16 1    
    17   15   17 1    
    18   17   18 1    
    19   18   19 1    
    20   18   27 1    
    21   19   20 2    
    22   20   21 1    
    23   21   22 ar   
    24   21   27 ar   
    25   22   23 1    
    26   22   24 ar   
    27   24   25 ar   
    28   25   26 ar   
    29   26   27 ar   
@<TRIPOS>SUBSTRUCTURE
     1 ADP801      1 GROUP   
@<TRIPOS>SET
ATOM$ORANGE STATIC     ATOMS   COLORGROUP SYSTEM 
20 10 10 11 11 13 13 15 15 17 17 19 19 21 21 22 22 25 \
25 27 27 

