#    Name: 5z79_20_PAB_CAVITY_N1_12
#    Modification time : Fri May 22 19:29:47 2020

@<TRIPOS>MOLECULE
5z79_20_PAB_CAVITY_N1_12
   83     0     7     0     0
SMALL
NO_CHARGES


@<TRIPOS>ATOM
      1 OG        -31.4000   23.1600  -72.1500 O.3       1 SER1        0.0000 
      2 OG        -30.4000   26.9100  -68.1000 O.3       1 SER1        0.0000 
      3 O         -31.4600   24.1500  -70.2700 O.2       2 ALA2        0.0000 
      4 N         -31.3700   25.4700  -70.9700 N.am      2 ALA2        0.0000 
      5 O         -30.4300   24.6000  -69.2800 O.2       2 ALA2        0.0000 
      6 N         -31.4300   26.4600  -69.0900 N.am      2 ALA2        0.0000 
      7 N         -30.3400   25.9200  -69.9700 N.am      2 ALA2        0.0000 
      8 N         -30.2400   27.2500  -70.6700 N.am      2 ALA2        0.0000 
      9 O         -29.2100   27.7000  -69.6700 O.2       2 ALA2        0.0000 
     10 N         -25.4000   19.9000  -67.8400 N.am      2 ALA2        0.0000 
     11 O         -23.2500   22.1200  -66.5400 O.2       2 ALA2        0.0000 
     12 O         -23.2100   24.4300  -65.3600 O.2       2 ALA2        0.0000 
     13 OD1       -30.2800   24.9300  -71.8500 O.co2     3 ASP3        0.0000 
     14 OD1       -29.1900   24.3900  -72.7300 O.co2     3 ASP3        0.0000 
     15 OD1       -28.1000   23.8500  -73.6100 O.co2     3 ASP3        0.0000 
     16 OD1       -27.0100   23.3100  -74.4900 O.co2     3 ASP3        0.0000 
     17 OD1       -26.9200   24.6400  -75.1800 O.co2     3 ASP3        0.0000 
     18 OD1       -28.2600   23.5200  -71.0400 O.co2     3 ASP3        0.0000 
     19 OD1       -29.2500   25.3800  -70.8500 O.co2     3 ASP3        0.0000 
     20 OD1       -28.1600   24.8400  -71.7300 O.co2     3 ASP3        0.0000 
     21 OD1       -27.0700   24.3000  -72.6100 O.co2     3 ASP3        0.0000 
     22 OD1       -29.1500   26.7100  -71.5500 O.co2     3 ASP3        0.0000 
     23 OD1       -27.3300   22.6400  -69.3500 O.co2     3 ASP3        0.0000 
     24 OD1       -27.2300   23.9700  -70.0400 O.co2     3 ASP3        0.0000 
     25 OD1       -27.1300   25.2900  -70.7400 O.co2     3 ASP3        0.0000 
     26 OD1       -27.0400   26.6200  -71.4300 O.co2     3 ASP3        0.0000 
     27 OD1       -25.9500   26.0800  -72.3100 O.co2     3 ASP3        0.0000 
     28 OD1       -25.3000   21.2200  -68.5300 O.co2     3 ASP3        0.0000 
     29 OD1       -26.3000   23.0900  -68.3500 O.co2     3 ASP3        0.0000 
     30 OD1       -24.3700   20.3500  -66.8400 O.co2     3 ASP3        0.0000 
     31 OD1       -22.2600   20.2500  -66.7300 O.co2     3 ASP3        0.0000 
     32 NZ        -32.3900   25.0300  -71.9700 N.4       4 LYS4        0.0000 
     33 NZ        -30.2200   23.9400  -73.7200 N.4       4 LYS4        0.0000 
     34 NZ        -29.1300   23.4000  -74.6000 N.4       4 LYS4        0.0000 
     35 NZ        -26.9500   22.3200  -76.3600 N.4       4 LYS4        0.0000 
     36 CZ        -30.3100   22.6200  -73.0300 C.ar      5 PHE5        0.0000 
     37 CZ        -29.2300   22.0800  -73.9100 C.ar      5 PHE5        0.0000 
     38 CZ        -29.2900   23.0700  -72.0300 C.ar      5 PHE5        0.0000 
     39 CZ        -28.2000   22.5300  -72.9100 C.ar      5 PHE5        0.0000 
     40 CZ        -26.0200   21.4500  -74.6700 C.ar      5 PHE5        0.0000 
     41 CZ        -28.3500   22.1900  -70.3400 C.ar      5 PHE5        0.0000 
     42 CZ        -27.4200   21.3100  -68.6500 C.ar      5 PHE5        0.0000 
     43 CZ        -26.3300   20.7700  -69.5300 C.ar      5 PHE5        0.0000 
     44 CZ        -29.4100   25.0500  -68.2800 C.ar      5 PHE5        0.0000 
     45 CZ        -28.3200   24.5100  -69.1600 C.ar      5 PHE5        0.0000 
     46 CZ        -29.3100   26.3700  -68.9800 C.ar      5 PHE5        0.0000 
     47 CZ        -28.2200   25.8300  -69.8600 C.ar      5 PHE5        0.0000 
     48 CZ        -28.1300   27.1600  -70.5500 C.ar      5 PHE5        0.0000 
     49 CZ        -27.3900   23.6300  -67.4700 C.ar      5 PHE5        0.0000 
     50 CZ        -26.2000   24.4100  -69.0500 C.ar      5 PHE5        0.0000 
     51 CZ        -26.1100   25.7400  -69.7400 C.ar      5 PHE5        0.0000 
     52 CZ        -26.3600   24.0800  -66.4700 C.ar      5 PHE5        0.0000 
     53 CZ        -25.2700   23.5400  -67.3500 C.ar      5 PHE5        0.0000 
     54 CZ        -26.5100   23.7400  -63.9000 C.ar      5 PHE5        0.0000 
     55 CZ        -24.2400   23.9900  -66.3600 C.ar      5 PHE5        0.0000 
     56 CZ        -25.4800   24.1900  -62.9100 C.ar      5 PHE5        0.0000 
     57 CZ        -24.3600   25.9600  -62.6100 C.ar      5 PHE5        0.0000 
     58 CZ        -23.2700   25.4200  -63.4900 C.ar      5 PHE5        0.0000 
     59 CA        -30.1600   22.9600  -75.6000 C.3       6 GLY6        0.0000 
     60 CA        -29.0700   22.4200  -76.4800 C.3       6 GLY6        0.0000 
     61 CA        -28.1400   21.5400  -74.7900 C.3       6 GLY6        0.0000 
     62 CA        -28.0400   22.8600  -75.4800 C.3       6 GLY6        0.0000 
     63 CA        -27.9500   24.1900  -76.1800 C.3       6 GLY6        0.0000 
     64 CA        -26.8600   23.6500  -77.0600 C.3       6 GLY6        0.0000 
     65 CA        -30.3700   23.6100  -71.1500 C.3       6 GLY6        0.0000 
     66 CA        -25.9300   22.7700  -75.3700 C.3       6 GLY6        0.0000 
     67 CA        -29.4400   22.7300  -69.4600 C.3       6 GLY6        0.0000 
     68 CA        -28.4100   23.1800  -68.4700 C.3       6 GLY6        0.0000 
     69 CA        -26.3900   21.7600  -67.6500 C.3       6 GLY6        0.0000 
     70 CA        -23.2800   19.8100  -67.7200 C.3       6 GLY6        0.0000 
     71 CA        -25.3600   22.2100  -66.6600 C.3       6 GLY6        0.0000 
     72 CA        -24.2800   21.6700  -67.5400 C.3       6 GLY6        0.0000 
     73 CA        -23.1900   21.1300  -68.4200 C.3       6 GLY6        0.0000 
     74 CA        -24.4300   21.3300  -64.9700 C.3       6 GLY6        0.0000 
     75 CA        -25.4200   23.2000  -64.7800 C.3       6 GLY6        0.0000 
     76 CA        -24.3400   22.6600  -65.6600 C.3       6 GLY6        0.0000 
     77 CA        -25.5800   22.8600  -62.2100 C.3       6 GLY6        0.0000 
     78 CA        -24.4900   22.3200  -63.0900 C.3       6 GLY6        0.0000 
     79 CA        -24.4000   23.6500  -63.7900 C.3       6 GLY6        0.0000 
     80 CA        -23.3100   23.1100  -64.6700 C.3       6 GLY6        0.0000 
     81 CA        -23.3700   24.1000  -62.7900 C.3       6 GLY6        0.0000 
     82 DU        -29.3500   24.0600  -70.1600 H         7 CUB7        0.0000 
     83 DU        -24.4600   24.6400  -61.9100 H         7 CUB7        0.0000 
@<TRIPOS>BOND
@<TRIPOS>SUBSTRUCTURE
     1 SER1        1 GROUP   
     2 ALA2        3 GROUP   
     3 ASP3       13 GROUP   
     4 LYS4       32 GROUP   
     5 PHE5       36 GROUP   
     6 GLY6       59 GROUP   
     7 CUB7       82 GROUP   
@<TRIPOS>SET

