#    Name: 5z79_13_5AD_CAVITY_N1_12
#    Modification time : Fri May 22 19:29:06 2020

@<TRIPOS>MOLECULE
5z79_13_5AD_CAVITY_N1_12
   74     0     7     0     0
SMALL
NO_CHARGES


@<TRIPOS>ATOM
      1 OG       -109.7900   22.1500  -20.1500 O.3       1 SER1        0.0000 
      2 OG       -109.6900   23.4800  -20.8400 O.3       1 SER1        0.0000 
      3 OG       -108.8500   21.2700  -18.4600 O.3       1 SER1        0.0000 
      4 OG       -108.6600   23.9300  -19.8500 O.3       1 SER1        0.0000 
      5 OG       -107.5800   23.3900  -20.7300 O.3       1 SER1        0.0000 
      6 O        -111.8800   18.9400  -23.3200 O.2       2 ALA2        0.0000 
      7 N        -111.7800   20.2700  -24.0200 N.am      2 ALA2        0.0000 
      8 N        -110.6900   19.7300  -24.9000 N.am      2 ALA2        0.0000 
      9 N        -110.6000   21.0500  -25.5900 N.am      2 ALA2        0.0000 
     10 N        -110.7500   20.7100  -23.0200 N.am      2 ALA2        0.0000 
     11 N        -111.9000   22.2400  -20.2700 N.am      2 ALA2        0.0000 
     12 N        -110.8200   21.7000  -21.1400 N.am      2 ALA2        0.0000 
     13 O        -106.9000   15.2300  -20.0100 O.2       2 ALA2        0.0000 
     14 O        -106.8100   16.5500  -20.7000 O.2       2 ALA2        0.0000 
     15 N        -110.7800   24.0200  -19.9600 N.am      2 ALA2        0.0000 
     16 N        -109.8500   23.1400  -18.2700 N.am      2 ALA2        0.0000 
     17 N        -109.7500   24.4700  -18.9700 N.am      2 ALA2        0.0000 
     18 N        -108.5700   25.2500  -20.5400 N.am      2 ALA2        0.0000 
     19 OD1      -108.5800   19.6300  -24.7800 O.co2     3 ASP3        0.0000 
     20 OD1      -107.4900   19.0900  -25.6600 O.co2     3 ASP3        0.0000 
     21 OD1      -109.5700   21.5000  -24.6000 O.co2     3 ASP3        0.0000 
     22 NZ       -108.6400   20.6200  -22.9000 N.4       4 LYS4        0.0000 
     23 NZ       -107.5500   20.0800  -23.7800 N.4       4 LYS4        0.0000 
     24 NZ       -106.4600   19.5400  -24.6600 N.4       4 LYS4        0.0000 
     25 NZ       -108.5400   21.9500  -23.6000 N.4       4 LYS4        0.0000 
     26 NZ       -107.4600   21.4100  -24.4800 N.4       4 LYS4        0.0000 
     27 NZ       -105.5300   18.6700  -22.9700 N.4       4 LYS4        0.0000 
     28 NZ       -107.6100   21.0700  -21.9100 N.4       4 LYS4        0.0000 
     29 NZ       -106.5200   20.5300  -22.7900 N.4       4 LYS4        0.0000 
     30 NZ       -105.4300   19.9900  -23.6700 N.4       4 LYS4        0.0000 
     31 NZ       -108.6000   22.9400  -21.7200 N.4       4 LYS4        0.0000 
     32 CZ       -109.8600   17.5200  -22.5100 C.ar      5 PHE5        0.0000 
     33 CZ       -110.8500   19.3900  -22.3200 C.ar      5 PHE5        0.0000 
     34 CZ       -108.9300   16.6500  -20.8200 C.ar      5 PHE5        0.0000 
     35 CZ       -108.8300   17.9700  -21.5100 C.ar      5 PHE5        0.0000 
     36 CZ       -110.9100   20.3800  -20.4500 C.ar      5 PHE5        0.0000 
     37 CZ       -109.8200   19.8400  -21.3300 C.ar      5 PHE5        0.0000 
     38 CZ       -107.9000   17.0900  -19.8200 C.ar      5 PHE5        0.0000 
     39 CZ       -108.8900   18.9600  -19.6400 C.ar      5 PHE5        0.0000 
     40 CZ       -107.8000   18.4200  -20.5200 C.ar      5 PHE5        0.0000 
     41 CZ       -109.8800   20.8300  -19.4500 C.ar      5 PHE5        0.0000 
     42 CZ       -108.7900   20.2900  -20.3300 C.ar      5 PHE5        0.0000 
     43 CZ       -107.7100   19.7500  -21.2100 C.ar      5 PHE5        0.0000 
     44 CZ       -108.7000   21.6100  -21.0300 C.ar      5 PHE5        0.0000 
     45 CZ       -107.9600   18.0800  -17.9500 C.ar      5 PHE5        0.0000 
     46 CZ       -106.8700   17.5400  -18.8300 C.ar      5 PHE5        0.0000 
     47 CZ       -105.7800   17.0000  -19.7100 C.ar      5 PHE5        0.0000 
     48 CZ       -107.8600   19.4100  -18.6400 C.ar      5 PHE5        0.0000 
     49 CZ       -106.7700   18.8700  -19.5200 C.ar      5 PHE5        0.0000 
     50 CZ       -105.6900   18.3300  -20.4000 C.ar      5 PHE5        0.0000 
     51 CZ       -105.5900   19.6500  -21.1000 C.ar      5 PHE5        0.0000 
     52 CA       -111.6900   21.5900  -24.7100 C.3       6 GLY6        0.0000 
     53 CA       -111.7500   22.5800  -22.8400 C.3       6 GLY6        0.0000 
     54 CA       -110.6600   22.0400  -23.7200 C.3       6 GLY6        0.0000 
     55 CA       -111.8100   23.5700  -20.9600 C.3       6 GLY6        0.0000 
     56 CA       -110.7200   23.0300  -21.8400 C.3       6 GLY6        0.0000 
     57 CA       -109.6300   22.4900  -22.7200 C.3       6 GLY6        0.0000 
     58 CA       -111.7100   24.8900  -21.6600 C.3       6 GLY6        0.0000 
     59 CA       -110.9700   21.3700  -18.5700 C.3       6 GLY6        0.0000 
     60 CA       -110.8800   22.6900  -19.2700 C.3       6 GLY6        0.0000 
     61 CA       -110.6800   25.3400  -20.6600 C.3       6 GLY6        0.0000 
     62 CA       -109.6000   24.8000  -21.5400 C.3       6 GLY6        0.0000 
     63 CA       -108.9500   19.9500  -17.7600 C.3       6 GLY6        0.0000 
     64 DU       -109.7600   18.8500  -23.2000 H         7 CUB7        0.0000 
     65 DU       -109.6700   20.1700  -23.9000 H         7 CUB7        0.0000 
     66 DU       -107.7400   17.4300  -22.3900 H         7 CUB7        0.0000 
     67 DU       -108.7300   19.3000  -22.2100 H         7 CUB7        0.0000 
     68 DU       -107.6500   18.7600  -23.0900 H         7 CUB7        0.0000 
     69 DU       -106.5600   18.2200  -23.9700 H         7 CUB7        0.0000 
     70 DU       -109.7300   21.1600  -22.0200 H         7 CUB7        0.0000 
     71 DU       -106.7100   17.8800  -21.4000 H         7 CUB7        0.0000 
     72 DU       -105.6300   17.3400  -22.2800 H         7 CUB7        0.0000 
     73 DU       -106.6200   19.2100  -22.0900 H         7 CUB7        0.0000 
     74 DU       -104.6000   17.7900  -21.2800 H         7 CUB7        0.0000 
@<TRIPOS>BOND
@<TRIPOS>SUBSTRUCTURE
     1 SER1        1 GROUP   
     2 ALA2        6 GROUP   
     3 ASP3       19 GROUP   
     4 LYS4       22 GROUP   
     5 PHE5       32 GROUP   
     6 GLY6       52 GROUP   
     7 CUB7       64 GROUP   
@<TRIPOS>SET

