#    Name: 5z79_19_HH2
#    Modification time : Fri May 22 19:29:37 2020

@<TRIPOS>MOLECULE
5z79_19_HH2
   22    23     1     0     0
SMALL
NO_CHARGES


@<TRIPOS>ATOM
      1 N1        -27.3460   23.7280  -73.1250 N.ar      1 HH21101     0.0000 
      2 C2        -28.4010   24.2280  -72.4120 C.ar      1 HH21101     0.0000 
      3 C3        -29.6730   24.2990  -73.0000 C.ar      1 HH21101     0.0000 
      4 N4        -29.8910   23.8980  -74.2660 N.ar      1 HH21101     0.0000 
      5 N5        -29.0610   22.9900  -76.2820 N.2       1 HH21101     0.0000 
      6 C6        -28.0310   22.5000  -77.0160 C.2       1 HH21101     0.0000 
      7 N6        -28.2590   22.0960  -78.2890 N.pl3     1 HH21101     0.0000 
      8 N7        -26.7840   22.3910  -76.5310 N.am      1 HH21101     0.0000 
      9 C8        -26.4660   22.7630  -75.2900 C.2       1 HH21101     0.0000 
     10 O8        -25.2880   22.6300  -74.9160 O.2       1 HH21101     0.0000 
     11 C9        -27.5300   23.3140  -74.4070 C.ar      1 HH21101     0.0000 
     12 C10       -28.8780   23.4050  -75.0100 C.ar      1 HH21101     0.0000 
     13 C11       -28.2450   24.7120  -70.9710 C.3       1 HH21101     0.0000 
     14 O4        -27.8410   26.1010  -70.8520 O.3       1 HH21101     0.0000 
     15 P1        -28.7750   27.3410  -70.3530 P.3       1 HH21101     0.0000 
     16 O1P       -28.7850   28.3520  -71.4600 O.co2     1 HH21101     0.0000 
     17 O2P       -28.2930   27.8560  -69.0190 O.co2     1 HH21101     0.0000 
     18 O3P       -30.2940   26.7940  -70.2060 O.3       1 HH21101     0.0000 
     19 P2        -30.8590   25.9110  -68.9660 P.3       1 HH21101     0.0000 
     20 O4P       -31.5720   24.7200  -69.5710 O.co2     1 HH21101     0.0000 
     21 O5P       -31.7920   26.8670  -68.2700 O.co2     1 HH21101     0.0000 
     22 O6P       -29.6440   25.4910  -68.1840 O.co2     1 HH21101     0.0000 
@<TRIPOS>BOND
     1    1    2 ar   
     2    1   11 ar   
     3    2    3 ar   
     4    2   13 1    
     5    3    4 ar   
     6    4   12 ar   
     7    5    6 2    
     8    5   12 1    
     9    6    7 1    
    10    6    8 1    
    11    8    9 am   
    12    9   10 2    
    13    9   11 1    
    14   11   12 ar   
    15   13   14 1    
    16   14   15 1    
    17   15   16 ar   
    18   15   17 ar   
    19   15   18 1    
    20   18   19 1    
    21   19   20 ar   
    22   19   21 ar   
    23   19   22 ar   
@<TRIPOS>SUBSTRUCTURE
     1 HH21101     1 GROUP   
@<TRIPOS>SET

