#    Name: 5z79_15_PE0
#    Modification time : Fri May 22 19:29:17 2020

@<TRIPOS>MOLECULE
5z79_15_PE0
   12    13     1     0     0
SMALL
NO_CHARGES


@<TRIPOS>ATOM
      1 C1        -98.2410   18.7710  -21.1310 C.ar      1 PE01105     0.0000 
      2 C4        -97.3880   19.9530  -21.2540 C.2       1 PE01105     0.0000 
      3 O4        -97.7100   20.8830  -22.0010 O.2       1 PE01105     0.0000 
      4 N2        -96.2600   19.9900  -20.5710 N.am      1 PE01105     0.0000 
      5 C3        -95.8930   19.0020  -19.7760 C.2       1 PE01105     0.0000 
      6 N6        -94.7350   19.0790  -19.1120 N.pl3     1 PE01105     0.0000 
      7 N1        -96.6260   17.9060  -19.6120 N.2       1 PE01105     0.0000 
      8 C2        -97.7760   17.7290  -20.2350 C.ar      1 PE01105     0.0000 
      9 N3        -98.5020   16.6360  -20.0830 N.ar      1 PE01105     0.0000 
     10 C6        -99.6460   16.5100  -20.7350 C.ar      1 PE01105     0.0000 
     11 C5       -100.1040   17.4840  -21.5900 C.ar      1 PE01105     0.0000 
     12 N4        -99.4030   18.6040  -21.7820 N.ar      1 PE01105     0.0000 
@<TRIPOS>BOND
     1    1    2 1    
     2    1    8 ar   
     3    1   12 ar   
     4    2    3 2    
     5    2    4 am   
     6    4    5 1    
     7    5    6 1    
     8    5    7 2    
     9    7    8 1    
    10    8    9 ar   
    11    9   10 ar   
    12   10   11 ar   
    13   11   12 ar   
@<TRIPOS>SUBSTRUCTURE
     1 PE01105     1 GROUP   
@<TRIPOS>SET

