#    Name: 5z79_11_PE0
#    Modification time : Fri May 22 19:28:54 2020

@<TRIPOS>MOLECULE
5z79_11_PE0
   12    13     1     0     0
SMALL
NO_CHARGES


@<TRIPOS>ATOM
      1 C1        -43.8790   30.3510   19.9200 C.ar      1 PE01105     0.0000 
      2 C4        -43.7870   29.7800   18.5990 C.2       1 PE01105     0.0000 
      3 O4        -42.7250   29.3060   18.2180 O.2       1 PE01105     0.0000 
      4 N2        -44.8490   29.7990   17.8290 N.am      1 PE01105     0.0000 
      5 C3        -45.9880   30.3240   18.2220 C.2       1 PE01105     0.0000 
      6 N6        -47.0370   30.3270   17.4110 N.pl3     1 PE01105     0.0000 
      7 N1        -46.1550   30.8420   19.4270 N.2       1 PE01105     0.0000 
      8 C2        -45.1540   30.8940   20.3170 C.ar      1 PE01105     0.0000 
      9 N3        -45.2750   31.4350   21.5330 N.ar      1 PE01105     0.0000 
     10 C6        -44.2350   31.4600   22.3410 C.ar      1 PE01105     0.0000 
     11 C5        -43.0220   30.9350   21.9640 C.ar      1 PE01105     0.0000 
     12 N4        -42.8730   30.3910   20.7710 N.ar      1 PE01105     0.0000 
@<TRIPOS>BOND
     1    1    2 1    
     2    1    8 ar   
     3    1   12 ar   
     4    2    3 2    
     5    2    4 am   
     6    4    5 1    
     7    5    6 1    
     8    5    7 2    
     9    7    8 1    
    10    8    9 ar   
    11    9   10 ar   
    12   10   11 ar   
    13   11   12 ar   
@<TRIPOS>SUBSTRUCTURE
     1 PE01105     1 GROUP   
@<TRIPOS>SET

