#    Name: 5z79_3_PAB_CAVITY_N1_4
#    Modification time : Fri May 22 19:28:07 2020

@<TRIPOS>MOLECULE
5z79_3_PAB_CAVITY_N1_4
   44     0     5     0     0
SMALL
NO_CHARGES


@<TRIPOS>ATOM
      1 O         -32.3500  -30.7600  -19.7700 O.2       1 ALA2        0.0000 
      2 N         -28.3400  -30.2900  -15.0900 N.am      1 ALA2        0.0000 
      3 O         -27.2500  -30.8300  -15.9700 O.2       1 ALA2        0.0000 
      4 O         -25.1300  -30.9200  -15.8500 O.2       1 ALA2        0.0000 
      5 OD1       -33.5400  -31.5400  -18.1900 O.co2     2 ASP3        0.0000 
      6 OD1       -32.4100  -29.7700  -17.8900 O.co2     2 ASP3        0.0000 
      7 OD1       -32.3200  -28.4400  -18.5900 O.co2     2 ASP3        0.0000 
      8 OD1       -25.0700  -31.9100  -17.7300 O.co2     2 ASP3        0.0000 
      9 OD1       -24.9800  -30.5800  -18.4200 O.co2     2 ASP3        0.0000 
     10 OD1       -24.9400  -28.2700  -17.2400 O.co2     2 ASP3        0.0000 
     11 CZ        -32.3900  -33.0700  -20.9500 C.ar      3 PHE5        0.0000 
     12 CZ        -31.3600  -32.6200  -19.9500 C.ar      3 PHE5        0.0000 
     13 CZ        -31.2700  -31.3000  -20.6500 C.ar      3 PHE5        0.0000 
     14 CZ        -30.2400  -30.8500  -19.6500 C.ar      3 PHE5        0.0000 
     15 CZ        -29.2100  -30.4000  -18.6500 C.ar      3 PHE5        0.0000 
     16 CZ        -28.1800  -29.9500  -17.6600 C.ar      3 PHE5        0.0000 
     17 CZ        -27.0900  -30.4900  -18.5400 C.ar      3 PHE5        0.0000 
     18 CZ        -26.0100  -31.0300  -19.4200 C.ar      3 PHE5        0.0000 
     19 CZ        -26.1600  -31.3700  -16.8500 C.ar      3 PHE5        0.0000 
     20 CZ        -28.2400  -28.9600  -15.7800 C.ar      3 PHE5        0.0000 
     21 CZ        -27.1500  -29.5000  -16.6600 C.ar      3 PHE5        0.0000 
     22 CZ        -25.0400  -29.5900  -16.5500 C.ar      3 PHE5        0.0000 
     23 CZ        -24.0100  -29.1500  -15.5500 C.ar      3 PHE5        0.0000 
     24 CA        -33.4800  -32.5300  -20.0700 C.3       4 GLY6        0.0000 
     25 CA        -33.6300  -32.8700  -17.4900 C.3       4 GLY6        0.0000 
     26 CA        -32.5500  -33.4100  -18.3700 C.3       4 GLY6        0.0000 
     27 CA        -32.4500  -32.0800  -19.0700 C.3       4 GLY6        0.0000 
     28 CA        -31.4200  -31.6300  -18.0700 C.3       4 GLY6        0.0000 
     29 CA        -31.3300  -30.3100  -18.7700 C.3       4 GLY6        0.0000 
     30 CA        -30.3900  -31.1900  -17.0800 C.3       4 GLY6        0.0000 
     31 CA        -31.3900  -29.3200  -16.8900 C.3       4 GLY6        0.0000 
     32 CA        -30.3000  -29.8600  -17.7700 C.3       4 GLY6        0.0000 
     33 CA        -31.2900  -27.9900  -17.5900 C.3       4 GLY6        0.0000 
     34 CA        -30.2000  -28.5300  -18.4700 C.3       4 GLY6        0.0000 
     35 CA        -30.4500  -30.2000  -15.2000 C.3       4 GLY6        0.0000 
     36 CA        -29.3700  -30.7400  -16.0800 C.3       4 GLY6        0.0000 
     37 CA        -28.2800  -31.2800  -16.9600 C.3       4 GLY6        0.0000 
     38 CA        -30.3600  -28.8700  -15.9000 C.3       4 GLY6        0.0000 
     39 CA        -30.2600  -27.5500  -16.5900 C.3       4 GLY6        0.0000 
     40 CA        -27.0600  -28.1800  -17.3600 C.3       4 GLY6        0.0000 
     41 CA        -25.9700  -28.7200  -18.2400 C.3       4 GLY6        0.0000 
     42 CA        -24.1100  -30.4700  -14.8500 C.3       4 GLY6        0.0000 
     43 DU        -29.2700  -29.4100  -16.7800 H         5 CUB7        0.0000 
     44 DU        -26.0700  -30.0400  -17.5400 H         5 CUB7        0.0000 
@<TRIPOS>BOND
@<TRIPOS>SUBSTRUCTURE
     1 ALA2        1 GROUP   
     2 ASP3        5 GROUP   
     3 PHE5       11 GROUP   
     4 GLY6       24 GROUP   
     5 CUB7       43 GROUP   
@<TRIPOS>SET

