#    Name: 5z79_1_HH2
#    Modification time : Fri May 22 19:27:47 2020

@<TRIPOS>MOLECULE
5z79_1_HH2
   22    23     1     0     0
SMALL
NO_CHARGES


@<TRIPOS>ATOM
      1 N1        -24.7760  -27.3090  -17.6100 N.ar      1 HH21101     0.0000 
      2 C2        -24.4420  -28.5900  -17.3190 C.ar      1 HH21101     0.0000 
      3 C3        -23.2050  -28.8940  -16.7580 C.ar      1 HH21101     0.0000 
      4 N4        -22.3010  -27.9400  -16.4930 N.ar      1 HH21101     0.0000 
      5 N5        -21.6930  -25.6740  -16.5120 N.2       1 HH21101     0.0000 
      6 C6        -22.0030  -24.3850  -16.7910 C.2       1 HH21101     0.0000 
      7 N6        -21.0900  -23.4180  -16.5130 N.pl3     1 HH21101     0.0000 
      8 N7        -23.1840  -24.0170  -17.3300 N.am      1 HH21101     0.0000 
      9 C8        -24.1510  -24.8930  -17.6420 C.2       1 HH21101     0.0000 
     10 O8        -25.2310  -24.4980  -18.1550 O.2       1 HH21101     0.0000 
     11 C9        -23.8920  -26.3250  -17.3570 C.ar      1 HH21101     0.0000 
     12 C10       -22.5790  -26.6550  -16.7640 C.ar      1 HH21101     0.0000 
     13 C11       -25.3910  -29.7270  -17.6390 C.3       1 HH21101     0.0000 
     14 O4        -25.0150  -30.3350  -18.9130 O.3       1 HH21101     0.0000 
     15 P1        -24.3500  -31.8120  -19.1130 P.3       1 HH21101     0.0000 
     16 O1P       -24.5990  -32.3540  -20.4860 O.co2     1 HH21101     0.0000 
     17 O2P       -22.9310  -31.8800  -18.5590 O.co2     1 HH21101     0.0000 
     18 O3P       -25.3260  -32.6670  -18.1530 O.3       1 HH21101     0.0000 
     19 P2        -24.8890  -33.3210  -16.7360 P.3       1 HH21101     0.0000 
     20 O4P       -23.4650  -33.8540  -16.8990 O.co2     1 HH21101     0.0000 
     21 O5P       -26.0140  -34.3230  -16.5660 O.co2     1 HH21101     0.0000 
     22 O6P       -24.9300  -32.1780  -15.7480 O.co2     1 HH21101     0.0000 
@<TRIPOS>BOND
     1    1    2 ar   
     2    1   11 ar   
     3    2    3 ar   
     4    2   13 1    
     5    3    4 ar   
     6    4   12 ar   
     7    5    6 2    
     8    5   12 1    
     9    6    7 1    
    10    6    8 1    
    11    8    9 am   
    12    9   10 2    
    13    9   11 1    
    14   11   12 ar   
    15   13   14 1    
    16   14   15 1    
    17   15   16 ar   
    18   15   17 ar   
    19   15   18 1    
    20   18   19 1    
    21   19   20 ar   
    22   19   21 ar   
    23   19   22 ar   
@<TRIPOS>SUBSTRUCTURE
     1 HH21101     1 GROUP   
@<TRIPOS>SET

