#    Name: 5z79_1_HH2_CAVITY_N1_6
#    Modification time : Fri May 22 19:27:49 2020

@<TRIPOS>MOLECULE
5z79_1_HH2_CAVITY_N1_6
   43     0     7     0     0
SMALL
NO_CHARGES


@<TRIPOS>ATOM
      1 OG        -24.9200  -31.5700  -20.3000 O.3       1 SER1        0.0000 
      2 O         -26.2600  -32.6900  -16.1500 O.2       2 ALA2        0.0000 
      3 N         -28.3400  -30.2900  -15.0900 N.am      2 ALA2        0.0000 
      4 O         -27.2500  -30.8300  -15.9700 O.2       2 ALA2        0.0000 
      5 O         -25.1300  -30.9200  -15.8500 O.2       2 ALA2        0.0000 
      6 OD1       -24.8200  -30.2500  -20.9900 O.co2     3 ASP3        0.0000 
      7 OD1       -25.1700  -33.2300  -17.0300 O.co2     3 ASP3        0.0000 
      8 OD1       -25.0700  -31.9100  -17.7300 O.co2     3 ASP3        0.0000 
      9 OD1       -23.9900  -32.4500  -18.6100 O.co2     3 ASP3        0.0000 
     10 OD1       -24.9800  -30.5800  -18.4200 O.co2     3 ASP3        0.0000 
     11 OD1       -23.8900  -31.1200  -19.3000 O.co2     3 ASP3        0.0000 
     12 OD1       -24.8800  -29.2600  -19.1200 O.co2     3 ASP3        0.0000 
     13 OD1       -24.0500  -31.4600  -16.7300 O.co2     3 ASP3        0.0000 
     14 OD1       -23.9500  -30.1300  -17.4300 O.co2     3 ASP3        0.0000 
     15 OD1       -24.9400  -28.2700  -17.2400 O.co2     3 ASP3        0.0000 
     16 NZ        -22.9200  -29.6900  -16.4300 N.4       4 LYS4        0.0000 
     17 CZ        -30.2400  -30.8500  -19.6500 C.ar      5 PHE5        0.0000 
     18 CZ        -29.2100  -30.4000  -18.6500 C.ar      5 PHE5        0.0000 
     19 CZ        -25.0100  -32.9000  -19.6000 C.ar      5 PHE5        0.0000 
     20 CZ        -28.1800  -29.9500  -17.6600 C.ar      5 PHE5        0.0000 
     21 CZ        -27.0900  -30.4900  -18.5400 C.ar      5 PHE5        0.0000 
     22 CZ        -26.0100  -31.0300  -19.4200 C.ar      5 PHE5        0.0000 
     23 CZ        -26.1600  -31.3700  -16.8500 C.ar      5 PHE5        0.0000 
     24 CZ        -28.2400  -28.9600  -15.7800 C.ar      5 PHE5        0.0000 
     25 CZ        -27.1500  -29.5000  -16.6600 C.ar      5 PHE5        0.0000 
     26 CZ        -25.0400  -29.5900  -16.5500 C.ar      5 PHE5        0.0000 
     27 CZ        -24.0100  -29.1500  -15.5500 C.ar      5 PHE5        0.0000 
     28 CA        -30.3900  -31.1900  -17.0800 C.3       6 GLY6        0.0000 
     29 CA        -30.3000  -29.8600  -17.7700 C.3       6 GLY6        0.0000 
     30 CA        -30.2000  -28.5300  -18.4700 C.3       6 GLY6        0.0000 
     31 CA        -30.4500  -30.2000  -15.2000 C.3       6 GLY6        0.0000 
     32 CA        -29.3700  -30.7400  -16.0800 C.3       6 GLY6        0.0000 
     33 CA        -28.2800  -31.2800  -16.9600 C.3       6 GLY6        0.0000 
     34 CA        -30.3600  -28.8700  -15.9000 C.3       6 GLY6        0.0000 
     35 CA        -30.2600  -27.5500  -16.5900 C.3       6 GLY6        0.0000 
     36 CA        -29.1700  -28.0900  -17.4700 C.3       6 GLY6        0.0000 
     37 CA        -25.9100  -29.7100  -20.1100 C.3       6 GLY6        0.0000 
     38 CA        -27.0600  -28.1800  -17.3600 C.3       6 GLY6        0.0000 
     39 CA        -25.9700  -28.7200  -18.2400 C.3       6 GLY6        0.0000 
     40 CA        -26.2200  -30.3800  -14.9700 C.3       6 GLY6        0.0000 
     41 CA        -24.1100  -30.4700  -14.8500 C.3       6 GLY6        0.0000 
     42 DU        -29.2700  -29.4100  -16.7800 H         7 CUB7        0.0000 
     43 DU        -26.0700  -30.0400  -17.5400 H         7 CUB7        0.0000 
@<TRIPOS>BOND
@<TRIPOS>SUBSTRUCTURE
     1 SER1        1 GROUP   
     2 ALA2        2 GROUP   
     3 ASP3        6 GROUP   
     4 LYS4       16 GROUP   
     5 PHE5       17 GROUP   
     6 GLY6       28 GROUP   
     7 CUB7       42 GROUP   
@<TRIPOS>SET

