#    Name: 5z79_7_PAB
#    Modification time : Fri May 22 19:28:24 2020

@<TRIPOS>MOLECULE
5z79_7_PAB
   10    10     1     0     0
SMALL
NO_CHARGES


@<TRIPOS>ATOM
      1 C1'       -22.7060  -26.8160  -56.3330 C.2       1 PAB1103     0.0000 
      2 O1'       -22.0830  -25.7350  -56.4120 O.co2     1 PAB1103     0.0000 
      3 O2'       -22.3800  -27.7400  -55.5500 O.co2     1 PAB1103     0.0000 
      4 C1        -23.8880  -27.0250  -57.2200 C.ar      1 PAB1103     0.0000 
      5 C2        -24.2670  -26.0470  -58.1400 C.ar      1 PAB1103     0.0000 
      6 C3        -25.3740  -26.2730  -58.9500 C.ar      1 PAB1103     0.0000 
      7 C4        -26.0820  -27.4680  -58.8300 C.ar      1 PAB1103     0.0000 
      8 C5        -25.6960  -28.4360  -57.9190 C.ar      1 PAB1103     0.0000 
      9 C6        -24.5980  -28.2180  -57.1070 C.ar      1 PAB1103     0.0000 
     10 N4        -27.1540  -27.7240  -59.6070 N.pl3     1 PAB1103     0.0000 
@<TRIPOS>BOND
     1    1    2 ar   
     2    1    3 ar   
     3    1    4 1    
     4    4    5 ar   
     5    4    9 ar   
     6    5    6 ar   
     7    6    7 ar   
     8    7    8 ar   
     9    7   10 1    
    10    8    9 ar   
@<TRIPOS>SUBSTRUCTURE
     1 PAB1103     1 GROUP   
@<TRIPOS>SET

