#    Name: 5z79_20_PAB
#    Modification time : Fri May 22 19:29:46 2020

@<TRIPOS>MOLECULE
5z79_20_PAB
   10    10     1     0     0
SMALL
NO_CHARGES


@<TRIPOS>ATOM
      1 C1'       -23.2680   21.4510  -66.8440 C.2       1 PAB1102     0.0000 
      2 O1'       -22.5710   20.4150  -66.9590 O.co2     1 PAB1102     0.0000 
      3 O2'       -22.8300   22.4620  -66.2550 O.co2     1 PAB1102     0.0000 
      4 C1        -24.6530   21.5210  -67.4230 C.ar      1 PAB1102     0.0000 
      5 C2        -25.3550   22.7280  -67.3820 C.ar      1 PAB1102     0.0000 
      6 C3        -26.6350   22.7980  -67.9190 C.ar      1 PAB1102     0.0000 
      7 C4        -27.2150   21.6710  -68.5020 C.ar      1 PAB1102     0.0000 
      8 C5        -26.5210   20.4650  -68.5430 C.ar      1 PAB1102     0.0000 
      9 C6        -25.2380   20.3960  -68.0060 C.ar      1 PAB1102     0.0000 
     10 N4        -28.4640   21.7610  -69.0170 N.pl3     1 PAB1102     0.0000 
@<TRIPOS>BOND
     1    1    2 ar   
     2    1    3 ar   
     3    1    4 1    
     4    4    5 ar   
     5    4    9 ar   
     6    5    6 ar   
     7    6    7 ar   
     8    7    8 ar   
     9    7   10 1    
    10    8    9 ar   
@<TRIPOS>SUBSTRUCTURE
     1 PAB1102     1 GROUP   
@<TRIPOS>SET

