#    Name: 5z79_15_PE0_CAVITY_N1_4
#    Modification time : Fri May 22 19:29:18 2020

@<TRIPOS>MOLECULE
5z79_15_PE0_CAVITY_N1_4
   74     0     7     0     0
SMALL
NO_CHARGES


@<TRIPOS>ATOM
      1 OG        -97.1900   20.2800  -18.7600 O.3       1 SER1        0.0000 
      2 OG        -96.1000   19.7400  -19.6400 O.3       1 SER1        0.0000 
      3 OG        -98.1800   22.1400  -18.5700 O.3       1 SER1        0.0000 
      4 OG        -97.0900   21.6000  -19.4500 O.3       1 SER1        0.0000 
      5 N         -99.3700   15.7400  -21.2300 N.am      2 ALA2        0.0000 
      6 N         -99.4300   16.7300  -19.3600 N.am      2 ALA2        0.0000 
      7 N         -98.3400   16.1900  -20.2400 N.am      2 ALA2        0.0000 
      8 O         -97.2200   17.9600  -19.9400 O.2       2 ALA2        0.0000 
      9 O         -98.1200   21.1500  -20.4500 O.2       2 ALA2        0.0000 
     10 N         -99.1100   23.0200  -20.2600 N.am      2 ALA2        0.0000 
     11 O         -96.1900   18.4100  -18.9400 O.2       2 ALA2        0.0000 
     12 N         -96.0000   21.0600  -20.3300 N.am      2 ALA2        0.0000 
     13 OD1      -102.6700   15.0500  -19.7700 O.co2     3 ASP3        0.0000 
     14 OD1      -101.5800   14.5100  -20.6500 O.co2     3 ASP3        0.0000 
     15 OD1      -102.5800   16.3700  -20.4700 O.co2     3 ASP3        0.0000 
     16 OD1      -101.4900   15.8300  -21.3500 O.co2     3 ASP3        0.0000 
     17 OD1      -102.4800   17.7000  -21.1700 O.co2     3 ASP3        0.0000 
     18 OD1      -100.5600   14.9500  -19.6600 O.co2     3 ASP3        0.0000 
     19 OD1      -100.4600   16.2800  -20.3500 O.co2     3 ASP3        0.0000 
     20 OD1      -100.3700   17.6100  -21.0500 O.co2     3 ASP3        0.0000 
     21 OD1      -101.3600   19.4700  -20.8600 O.co2     3 ASP3        0.0000 
     22 OD1      -100.2700   18.9300  -21.7400 O.co2     3 ASP3        0.0000 
     23 OD1       -99.3400   18.0500  -20.0500 O.co2     3 ASP3        0.0000 
     24 OD1       -99.2400   19.3800  -20.7500 O.co2     3 ASP3        0.0000 
     25 OD1      -100.2300   21.2400  -20.5600 O.co2     3 ASP3        0.0000 
     26 OD1       -98.3100   18.5000  -19.0600 O.co2     3 ASP3        0.0000 
     27 NZ       -102.3300   18.0300  -23.7400 N.4       4 LYS4        0.0000 
     28 NZ       -101.1400   18.8200  -25.3100 N.4       4 LYS4        0.0000 
     29 NZ       -102.3900   19.0200  -21.8600 N.4       4 LYS4        0.0000 
     30 NZ       -101.3000   18.4800  -22.7400 N.4       4 LYS4        0.0000 
     31 NZ       -102.2900   20.3500  -22.5600 N.4       4 LYS4        0.0000 
     32 NZ       -101.2000   19.8100  -23.4400 N.4       4 LYS4        0.0000 
     33 NZ       -101.2600   20.8000  -21.5600 N.4       4 LYS4        0.0000 
     34 CZ       -100.5900   12.6400  -20.8400 C.ar      5 PHE5        0.0000 
     35 CZ       -100.5000   13.9700  -21.5300 C.ar      5 PHE5        0.0000 
     36 CZ        -99.4100   13.4300  -22.4100 C.ar      5 PHE5        0.0000 
     37 CZ        -99.3100   14.7500  -23.1100 C.ar      5 PHE5        0.0000 
     38 CZ       -100.3100   16.6200  -22.9200 C.ar      5 PHE5        0.0000 
     39 CZ        -99.2200   16.0800  -23.8000 C.ar      5 PHE5        0.0000 
     40 CZ       -100.2100   17.9400  -23.6200 C.ar      5 PHE5        0.0000 
     41 CZ        -99.1200   17.4000  -24.5000 C.ar      5 PHE5        0.0000 
     42 CZ       -100.1100   19.2700  -24.3200 C.ar      5 PHE5        0.0000 
     43 CZ        -99.0300   18.7300  -25.2000 C.ar      5 PHE5        0.0000 
     44 CZ        -99.4700   14.4100  -20.5400 C.ar      5 PHE5        0.0000 
     45 CZ        -98.2800   15.2000  -22.1100 C.ar      5 PHE5        0.0000 
     46 CZ        -97.2000   14.6600  -22.9900 C.ar      5 PHE5        0.0000 
     47 CZ        -99.2800   17.0600  -21.9300 C.ar      5 PHE5        0.0000 
     48 CZ        -99.1800   18.3900  -22.6200 C.ar      5 PHE5        0.0000 
     49 CZ        -99.0900   19.7200  -23.3200 C.ar      5 PHE5        0.0000 
     50 CZ        -98.9900   21.0400  -24.0200 C.ar      5 PHE5        0.0000 
     51 CZ        -98.2500   17.5100  -20.9300 C.ar      5 PHE5        0.0000 
     52 CZ        -98.1500   18.8400  -21.6300 C.ar      5 PHE5        0.0000 
     53 CZ        -98.0600   20.1600  -22.3200 C.ar      5 PHE5        0.0000 
     54 CZ        -97.1300   19.2900  -20.6300 C.ar      5 PHE5        0.0000 
     55 CZ        -97.0300   20.6100  -21.3300 C.ar      5 PHE5        0.0000 
     56 CA       -102.6100   14.0600  -21.6500 C.3       6 GLY6        0.0000 
     57 CA       -101.5200   13.5200  -22.5300 C.3       6 GLY6        0.0000 
     58 CA       -100.1500   16.9500  -25.5000 C.3       6 GLY6        0.0000 
     59 CA       -101.6800   13.1800  -19.9600 C.3       6 GLY6        0.0000 
     60 CA       -100.0200   20.5900  -25.0100 C.3       6 GLY6        0.0000 
     61 CA        -98.2100   19.8300  -19.7500 C.3       6 GLY6        0.0000 
     62 CA        -99.2100   21.6900  -19.5700 C.3       6 GLY6        0.0000 
     63 DU       -103.6000   15.9200  -21.4700 H         7 CUB7        0.0000 
     64 DU       -102.5200   15.3800  -22.3500 H         7 CUB7        0.0000 
     65 DU       -101.4300   14.8400  -23.2300 H         7 CUB7        0.0000 
     66 DU       -103.5100   17.2500  -22.1600 H         7 CUB7        0.0000 
     67 DU       -102.4200   16.7100  -23.0400 H         7 CUB7        0.0000 
     68 DU       -101.3300   16.1700  -23.9200 H         7 CUB7        0.0000 
     69 DU       -100.2500   15.6300  -24.8000 H         7 CUB7        0.0000 
     70 DU       -101.2400   17.4900  -24.6200 H         7 CUB7        0.0000 
     71 DU       -100.4000   15.2900  -22.2300 H         7 CUB7        0.0000 
     72 DU       -101.3900   17.1600  -22.0500 H         7 CUB7        0.0000 
     73 DU       -100.1700   20.2600  -22.4400 H         7 CUB7        0.0000 
     74 DU        -99.1500   20.7000  -21.4400 H         7 CUB7        0.0000 
@<TRIPOS>BOND
@<TRIPOS>SUBSTRUCTURE
     1 SER1        1 GROUP   
     2 ALA2        5 GROUP   
     3 ASP3       13 GROUP   
     4 LYS4       27 GROUP   
     5 PHE5       34 GROUP   
     6 GLY6       56 GROUP   
     7 CUB7       63 GROUP   
@<TRIPOS>SET

