#    Name: 5z79_10_PAB_CAVITY_N1_4
#    Modification time : Fri May 22 19:28:44 2020

@<TRIPOS>MOLECULE
5z79_10_PAB_CAVITY_N1_4
   43     0     4     0     0
SMALL
NO_CHARGES


@<TRIPOS>ATOM
      1 O         -45.5800   22.0800  -27.6500 O.2       1 ALA2        0.0000 
      2 N         -44.7500   19.8700  -25.2600 N.am      1 ALA2        0.0000 
      3 N         -43.6600   19.3300  -26.1400 N.am      1 ALA2        0.0000 
      4 O         -39.3000   22.7900  -25.4300 O.2       1 ALA2        0.0000 
      5 O         -39.2000   24.1200  -26.1200 O.2       1 ALA2        0.0000 
      6 O         -38.1700   24.5600  -25.1300 O.2       1 ALA2        0.0000 
      7 OD1       -45.6800   20.7500  -26.9500 O.co2     2 ASP3        0.0000 
      8 OD1       -43.6200   21.6500  -24.9600 O.co2     2 ASP3        0.0000 
      9 OD1       -43.5300   22.9700  -25.6600 O.co2     2 ASP3        0.0000 
     10 OD1       -42.5000   23.4200  -24.6600 O.co2     2 ASP3        0.0000 
     11 OD1       -41.4700   23.8700  -23.6700 O.co2     2 ASP3        0.0000 
     12 OD1       -40.4400   24.3200  -22.6700 O.co2     2 ASP3        0.0000 
     13 OD1       -39.2600   25.1000  -24.2500 O.co2     2 ASP3        0.0000 
     14 CZ        -44.4600   23.8500  -27.3500 C.ar      3 PHE5        0.0000 
     15 CZ        -43.3700   23.3100  -28.2300 C.ar      3 PHE5        0.0000 
     16 CZ        -43.4300   24.3000  -26.3500 C.ar      3 PHE5        0.0000 
     17 CZ        -42.3400   23.7600  -27.2300 C.ar      3 PHE5        0.0000 
     18 CZ        -41.5100   21.5600  -24.8500 C.ar      3 PHE5        0.0000 
     19 CZ        -42.4000   24.7500  -25.3600 C.ar      3 PHE5        0.0000 
     20 CZ        -41.3200   24.2100  -26.2400 C.ar      3 PHE5        0.0000 
     21 CZ        -40.3800   23.3300  -24.5500 C.ar      3 PHE5        0.0000 
     22 CZ        -41.3800   25.2000  -24.3600 C.ar      3 PHE5        0.0000 
     23 CZ        -40.2900   24.6600  -25.2400 C.ar      3 PHE5        0.0000 
     24 CZ        -39.4500   22.4500  -22.8500 C.ar      3 PHE5        0.0000 
     25 CA        -47.4500   23.8300  -31.0300 C.3       4 GLY6        0.0000 
     26 CA        -46.4200   24.2800  -30.0400 C.3       4 GLY6        0.0000 
     27 CA        -45.3300   23.7400  -30.9200 C.3       4 GLY6        0.0000 
     28 CA        -44.5900   20.2100  -27.8300 C.3       4 GLY6        0.0000 
     29 CA        -44.5000   21.5400  -28.5300 C.3       4 GLY6        0.0000 
     30 CA        -45.4900   23.4000  -28.3500 C.3       4 GLY6        0.0000 
     31 CA        -44.4000   22.8600  -29.2300 C.3       4 GLY6        0.0000 
     32 CA        -43.3100   22.3200  -30.1100 C.3       4 GLY6        0.0000 
     33 CA        -44.6500   21.2000  -25.9600 C.3       4 GLY6        0.0000 
     34 CA        -43.5600   20.6600  -26.8400 C.3       4 GLY6        0.0000 
     35 CA        -44.5600   22.5200  -26.6500 C.3       4 GLY6        0.0000 
     36 CA        -43.4700   21.9800  -27.5300 C.3       4 GLY6        0.0000 
     37 CA        -42.2800   22.7700  -29.1100 C.3       4 GLY6        0.0000 
     38 CA        -42.5400   21.1100  -25.8400 C.3       4 GLY6        0.0000 
     39 CA        -42.4400   22.4300  -26.5400 C.3       4 GLY6        0.0000 
     40 CA        -41.4100   22.8800  -25.5400 C.3       4 GLY6        0.0000 
     41 CA        -43.4900   25.2900  -24.4800 C.3       4 GLY6        0.0000 
     42 CA        -39.3600   23.7800  -23.5500 C.3       4 GLY6        0.0000 
     43 CA        -38.2700   23.2400  -24.4300 C.3       4 GLY6        0.0000 
@<TRIPOS>BOND
@<TRIPOS>SUBSTRUCTURE
     1 ALA2        1 GROUP   
     2 ASP3        7 GROUP   
     3 PHE5       14 GROUP   
     4 GLY6       25 GROUP   
@<TRIPOS>SET

