#    Name: 5z79_13_5AD
#    Modification time : Fri May 22 19:29:05 2020

@<TRIPOS>MOLECULE
5z79_13_5AD
   18    20     1     0     0
SMALL
NO_CHARGES


@<TRIPOS>ATOM
      1 N1       -110.5060   24.0550  -20.1710 N.ar      1 5AD1102     0.0000 
      2 C2       -111.3420   23.0390  -20.0180 C.ar      1 5AD1102     0.0000 
      3 N3       -111.2970   21.9420  -20.7530 N.ar      1 5AD1102     0.0000 
      4 C4       -110.4020   21.7750  -21.7180 C.ar      1 5AD1102     0.0000 
      5 N9       -110.1200   20.8240  -22.6120 N.pl3     1 5AD1102     0.0000 
      6 C8       -109.0710   21.2850  -23.3170 C.2       1 5AD1102     0.0000 
      7 N7       -108.6520   22.5020  -22.9280 N.2       1 5AD1102     0.0000 
      8 C5       -109.4600   22.8580  -21.9390 C.ar      1 5AD1102     0.0000 
      9 C6       -109.5650   24.0230  -21.0860 C.ar      1 5AD1102     0.0000 
     10 N6       -108.7010   25.0160  -21.2380 N.pl3     1 5AD1102     0.0000 
     11 C1'      -110.7990   19.5010  -22.8280 C.3       1 5AD1102     0.0000 
     12 C2'      -111.6210   19.5250  -24.1100 C.3       1 5AD1102     0.0000 
     13 C3'      -111.2800   18.2160  -24.8080 C.3       1 5AD1102     0.0000 
     14 C4'      -109.9660   17.7550  -24.1940 C.3       1 5AD1102     0.0000 
     15 C5'      -108.7550   18.0710  -25.0750 C.3       1 5AD1102     0.0000 
     16 O4'      -109.8570   18.4280  -22.9350 O.3       1 5AD1102     0.0000 
     17 O2'      -113.0230   19.6400  -23.8300 O.3       1 5AD1102     0.0000 
     18 O3'      -112.2960   17.2260  -24.5970 O.3       1 5AD1102     0.0000 
@<TRIPOS>BOND
     1    1    2 ar   
     2    1    9 ar   
     3    2    3 ar   
     4    3    4 ar   
     5    4    5 1    
     6    4    8 ar   
     7    5    6 1    
     8    5   11 1    
     9    6    7 2    
    10    7    8 1    
    11    8    9 ar   
    12    9   10 1    
    13   11   12 1    
    14   11   16 1    
    15   12   13 1    
    16   12   17 1    
    17   13   14 1    
    18   13   18 1    
    19   14   15 1    
    20   14   16 1    
@<TRIPOS>SUBSTRUCTURE
     1 5AD1102     1 GROUP   
@<TRIPOS>SET

