#    Name: 5z79_7_PAB_CAVITY_N1_4
#    Modification time : Fri May 22 19:28:25 2020

@<TRIPOS>MOLECULE
5z79_7_PAB_CAVITY_N1_4
   47     0     5     0     0
SMALL
NO_CHARGES


@<TRIPOS>ATOM
      1 O         -29.0600  -29.8900  -59.7000 O.2       1 ALA2        0.0000 
      2 N         -25.7300  -26.8800  -59.9800 N.am      1 ALA2        0.0000 
      3 N         -23.6700  -25.9800  -57.9900 N.am      1 ALA2        0.0000 
      4 N         -22.0000  -30.3900  -53.2100 N.am      1 ALA2        0.0000 
      5 O         -21.9000  -29.0600  -53.9100 O.2       1 ALA2        0.0000 
      6 OD1       -30.1200  -27.0300  -57.6400 O.co2     2 ASP3        0.0000 
      7 OD1       -21.7500  -28.7300  -56.4800 O.co2     2 ASP3        0.0000 
      8 OD1       -22.7400  -26.8600  -56.3000 O.co2     2 ASP3        0.0000 
      9 CZ        -28.1300  -30.7700  -58.0100 C.ar      3 PHE5        0.0000 
     10 CZ        -29.1200  -28.9000  -57.8300 C.ar      3 PHE5        0.0000 
     11 CZ        -28.0400  -29.4400  -58.7100 C.ar      3 PHE5        0.0000 
     12 CZ        -29.0300  -27.5700  -58.5200 C.ar      3 PHE5        0.0000 
     13 CZ        -30.0200  -25.7100  -58.3400 C.ar      3 PHE5        0.0000 
     14 CZ        -28.1000  -28.4500  -56.8300 C.ar      3 PHE5        0.0000 
     15 CZ        -27.0100  -28.9900  -57.7100 C.ar      3 PHE5        0.0000 
     16 CZ        -26.9100  -27.6700  -58.4100 C.ar      3 PHE5        0.0000 
     17 CZ        -26.8200  -26.3400  -59.1000 C.ar      3 PHE5        0.0000 
     18 CZ        -27.0700  -28.0000  -55.8300 C.ar      3 PHE5        0.0000 
     19 CZ        -25.9800  -28.5400  -56.7100 C.ar      3 PHE5        0.0000 
     20 CZ        -24.8900  -29.0800  -57.5900 C.ar      3 PHE5        0.0000 
     21 CZ        -23.9600  -29.9600  -55.9000 C.ar      3 PHE5        0.0000 
     22 CZ        -22.8700  -30.5000  -56.7800 C.ar      3 PHE5        0.0000 
     23 CZ        -23.8600  -28.6300  -56.6000 C.ar      3 PHE5        0.0000 
     24 CZ        -21.9400  -31.3800  -55.0900 C.ar      3 PHE5        0.0000 
     25 CZ        -22.9300  -29.5100  -54.9100 C.ar      3 PHE5        0.0000 
     26 CA        -30.0600  -28.0200  -59.5200 C.3       4 GLY6        0.0000 
     27 CA        -28.9700  -28.5600  -60.4000 C.3       4 GLY6        0.0000 
     28 CA        -27.9400  -28.1100  -59.4000 C.3       4 GLY6        0.0000 
     29 CA        -29.0900  -26.5900  -56.6500 C.3       4 GLY6        0.0000 
     30 CA        -28.0000  -27.1300  -57.5300 C.3       4 GLY6        0.0000 
     31 CA        -25.8200  -28.2100  -59.2900 C.3       4 GLY6        0.0000 
     32 CA        -23.9000  -30.9500  -57.7800 C.3       4 GLY6        0.0000 
     33 CA        -25.8800  -27.2200  -57.4100 C.3       4 GLY6        0.0000 
     34 CA        -24.8000  -27.7600  -58.2900 C.3       4 GLY6        0.0000 
     35 CA        -25.7900  -25.8900  -58.1100 C.3       4 GLY6        0.0000 
     36 CA        -24.7000  -26.4300  -58.9900 C.3       4 GLY6        0.0000 
     37 CA        -21.7800  -31.0400  -57.6600 C.3       4 GLY6        0.0000 
     38 CA        -24.9500  -28.0900  -55.7200 C.3       4 GLY6        0.0000 
     39 CA        -22.7800  -29.1700  -57.4800 C.3       4 GLY6        0.0000 
     40 CA        -24.8600  -26.7700  -56.4100 C.3       4 GLY6        0.0000 
     41 CA        -23.7700  -27.3100  -57.2900 C.3       4 GLY6        0.0000 
     42 CA        -24.7600  -25.4400  -57.1100 C.3       4 GLY6        0.0000 
     43 CA        -21.8400  -30.0500  -55.7900 C.3       4 GLY6        0.0000 
     44 CA        -20.7600  -30.5900  -56.6700 C.3       4 GLY6        0.0000 
     45 CA        -22.8400  -28.1900  -55.6000 C.3       4 GLY6        0.0000 
     46 CA        -20.9100  -30.9300  -54.0900 C.3       4 GLY6        0.0000 
     47 DU        -30.1500  -29.3500  -58.8200 H         5 CUB7        0.0000 
@<TRIPOS>BOND
@<TRIPOS>SUBSTRUCTURE
     1 ALA2        1 GROUP   
     2 ASP3        6 GROUP   
     3 PHE5        9 GROUP   
     4 GLY6       26 GROUP   
     5 CUB7       47 GROUP   
@<TRIPOS>SET

