#    Name: 5z79_19_HH2_CAVITY_N1_4
#    Modification time : Fri May 22 19:29:39 2020

@<TRIPOS>MOLECULE
5z79_19_HH2_CAVITY_N1_4
   55     0     7     0     0
SMALL
NO_CHARGES


@<TRIPOS>ATOM
      1 OG        -31.4000   23.1600  -72.1500 O.3       1 SER1        0.0000 
      2 OG        -30.4000   26.9100  -68.1000 O.3       1 SER1        0.0000 
      3 O         -31.4600   24.1500  -70.2700 O.2       2 ALA2        0.0000 
      4 N         -31.3700   25.4700  -70.9700 N.am      2 ALA2        0.0000 
      5 O         -30.4300   24.6000  -69.2800 O.2       2 ALA2        0.0000 
      6 N         -31.4300   26.4600  -69.0900 N.am      2 ALA2        0.0000 
      7 N         -30.3400   25.9200  -69.9700 N.am      2 ALA2        0.0000 
      8 N         -30.2400   27.2500  -70.6700 N.am      2 ALA2        0.0000 
      9 O         -29.2100   27.7000  -69.6700 O.2       2 ALA2        0.0000 
     10 OD1       -30.2800   24.9300  -71.8500 O.co2     3 ASP3        0.0000 
     11 OD1       -29.1900   24.3900  -72.7300 O.co2     3 ASP3        0.0000 
     12 OD1       -28.1000   23.8500  -73.6100 O.co2     3 ASP3        0.0000 
     13 OD1       -27.0100   23.3100  -74.4900 O.co2     3 ASP3        0.0000 
     14 OD1       -26.9200   24.6400  -75.1800 O.co2     3 ASP3        0.0000 
     15 OD1       -28.2600   23.5200  -71.0400 O.co2     3 ASP3        0.0000 
     16 OD1       -29.2500   25.3800  -70.8500 O.co2     3 ASP3        0.0000 
     17 OD1       -28.1600   24.8400  -71.7300 O.co2     3 ASP3        0.0000 
     18 OD1       -27.0700   24.3000  -72.6100 O.co2     3 ASP3        0.0000 
     19 OD1       -29.1500   26.7100  -71.5500 O.co2     3 ASP3        0.0000 
     20 OD1       -27.3300   22.6400  -69.3500 O.co2     3 ASP3        0.0000 
     21 OD1       -27.2300   23.9700  -70.0400 O.co2     3 ASP3        0.0000 
     22 OD1       -27.1300   25.2900  -70.7400 O.co2     3 ASP3        0.0000 
     23 OD1       -27.0400   26.6200  -71.4300 O.co2     3 ASP3        0.0000 
     24 OD1       -25.9500   26.0800  -72.3100 O.co2     3 ASP3        0.0000 
     25 OD1       -26.3000   23.0900  -68.3500 O.co2     3 ASP3        0.0000 
     26 NZ        -32.3900   25.0300  -71.9700 N.4       4 LYS4        0.0000 
     27 NZ        -30.2200   23.9400  -73.7200 N.4       4 LYS4        0.0000 
     28 NZ        -29.1300   23.4000  -74.6000 N.4       4 LYS4        0.0000 
     29 NZ        -26.9500   22.3200  -76.3600 N.4       4 LYS4        0.0000 
     30 CZ        -30.3100   22.6200  -73.0300 C.ar      5 PHE5        0.0000 
     31 CZ        -29.2300   22.0800  -73.9100 C.ar      5 PHE5        0.0000 
     32 CZ        -29.2900   23.0700  -72.0300 C.ar      5 PHE5        0.0000 
     33 CZ        -28.2000   22.5300  -72.9100 C.ar      5 PHE5        0.0000 
     34 CZ        -26.0200   21.4500  -74.6700 C.ar      5 PHE5        0.0000 
     35 CZ        -28.3500   22.1900  -70.3400 C.ar      5 PHE5        0.0000 
     36 CZ        -29.4100   25.0500  -68.2800 C.ar      5 PHE5        0.0000 
     37 CZ        -28.3200   24.5100  -69.1600 C.ar      5 PHE5        0.0000 
     38 CZ        -29.3100   26.3700  -68.9800 C.ar      5 PHE5        0.0000 
     39 CZ        -28.2200   25.8300  -69.8600 C.ar      5 PHE5        0.0000 
     40 CZ        -28.1300   27.1600  -70.5500 C.ar      5 PHE5        0.0000 
     41 CZ        -27.3900   23.6300  -67.4700 C.ar      5 PHE5        0.0000 
     42 CZ        -26.2000   24.4100  -69.0500 C.ar      5 PHE5        0.0000 
     43 CZ        -26.1100   25.7400  -69.7400 C.ar      5 PHE5        0.0000 
     44 CZ        -26.3600   24.0800  -66.4700 C.ar      5 PHE5        0.0000 
     45 CA        -30.1600   22.9600  -75.6000 C.3       6 GLY6        0.0000 
     46 CA        -29.0700   22.4200  -76.4800 C.3       6 GLY6        0.0000 
     47 CA        -28.1400   21.5400  -74.7900 C.3       6 GLY6        0.0000 
     48 CA        -28.0400   22.8600  -75.4800 C.3       6 GLY6        0.0000 
     49 CA        -27.9500   24.1900  -76.1800 C.3       6 GLY6        0.0000 
     50 CA        -26.8600   23.6500  -77.0600 C.3       6 GLY6        0.0000 
     51 CA        -30.3700   23.6100  -71.1500 C.3       6 GLY6        0.0000 
     52 CA        -25.9300   22.7700  -75.3700 C.3       6 GLY6        0.0000 
     53 CA        -29.4400   22.7300  -69.4600 C.3       6 GLY6        0.0000 
     54 CA        -28.4100   23.1800  -68.4700 C.3       6 GLY6        0.0000 
     55 DU        -29.3500   24.0600  -70.1600 H         7 CUB7        0.0000 
@<TRIPOS>BOND
@<TRIPOS>SUBSTRUCTURE
     1 SER1        1 GROUP   
     2 ALA2        3 GROUP   
     3 ASP3       10 GROUP   
     4 LYS4       26 GROUP   
     5 PHE5       30 GROUP   
     6 GLY6       45 GROUP   
     7 CUB7       55 GROUP   
@<TRIPOS>SET

