#    Name: 5z79_2_APC
#    Modification time : Fri May 22 19:27:57 2020

@<TRIPOS>MOLECULE
5z79_2_APC
   31    33     1     0     0
SMALL
NO_CHARGES


@<TRIPOS>ATOM
      1 PG          4.7520    6.3280  -16.7320 P.3       1 APC1102     0.0000 
      2 O1G         4.1860    5.0170  -17.2340 O.co2     1 APC1102     0.0000 
      3 O2G         5.2130    6.2540  -15.2950 O.co2     1 APC1102     0.0000 
      4 O3G         3.8390    7.5040  -16.9990 O.co2     1 APC1102     0.0000 
      5 PB          7.5080    5.8890  -17.6270 P.3       1 APC1102     0.0000 
      6 O1B         8.1420    6.0740  -18.9790 O.co2     1 APC1102     0.0000 
      7 O2B         7.3010    4.4650  -17.2020 O.co2     1 APC1102     0.0000 
      8 O3B         6.0880    6.6130  -17.5940 O.3       1 APC1102     0.0000 
      9 PA          9.1900    5.6790  -15.0770 P.3       1 APC1102     0.0000 
     10 O1A        10.0200    4.6150  -15.7410 O.co2     1 APC1102     0.0000 
     11 O2A         8.0800    5.1840  -14.1870 O.co2     1 APC1102     0.0000 
     12 C3A         8.4910    6.7660  -16.3630 C.3       1 APC1102     0.0000 
     13 O5'        10.1740    6.5840  -14.2010 O.3       1 APC1102     0.0000 
     14 C5'        10.5050    7.9720  -14.4660 C.3       1 APC1102     0.0000 
     15 C4'        10.4100    8.7600  -13.1830 C.3       1 APC1102     0.0000 
     16 O4'         9.0720    8.6150  -12.6470 O.3       1 APC1102     0.0000 
     17 C3'        11.3680    8.3450  -12.0540 C.3       1 APC1102     0.0000 
     18 O3'        12.1800    9.4420  -11.6750 O.3       1 APC1102     0.0000 
     19 C2'        10.4540    7.8810  -10.9100 C.3       1 APC1102     0.0000 
     20 O2'        10.8560    8.3230   -9.6330 O.3       1 APC1102     0.0000 
     21 C1'         9.1280    8.5470  -11.2460 C.3       1 APC1102     0.0000 
     22 N9          7.9640    7.8070  -10.7720 N.pl3     1 APC1102     0.0000 
     23 C8          7.6120    6.5060  -11.0460 C.2       1 APC1102     0.0000 
     24 N7          6.4860    6.1350  -10.4780 N.2       1 APC1102     0.0000 
     25 C5          6.0640    7.2660   -9.7920 C.ar      1 APC1102     0.0000 
     26 C6          4.9340    7.5280   -8.9910 C.ar      1 APC1102     0.0000 
     27 N6          3.9760    6.6430   -8.7400 N.pl3     1 APC1102     0.0000 
     28 N1          4.8180    8.7680   -8.4650 N.ar      1 APC1102     0.0000 
     29 C2          5.7830    9.6610   -8.7280 C.ar      1 APC1102     0.0000 
     30 N3          6.8850    9.5340   -9.4580 N.ar      1 APC1102     0.0000 
     31 C4          6.9680    8.2990   -9.9700 C.ar      1 APC1102     0.0000 
@<TRIPOS>BOND
     1    1    2 ar   
     2    1    3 ar   
     3    1    4 ar   
     4    1    8 1    
     5    5    6 ar   
     6    5    7 ar   
     7    5    8 1    
     8    5   12 1    
     9    9   10 ar   
    10    9   11 ar   
    11    9   12 1    
    12    9   13 1    
    13   13   14 1    
    14   14   15 1    
    15   15   16 1    
    16   15   17 1    
    17   16   21 1    
    18   17   18 1    
    19   17   19 1    
    20   19   20 1    
    21   19   21 1    
    22   21   22 1    
    23   22   23 1    
    24   22   31 1    
    25   23   24 2    
    26   24   25 1    
    27   25   26 ar   
    28   25   31 ar   
    29   26   27 1    
    30   26   28 ar   
    31   28   29 ar   
    32   29   30 ar   
    33   30   31 ar   
@<TRIPOS>SUBSTRUCTURE
     1 APC1102     1 GROUP   
@<TRIPOS>SET

