#    Name: 5z79_10_PAB
#    Modification time : Fri May 22 19:28:44 2020

@<TRIPOS>MOLECULE
5z79_10_PAB
   10    10     1     0     0
SMALL
NO_CHARGES


@<TRIPOS>ATOM
      1 C1'       -45.9370   21.3160  -26.9710 C.2       1 PAB1103     0.0000 
      2 O1'       -46.3750   22.3050  -27.5770 O.co2     1 PAB1103     0.0000 
      3 O2'       -46.6420   20.2940  -26.8080 O.co2     1 PAB1103     0.0000 
      4 C1        -44.5400   21.4130  -26.4560 C.ar      1 PAB1103     0.0000 
      5 C2        -43.7820   22.5460  -26.7550 C.ar      1 PAB1103     0.0000 
      6 C3        -42.4790   22.6560  -26.2790 C.ar      1 PAB1103     0.0000 
      7 C4        -41.9400   21.6340  -25.5020 C.ar      1 PAB1103     0.0000 
      8 C5        -42.6960   20.5030  -25.1970 C.ar      1 PAB1103     0.0000 
      9 C6        -44.0010   20.3960  -25.6710 C.ar      1 PAB1103     0.0000 
     10 N4        -40.6720   21.7440  -25.0500 N.pl3     1 PAB1103     0.0000 
@<TRIPOS>BOND
     1    1    2 ar   
     2    1    3 ar   
     3    1    4 1    
     4    4    5 ar   
     5    4    9 ar   
     6    5    6 ar   
     7    6    7 ar   
     8    7    8 ar   
     9    7   10 1    
    10    8    9 ar   
@<TRIPOS>SUBSTRUCTURE
     1 PAB1103     1 GROUP   
@<TRIPOS>SET

