#    Name: 5z79_6_5AD
#    Modification time : Fri May 22 19:28:16 2020

@<TRIPOS>MOLECULE
5z79_6_5AD
   18    20     1     0     0
SMALL
NO_CHARGES


@<TRIPOS>ATOM
      1 N1        -64.2660    7.9350  -62.6850 N.ar      1 5AD1102     0.0000 
      2 C2        -65.4050    8.4510  -62.1850 C.ar      1 5AD1102     0.0000 
      3 N3        -66.2910    7.7260  -61.4910 N.ar      1 5AD1102     0.0000 
      4 C4        -66.0880    6.4120  -61.2530 C.ar      1 5AD1102     0.0000 
      5 N9        -66.7960    5.4870  -60.6160 N.pl3     1 5AD1102     0.0000 
      6 C8        -66.1250    4.3170  -60.6670 C.2       1 5AD1102     0.0000 
      7 N7        -64.9590    4.4690  -61.3650 N.2       1 5AD1102     0.0000 
      8 C5        -64.8730    5.7590  -61.7620 C.ar      1 5AD1102     0.0000 
      9 C6        -63.9330    6.6340  -62.5240 C.ar      1 5AD1102     0.0000 
     10 N6        -62.7760    6.1810  -63.0520 N.pl3     1 5AD1102     0.0000 
     11 C1'       -68.0850    5.8110  -59.9450 C.3       1 5AD1102     0.0000 
     12 C2'       -69.3300    5.4350  -60.7290 C.3       1 5AD1102     0.0000 
     13 C3'       -70.3610    5.2560  -59.6250 C.3       1 5AD1102     0.0000 
     14 C4'       -69.5750    5.0860  -58.3220 C.3       1 5AD1102     0.0000 
     15 C5'       -69.8690    3.7700  -57.6060 C.3       1 5AD1102     0.0000 
     16 O4'       -68.1920    5.1590  -58.6740 O.3       1 5AD1102     0.0000 
     17 O2'       -69.7080    6.4640  -61.6590 O.3       1 5AD1102     0.0000 
     18 O3'       -71.2270    6.3990  -59.5700 O.3       1 5AD1102     0.0000 
@<TRIPOS>BOND
     1    1    2 ar   
     2    1    9 ar   
     3    2    3 ar   
     4    3    4 ar   
     5    4    5 1    
     6    4    8 ar   
     7    5    6 1    
     8    5   11 1    
     9    6    7 2    
    10    7    8 1    
    11    8    9 ar   
    12    9   10 1    
    13   11   12 1    
    14   11   16 1    
    15   12   13 1    
    16   12   17 1    
    17   13   14 1    
    18   13   18 1    
    19   14   15 1    
    20   14   16 1    
@<TRIPOS>SUBSTRUCTURE
     1 5AD1102     1 GROUP   
@<TRIPOS>SET

