#    Name: 5z79_6_5AD_CAVITY_N1_ALL
#    Modification time : Fri May 22 19:28:17 2020

@<TRIPOS>MOLECULE
5z79_6_5AD_CAVITY_N1_ALL
  121     0     7     0     0
SMALL
NO_CHARGES


@<TRIPOS>ATOM
      1 OG        -64.6400    5.6400  -61.5800 O.3       1 SER1        0.0000 
      2 OG        -64.5400    6.9700  -62.2700 O.3       1 SER1        0.0000 
      3 OG        -64.6000    7.9500  -60.4000 O.3       1 SER1        0.0000 
      4 OG        -63.4800    9.7300  -60.1000 O.3       1 SER1        0.0000 
      5 N         -69.9900    4.0500  -62.1100 N.am      2 ALA2        0.0000 
      6 N         -71.2400    4.2500  -58.6600 N.am      2 ALA2        0.0000 
      7 N         -70.1500    3.7100  -59.5400 N.am      2 ALA2        0.0000 
      8 N         -71.1400    5.5800  -59.3500 N.am      2 ALA2        0.0000 
      9 N         -70.0500    5.0400  -60.2300 N.am      2 ALA2        0.0000 
     10 N         -68.9600    4.5000  -61.1100 N.am      2 ALA2        0.0000 
     11 O         -71.0500    6.9000  -60.0500 O.2       2 ALA2        0.0000 
     12 N         -69.9600    6.3600  -60.9300 N.am      2 ALA2        0.0000 
     13 N         -68.8700    5.8200  -61.8100 N.am      2 ALA2        0.0000 
     14 N         -67.6900    6.6100  -63.3900 N.am      2 ALA2        0.0000 
     15 N         -67.8400    6.2700  -60.8100 N.am      2 ALA2        0.0000 
     16 N         -66.6600    7.0600  -62.3900 N.am      2 ALA2        0.0000 
     17 O         -63.5500    5.1000  -62.4600 O.2       2 ALA2        0.0000 
     18 N         -63.4500    6.4300  -63.1500 N.am      2 ALA2        0.0000 
     19 O         -65.5300    8.8300  -62.0900 O.2       2 ALA2        0.0000 
     20 O         -64.4500    8.2900  -62.9700 O.2       2 ALA2        0.0000 
     21 N         -69.1100    9.7800  -54.3100 N.am      2 ALA2        0.0000 
     22 O         -69.0100   11.1000  -55.0000 O.2       2 ALA2        0.0000 
     23 N         -68.5400   17.7300  -58.4800 N.am      2 ALA2        0.0000 
     24 O         -65.9100    9.1500  -55.0700 O.2       2 ALA2        0.0000 
     25 O         -65.8100   10.4700  -55.7700 O.2       2 ALA2        0.0000 
     26 O         -64.7800   10.9200  -54.7700 O.2       2 ALA2        0.0000 
     27 O         -64.6900   12.2500  -55.4700 O.2       2 ALA2        0.0000 
     28 OD1       -66.9400    3.0800  -60.3000 O.co2     3 ASP3        0.0000 
     29 OD1       -71.8700   14.7200  -58.2000 O.co2     3 ASP3        0.0000 
     30 OD1       -71.0300   12.5200  -55.8100 O.co2     3 ASP3        0.0000 
     31 OD1       -69.8500   13.3100  -57.3900 O.co2     3 ASP3        0.0000 
     32 OD1       -69.7600   14.6300  -58.0900 O.co2     3 ASP3        0.0000 
     33 OD1       -69.6600   15.9600  -58.7800 O.co2     3 ASP3        0.0000 
     34 OD1       -70.1000   11.6400  -54.1200 O.co2     3 ASP3        0.0000 
     35 OD1       -68.9200   12.4300  -55.7000 O.co2     3 ASP3        0.0000 
     36 NZ        -71.1100    7.8900  -58.1700 N.4       4 LYS4        0.0000 
     37 NZ        -67.1000    2.7400  -57.7300 N.4       4 LYS4        0.0000 
     38 NZ        -67.0000    4.0700  -58.4300 N.4       4 LYS4        0.0000 
     39 NZ        -66.9100    5.4000  -59.1200 N.4       4 LYS4        0.0000 
     40 NZ        -65.8200    4.8500  -60.0000 N.4       4 LYS4        0.0000 
     41 NZ        -64.7300    4.3100  -60.8800 N.4       4 LYS4        0.0000 
     42 NZ        -65.9800    4.5200  -57.4300 N.4       4 LYS4        0.0000 
     43 CZ        -70.0200    7.3500  -59.0500 C.ar      5 PHE5        0.0000 
     44 CZ        -68.9300    6.8100  -59.9300 C.ar      5 PHE5        0.0000 
     45 CZ        -71.8100   13.7300  -60.0800 C.ar      5 PHE5        0.0000 
     46 CZ        -68.9900    7.8000  -58.0600 C.ar      5 PHE5        0.0000 
     47 CZ        -67.9000    7.2600  -58.9400 C.ar      5 PHE5        0.0000 
     48 CZ        -66.8100    6.7200  -59.8200 C.ar      5 PHE5        0.0000 
     49 CZ        -65.7300    6.1800  -60.7000 C.ar      5 PHE5        0.0000 
     50 CZ        -65.6300    7.5100  -61.3900 C.ar      5 PHE5        0.0000 
     51 CZ        -70.8800   12.8600  -58.3900 C.ar      5 PHE5        0.0000 
     52 CZ        -70.7800   14.1800  -59.0800 C.ar      5 PHE5        0.0000 
     53 CZ        -69.7000   13.6400  -59.9600 C.ar      5 PHE5        0.0000 
     54 CZ        -69.6000   14.9700  -60.6600 C.ar      5 PHE5        0.0000 
     55 CZ        -65.8800    5.8400  -58.1300 C.ar      5 PHE5        0.0000 
     56 CZ        -64.7900    5.3000  -59.0100 C.ar      5 PHE5        0.0000 
     57 CZ        -67.9600    8.2500  -57.0600 C.ar      5 PHE5        0.0000 
     58 CZ        -66.8700    7.7100  -57.9400 C.ar      5 PHE5        0.0000 
     59 CZ        -65.7900    7.1700  -58.8200 C.ar      5 PHE5        0.0000 
     60 CZ        -70.0400   10.6600  -56.0000 C.ar      5 PHE5        0.0000 
     61 CZ        -65.6900    8.4900  -59.5200 C.ar      5 PHE5        0.0000 
     62 CZ        -69.9500   11.9800  -56.6900 C.ar      5 PHE5        0.0000 
     63 CZ        -68.7600   12.7700  -58.2700 C.ar      5 PHE5        0.0000 
     64 CZ        -68.6700   14.0900  -58.9700 C.ar      5 PHE5        0.0000 
     65 CZ        -67.5800   13.5500  -59.8500 C.ar      5 PHE5        0.0000 
     66 CZ        -68.5700   15.4200  -59.6600 C.ar      5 PHE5        0.0000 
     67 CZ        -69.5600   17.2800  -59.4800 C.ar      5 PHE5        0.0000 
     68 CZ        -64.8500    6.2900  -57.1300 C.ar      5 PHE5        0.0000 
     69 CZ        -66.9300    8.7000  -56.0700 C.ar      5 PHE5        0.0000 
     70 CZ        -65.8500    8.1600  -56.9500 C.ar      5 PHE5        0.0000 
     71 CZ        -67.9300   10.5600  -55.8800 C.ar      5 PHE5        0.0000 
     72 CZ        -66.8400   10.0200  -56.7600 C.ar      5 PHE5        0.0000 
     73 CZ        -65.7500    9.4800  -57.6400 C.ar      5 PHE5        0.0000 
     74 CZ        -64.6600    8.9400  -58.5200 C.ar      5 PHE5        0.0000 
     75 CZ        -67.8300   11.8900  -56.5800 C.ar      5 PHE5        0.0000 
     76 CZ        -64.5700   10.2700  -59.2200 C.ar      5 PHE5        0.0000 
     77 CZ        -66.6500   12.6700  -58.1500 C.ar      5 PHE5        0.0000 
     78 CZ        -65.5600   12.1300  -59.0300 C.ar      5 PHE5        0.0000 
     79 CZ        -66.5500   14.0000  -58.8500 C.ar      5 PHE5        0.0000 
     80 CZ        -65.4600   13.4600  -59.7300 C.ar      5 PHE5        0.0000 
     81 CZ        -67.5400   15.8700  -58.6700 C.ar      5 PHE5        0.0000 
     82 CZ        -64.8200    8.6100  -55.9500 C.ar      5 PHE5        0.0000 
     83 CZ        -64.7200    9.9300  -56.6500 C.ar      5 PHE5        0.0000 
     84 CZ        -63.6300    9.3900  -57.5300 C.ar      5 PHE5        0.0000 
     85 CZ        -63.6900   10.3800  -55.6500 C.ar      5 PHE5        0.0000 
     86 CA        -70.9900    5.9100  -61.9300 C.3       6 GLY6        0.0000 
     87 CA        -69.9000    5.3700  -62.8100 C.3       6 GLY6        0.0000 
     88 CA        -67.8800    3.9600  -61.9900 C.3       6 GLY6        0.0000 
     89 CA        -67.7800    5.2800  -62.6900 C.3       6 GLY6        0.0000 
     90 CA        -68.0300    3.6200  -59.4200 C.3       6 GLY6        0.0000 
     91 CA        -66.8500    4.4100  -61.0000 C.3       6 GLY6        0.0000 
     92 CA        -65.7600    3.8700  -61.8800 C.3       6 GLY6        0.0000 
     93 CA        -66.7500    5.7300  -61.6900 C.3       6 GLY6        0.0000 
     94 CA        -65.6700    5.1900  -62.5700 C.3       6 GLY6        0.0000 
     95 CA        -65.5700    6.5200  -63.2700 C.3       6 GLY6        0.0000 
     96 CA        -64.4800    5.9800  -64.1500 C.3       6 GLY6        0.0000 
     97 CA        -65.4700    7.8400  -63.9700 C.3       6 GLY6        0.0000 
     98 CA        -71.7200   15.0600  -60.7700 C.3       6 GLY6        0.0000 
     99 CA        -70.6300   14.5200  -61.6500 C.3       6 GLY6        0.0000 
    100 CA        -70.5900   16.8300  -60.4700 C.3       6 GLY6        0.0000 
    101 CA        -64.5100    9.2800  -61.0900 C.3       6 GLY6        0.0000 
    102 CA        -67.7300   13.2200  -57.2700 C.3       6 GLY6        0.0000 
    103 CA        -64.4700   11.5900  -59.9100 C.3       6 GLY6        0.0000 
    104 CA        -68.6300   16.4100  -57.7900 C.3       6 GLY6        0.0000 
    105 CA        -66.8000   12.3400  -55.5800 C.3       6 GLY6        0.0000 
    106 CA        -65.7100   11.8000  -56.4600 C.3       6 GLY6        0.0000 
    107 CA        -64.6300   11.2600  -57.3400 C.3       6 GLY6        0.0000 
    108 CA        -63.5400   10.7200  -58.2200 C.3       6 GLY6        0.0000 
    109 CA        -65.6200   13.1200  -57.1600 C.3       6 GLY6        0.0000 
    110 CA        -64.5300   12.5800  -58.0400 C.3       6 GLY6        0.0000 
    111 CA        -63.4400   12.0400  -58.9200 C.3       6 GLY6        0.0000 
    112 CA        -64.4400   13.9100  -58.7300 C.3       6 GLY6        0.0000 
    113 DU        -69.1200    4.1600  -58.5400 H         7 CUB7        0.0000 
    114 DU        -70.1100    6.0300  -58.3600 H         7 CUB7        0.0000 
    115 DU        -69.0200    5.4900  -59.2400 H         7 CUB7        0.0000 
    116 DU        -67.9400    4.9500  -60.1200 H         7 CUB7        0.0000 
    117 DU        -68.0900    4.6100  -57.5500 H         7 CUB7        0.0000 
    118 DU        -69.0900    6.4800  -57.3600 H         7 CUB7        0.0000 
    119 DU        -68.0000    5.9400  -58.2400 H         7 CUB7        0.0000 
    120 DU        -70.6900   15.5100  -59.7800 H         7 CUB7        0.0000 
    121 DU        -66.9700    6.3800  -57.2500 H         7 CUB7        0.0000 
@<TRIPOS>BOND
@<TRIPOS>SUBSTRUCTURE
     1 SER1        1 GROUP   
     2 ALA2        5 GROUP   
     3 ASP3       28 GROUP   
     4 LYS4       36 GROUP   
     5 PHE5       43 GROUP   
     6 GLY6       86 GROUP   
     7 CUB7      113 GROUP   
@<TRIPOS>SET

