#    Name: 5z79_9_APC
#    Modification time : Fri May 22 19:28:35 2020

@<TRIPOS>MOLECULE
5z79_9_APC
   31    33     1     0     0
SMALL
NO_CHARGES


@<TRIPOS>ATOM
      1 PG        -39.9000   27.8390   24.3130 P.3       1 APC1102     0.0000 
      2 O1G       -40.5110   28.4240   23.0590 O.co2     1 APC1102     0.0000 
      3 O2G       -38.8020   26.8410   24.0150 O.co2     1 APC1102     0.0000 
      4 O3G       -40.9410   27.3090   25.2750 O.co2     1 APC1102     0.0000 
      5 PB        -38.0270   30.0470   24.5550 P.3       1 APC1102     0.0000 
      6 O1B       -37.2170   29.2750   23.5510 O.co2     1 APC1102     0.0000 
      7 O2B       -38.6560   31.3240   24.0740 O.co2     1 APC1102     0.0000 
      8 O3B       -39.1680   29.0630   25.0740 O.3       1 APC1102     0.0000 
      9 PA        -35.6050   29.2450   26.2340 P.3       1 APC1102     0.0000 
     10 O1A       -35.9440   27.9130   25.6190 O.co2     1 APC1102     0.0000 
     11 O2A       -34.3350   29.8860   25.7410 O.co2     1 APC1102     0.0000 
     12 C3A       -37.0000   30.3910   26.0140 C.3       1 APC1102     0.0000 
     13 O5'       -35.4930   29.0980   27.8170 O.3       1 APC1102     0.0000 
     14 C5'       -36.4600   28.3790   28.6120 C.3       1 APC1102     0.0000 
     15 C4'       -35.8490   27.0970   29.1230 C.3       1 APC1102     0.0000 
     16 O4'       -36.1350   26.0390   28.1800 O.3       1 APC1102     0.0000 
     17 C3'       -34.3220   27.0860   29.3130 C.3       1 APC1102     0.0000 
     18 O3'       -33.9830   26.9930   30.6850 O.3       1 APC1102     0.0000 
     19 C2'       -33.8230   25.8580   28.5370 C.3       1 APC1102     0.0000 
     20 O2'       -32.9260   25.0720   29.2910 O.3       1 APC1102     0.0000 
     21 C1'       -35.1060   25.0850   28.2400 C.3       1 APC1102     0.0000 
     22 N9        -35.0820   24.3540   26.9750 N.pl3     1 APC1102     0.0000 
     23 C8        -34.5010   24.7410   25.7910 C.2       1 APC1102     0.0000 
     24 N7        -34.6440   23.8650   24.8270 N.2       1 APC1102     0.0000 
     25 C5        -35.3700   22.8360   25.4080 C.ar      1 APC1102     0.0000 
     26 C6        -35.8440   21.6100   24.9040 C.ar      1 APC1102     0.0000 
     27 N6        -35.6440   21.1940   23.6570 N.pl3     1 APC1102     0.0000 
     28 N1        -36.5360   20.8130   25.7500 N.ar      1 APC1102     0.0000 
     29 C2        -36.7310   21.2370   27.0040 C.ar      1 APC1102     0.0000 
     30 N3        -36.3310   22.3590   27.5930 N.ar      1 APC1102     0.0000 
     31 C4        -35.6470   23.1270   26.7310 C.ar      1 APC1102     0.0000 
@<TRIPOS>BOND
     1    1    2 ar   
     2    1    3 ar   
     3    1    4 ar   
     4    1    8 1    
     5    5    6 ar   
     6    5    7 ar   
     7    5    8 1    
     8    5   12 1    
     9    9   10 ar   
    10    9   11 ar   
    11    9   12 1    
    12    9   13 1    
    13   13   14 1    
    14   14   15 1    
    15   15   16 1    
    16   15   17 1    
    17   16   21 1    
    18   17   18 1    
    19   17   19 1    
    20   19   20 1    
    21   19   21 1    
    22   21   22 1    
    23   22   23 1    
    24   22   31 1    
    25   23   24 2    
    26   24   25 1    
    27   25   26 ar   
    28   25   31 ar   
    29   26   27 1    
    30   26   28 ar   
    31   28   29 ar   
    32   29   30 ar   
    33   30   31 ar   
@<TRIPOS>SUBSTRUCTURE
     1 APC1102     1 GROUP   
@<TRIPOS>SET

