#    Name: 5z79_18_PE0_CAVITY_N1_12
#    Modification time : Fri May 22 19:29:28 2020

@<TRIPOS>MOLECULE
5z79_18_PE0_CAVITY_N1_12
   83     0     7     0     0
SMALL
NO_CHARGES


@<TRIPOS>ATOM
      1 OG         27.9400   16.3000  -73.8300 O.3       1 SER1        0.0000 
      2 OG         28.0300   17.6300  -74.5300 O.3       1 SER1        0.0000 
      3 OG         27.4000   10.6600  -68.4800 O.3       1 SER1        0.0000 
      4 OG         36.3000   14.6100  -72.6700 O.3       1 SER1        0.0000 
      5 O          26.7200   13.2000  -73.4400 O.2       2 ALA2        0.0000 
      6 N          28.7400   11.7900  -72.6200 N.am      2 ALA2        0.0000 
      7 O          28.9600   16.7500  -72.8400 O.2       2 ALA2        0.0000 
      8 O          29.0600   18.0800  -73.5300 O.2       2 ALA2        0.0000 
      9 N          30.1500   17.5400  -74.4100 N.am      2 ALA2        0.0000 
     10 N          30.2400   18.8600  -75.1100 N.am      2 ALA2        0.0000 
     11 N          30.0900   18.5300  -72.5400 N.am      2 ALA2        0.0000 
     12 N          31.1800   17.9900  -73.4200 N.am      2 ALA2        0.0000 
     13 OD1        28.8300   13.1100  -73.3200 O.co2     3 ASP3        0.0000 
     14 OD1        30.8500   11.6900  -72.5100 O.co2     3 ASP3        0.0000 
     15 OD1        29.8600   13.5600  -72.3200 O.co2     3 ASP3        0.0000 
     16 OD1        29.9600   14.8900  -73.0200 O.co2     3 ASP3        0.0000 
     17 OD1        31.2400   17.0000  -75.2900 O.co2     3 ASP3        0.0000 
     18 OD1        29.4200    9.2500  -67.6700 O.co2     3 ASP3        0.0000 
     19 OD1        31.8800   12.1400  -71.5100 O.co2     3 ASP3        0.0000 
     20 OD1        32.9700   11.6000  -72.3900 O.co2     3 ASP3        0.0000 
     21 OD1        31.9800   13.4700  -72.2100 O.co2     3 ASP3        0.0000 
     22 OD1        32.0700   14.7900  -72.9000 O.co2     3 ASP3        0.0000 
     23 OD1        32.1700   16.1200  -73.6000 O.co2     3 ASP3        0.0000 
     24 OD1        30.5400   11.0200  -67.3700 O.co2     3 ASP3        0.0000 
     25 OD1        31.6300   10.4800  -68.2500 O.co2     3 ASP3        0.0000 
     26 OD1        33.0000   13.9200  -71.2100 O.co2     3 ASP3        0.0000 
     27 OD1        34.0900   13.3800  -72.0900 O.co2     3 ASP3        0.0000 
     28 OD1        33.1000   15.2400  -71.9100 O.co2     3 ASP3        0.0000 
     29 OD1        34.1900   14.7000  -72.7900 O.co2     3 ASP3        0.0000 
     30 OD1        35.2800   14.1600  -73.6700 O.co2     3 ASP3        0.0000 
     31 NZ         30.8300   15.0000  -69.4500 N.4       4 LYS4        0.0000 
     32 NZ         31.9200   14.4600  -70.3300 N.4       4 LYS4        0.0000 
     33 NZ         32.0100   15.7800  -71.0300 N.4       4 LYS4        0.0000 
     34 NZ         32.1100   17.1100  -71.7200 N.4       4 LYS4        0.0000 
     35 NZ         33.2000   16.5700  -72.6000 N.4       4 LYS4        0.0000 
     36 NZ         32.2000   18.4300  -72.4200 N.4       4 LYS4        0.0000 
     37 NZ         33.2900   17.8900  -73.3000 N.4       4 LYS4        0.0000 
     38 NZ         32.9400   14.9100  -69.3400 N.4       4 LYS4        0.0000 
     39 NZ         33.0400   16.2300  -70.0300 N.4       4 LYS4        0.0000 
     40 NZ         34.1300   15.6900  -70.9100 N.4       4 LYS4        0.0000 
     41 NZ         35.2200   15.1500  -71.7900 N.4       4 LYS4        0.0000 
     42 NZ         35.3100   16.4800  -72.4900 N.4       4 LYS4        0.0000 
     43 NZ         36.2400   15.6000  -70.8000 N.4       4 LYS4        0.0000 
     44 CZ         27.6500   12.3300  -71.7400 C.ar      5 PHE5        0.0000 
     45 CZ         27.7400   13.6500  -72.4400 C.ar      5 PHE5        0.0000 
     46 CZ         27.8400   14.9800  -73.1400 C.ar      5 PHE5        0.0000 
     47 CZ         28.5800   11.4500  -70.0500 C.ar      5 PHE5        0.0000 
     48 CZ         29.6700   10.9100  -70.9300 C.ar      5 PHE5        0.0000 
     49 CZ         30.7600   10.3700  -71.8100 C.ar      5 PHE5        0.0000 
     50 CZ         29.7600   12.2300  -71.6300 C.ar      5 PHE5        0.0000 
     51 CZ         28.7700   14.1000  -71.4400 C.ar      5 PHE5        0.0000 
     52 CZ         28.8700   15.4300  -72.1400 C.ar      5 PHE5        0.0000 
     53 CZ         28.4300   11.1100  -67.4800 C.ar      5 PHE5        0.0000 
     54 CZ         29.5100   10.5700  -68.3600 C.ar      5 PHE5        0.0000 
     55 CZ         29.6100   11.9000  -69.0600 C.ar      5 PHE5        0.0000 
     56 CZ         30.7000   11.3600  -69.9400 C.ar      5 PHE5        0.0000 
     57 CZ         30.7900   12.6800  -70.6300 C.ar      5 PHE5        0.0000 
     58 CZ         29.8000   14.5500  -70.4500 C.ar      5 PHE5        0.0000 
     59 CZ         30.7300   13.6700  -68.7600 C.ar      5 PHE5        0.0000 
     60 CZ         34.2800   16.0300  -73.4800 C.ar      5 PHE5        0.0000 
     61 CA         28.9300   14.4400  -74.0200 C.3       6 GLY6        0.0000 
     62 CA         29.0200   15.7600  -74.7100 C.3       6 GLY6        0.0000 
     63 CA         30.0500   16.2100  -73.7200 C.3       6 GLY6        0.0000 
     64 CA         30.5100    8.7100  -68.5500 C.3       6 GLY6        0.0000 
     65 CA         30.6000   10.0300  -69.2400 C.3       6 GLY6        0.0000 
     66 CA         31.7900   10.8200  -70.8200 C.3       6 GLY6        0.0000 
     67 CA         32.8700   10.2800  -71.7000 C.3       6 GLY6        0.0000 
     68 CA         32.2600   17.4500  -74.3000 C.3       6 GLY6        0.0000 
     69 CA         32.3600   18.7700  -74.9900 C.3       6 GLY6        0.0000 
     70 CA         32.7200    9.9400  -69.1300 C.3       6 GLY6        0.0000 
     71 CA         33.8100    9.4000  -70.0100 C.3       6 GLY6        0.0000 
     72 CA         31.7300   11.8100  -68.9400 C.3       6 GLY6        0.0000 
     73 CA         32.8100   11.2700  -69.8200 C.3       6 GLY6        0.0000 
     74 CA         33.9000   10.7300  -70.7000 C.3       6 GLY6        0.0000 
     75 CA         32.8500   13.5800  -68.6400 C.3       6 GLY6        0.0000 
     76 DU         30.8900   14.0100  -71.3300 H         7 CUB7        0.0000 
     77 DU         30.9800   15.3300  -72.0200 H         7 CUB7        0.0000 
     78 DU         31.0800   16.6600  -72.7200 H         7 CUB7        0.0000 
     79 DU         31.8200   13.1300  -69.6400 H         7 CUB7        0.0000 
     80 DU         32.9100   12.5900  -70.5200 H         7 CUB7        0.0000 
     81 DU         33.9400   13.0400  -69.5200 H         7 CUB7        0.0000 
     82 DU         34.0300   14.3700  -70.2200 H         7 CUB7        0.0000 
     83 DU         35.1200   13.8300  -71.1000 H         7 CUB7        0.0000 
@<TRIPOS>BOND
@<TRIPOS>SUBSTRUCTURE
     1 SER1        1 GROUP   
     2 ALA2        5 GROUP   
     3 ASP3       13 GROUP   
     4 LYS4       31 GROUP   
     5 PHE5       44 GROUP   
     6 GLY6       61 GROUP   
     7 CUB7       76 GROUP   
@<TRIPOS>SET

