#    Name: 5z79_20_PAB_CAVITY_N1_4
#    Modification time : Fri May 22 19:29:47 2020

@<TRIPOS>MOLECULE
5z79_20_PAB_CAVITY_N1_4
   43     0     5     0     0
SMALL
NO_CHARGES


@<TRIPOS>ATOM
      1 O         -30.4300   24.6000  -69.2800 O.2       1 ALA2        0.0000 
      2 N         -25.4000   19.9000  -67.8400 N.am      1 ALA2        0.0000 
      3 O         -23.2500   22.1200  -66.5400 O.2       1 ALA2        0.0000 
      4 O         -23.2100   24.4300  -65.3600 O.2       1 ALA2        0.0000 
      5 OD1       -28.2600   23.5200  -71.0400 O.co2     2 ASP3        0.0000 
      6 OD1       -27.3300   22.6400  -69.3500 O.co2     2 ASP3        0.0000 
      7 OD1       -27.2300   23.9700  -70.0400 O.co2     2 ASP3        0.0000 
      8 OD1       -27.1300   25.2900  -70.7400 O.co2     2 ASP3        0.0000 
      9 OD1       -25.3000   21.2200  -68.5300 O.co2     2 ASP3        0.0000 
     10 OD1       -26.3000   23.0900  -68.3500 O.co2     2 ASP3        0.0000 
     11 OD1       -24.3700   20.3500  -66.8400 O.co2     2 ASP3        0.0000 
     12 OD1       -22.2600   20.2500  -66.7300 O.co2     2 ASP3        0.0000 
     13 CZ        -29.2900   23.0700  -72.0300 C.ar      3 PHE5        0.0000 
     14 CZ        -28.2000   22.5300  -72.9100 C.ar      3 PHE5        0.0000 
     15 CZ        -28.3500   22.1900  -70.3400 C.ar      3 PHE5        0.0000 
     16 CZ        -27.4200   21.3100  -68.6500 C.ar      3 PHE5        0.0000 
     17 CZ        -26.3300   20.7700  -69.5300 C.ar      3 PHE5        0.0000 
     18 CZ        -29.4100   25.0500  -68.2800 C.ar      3 PHE5        0.0000 
     19 CZ        -28.3200   24.5100  -69.1600 C.ar      3 PHE5        0.0000 
     20 CZ        -28.2200   25.8300  -69.8600 C.ar      3 PHE5        0.0000 
     21 CZ        -27.3900   23.6300  -67.4700 C.ar      3 PHE5        0.0000 
     22 CZ        -26.2000   24.4100  -69.0500 C.ar      3 PHE5        0.0000 
     23 CZ        -26.1100   25.7400  -69.7400 C.ar      3 PHE5        0.0000 
     24 CZ        -26.3600   24.0800  -66.4700 C.ar      3 PHE5        0.0000 
     25 CZ        -25.2700   23.5400  -67.3500 C.ar      3 PHE5        0.0000 
     26 CZ        -26.5100   23.7400  -63.9000 C.ar      3 PHE5        0.0000 
     27 CZ        -24.2400   23.9900  -66.3600 C.ar      3 PHE5        0.0000 
     28 CA        -30.3700   23.6100  -71.1500 C.3       4 GLY6        0.0000 
     29 CA        -29.4400   22.7300  -69.4600 C.3       4 GLY6        0.0000 
     30 CA        -28.4100   23.1800  -68.4700 C.3       4 GLY6        0.0000 
     31 CA        -26.3900   21.7600  -67.6500 C.3       4 GLY6        0.0000 
     32 CA        -23.2800   19.8100  -67.7200 C.3       4 GLY6        0.0000 
     33 CA        -25.3600   22.2100  -66.6600 C.3       4 GLY6        0.0000 
     34 CA        -24.2800   21.6700  -67.5400 C.3       4 GLY6        0.0000 
     35 CA        -23.1900   21.1300  -68.4200 C.3       4 GLY6        0.0000 
     36 CA        -24.4300   21.3300  -64.9700 C.3       4 GLY6        0.0000 
     37 CA        -25.4200   23.2000  -64.7800 C.3       4 GLY6        0.0000 
     38 CA        -24.3400   22.6600  -65.6600 C.3       4 GLY6        0.0000 
     39 CA        -24.4900   22.3200  -63.0900 C.3       4 GLY6        0.0000 
     40 CA        -24.4000   23.6500  -63.7900 C.3       4 GLY6        0.0000 
     41 CA        -23.3100   23.1100  -64.6700 C.3       4 GLY6        0.0000 
     42 CA        -23.3700   24.1000  -62.7900 C.3       4 GLY6        0.0000 
     43 DU        -29.3500   24.0600  -70.1600 H         5 CUB7        0.0000 
@<TRIPOS>BOND
@<TRIPOS>SUBSTRUCTURE
     1 ALA2        1 GROUP   
     2 ASP3        5 GROUP   
     3 PHE5       13 GROUP   
     4 GLY6       28 GROUP   
     5 CUB7       43 GROUP   
@<TRIPOS>SET

