#    Name: 5z79_7_PAB_CAVITY_N1_12
#    Modification time : Fri May 22 19:28:25 2020

@<TRIPOS>MOLECULE
5z79_7_PAB_CAVITY_N1_12
   78     0     7     0     0
SMALL
NO_CHARGES


@<TRIPOS>ATOM
      1 OG        -31.0800  -28.4700  -60.5100 O.3       1 SER1        0.0000 
      2 OG        -29.1600  -31.2100  -59.0100 O.3       1 SER1        0.0000 
      3 N         -32.3600  -30.5800  -58.2400 N.am      2 ALA2        0.0000 
      4 N         -31.2800  -31.1200  -59.1200 N.am      2 ALA2        0.0000 
      5 O         -31.1800  -29.8000  -59.8200 O.2       2 ALA2        0.0000 
      6 O         -30.3400  -32.0000  -57.4300 O.2       2 ALA2        0.0000 
      7 N         -31.3400  -30.1300  -57.2500 N.am      2 ALA2        0.0000 
      8 N         -30.2500  -30.6700  -58.1300 N.am      2 ALA2        0.0000 
      9 O         -29.0600  -29.8900  -59.7000 O.2       2 ALA2        0.0000 
     10 O         -30.4000  -31.0100  -55.5500 O.2       2 ALA2        0.0000 
     11 N         -25.7300  -26.8800  -59.9800 N.am      2 ALA2        0.0000 
     12 N         -23.6700  -25.9800  -57.9900 N.am      2 ALA2        0.0000 
     13 N         -22.0000  -30.3900  -53.2100 N.am      2 ALA2        0.0000 
     14 O         -21.9000  -29.0600  -53.9100 O.2       2 ALA2        0.0000 
     15 N         -20.9700  -29.9400  -52.2200 N.am      2 ALA2        0.0000 
     16 OD1       -31.2400  -28.8100  -57.9400 O.co2     3 ASP3        0.0000 
     17 OD1       -32.2300  -26.9400  -57.7600 O.co2     3 ASP3        0.0000 
     18 OD1       -31.1400  -27.4800  -58.6400 O.co2     3 ASP3        0.0000 
     19 OD1       -30.3100  -29.6800  -56.2500 O.co2     3 ASP3        0.0000 
     20 OD1       -30.2100  -28.3600  -56.9500 O.co2     3 ASP3        0.0000 
     21 OD1       -30.1200  -27.0300  -57.6400 O.co2     3 ASP3        0.0000 
     22 OD1       -31.1100  -25.1700  -57.4600 O.co2     3 ASP3        0.0000 
     23 OD1       -30.3700  -28.7000  -54.3700 O.co2     3 ASP3        0.0000 
     24 OD1       -30.1800  -26.0500  -55.7700 O.co2     3 ASP3        0.0000 
     25 OD1       -21.7500  -28.7300  -56.4800 O.co2     3 ASP3        0.0000 
     26 OD1       -22.7400  -26.8600  -56.3000 O.co2     3 ASP3        0.0000 
     27 NZ        -32.2700  -29.2600  -58.9400 N.4       4 LYS4        0.0000 
     28 NZ        -32.1700  -27.9300  -59.6300 N.4       4 LYS4        0.0000 
     29 NZ        -32.1400  -25.6200  -58.4500 N.4       4 LYS4        0.0000 
     30 CZ        -31.0500  -26.1600  -59.3300 C.ar      5 PHE5        0.0000 
     31 CZ        -29.3200  -31.5500  -56.4300 C.ar      5 PHE5        0.0000 
     32 CZ        -29.2200  -30.2300  -57.1300 C.ar      5 PHE5        0.0000 
     33 CZ        -28.1300  -30.7700  -58.0100 C.ar      5 PHE5        0.0000 
     34 CZ        -29.1200  -28.9000  -57.8300 C.ar      5 PHE5        0.0000 
     35 CZ        -28.0400  -29.4400  -58.7100 C.ar      5 PHE5        0.0000 
     36 CZ        -29.0300  -27.5700  -58.5200 C.ar      5 PHE5        0.0000 
     37 CZ        -30.0200  -25.7100  -58.3400 C.ar      5 PHE5        0.0000 
     38 CZ        -29.2800  -29.2400  -55.2500 C.ar      5 PHE5        0.0000 
     39 CZ        -28.1000  -28.4500  -56.8300 C.ar      5 PHE5        0.0000 
     40 CZ        -27.0100  -28.9900  -57.7100 C.ar      5 PHE5        0.0000 
     41 CZ        -26.9100  -27.6700  -58.4100 C.ar      5 PHE5        0.0000 
     42 CZ        -26.8200  -26.3400  -59.1000 C.ar      5 PHE5        0.0000 
     43 CZ        -27.0700  -28.0000  -55.8300 C.ar      5 PHE5        0.0000 
     44 CZ        -25.9800  -28.5400  -56.7100 C.ar      5 PHE5        0.0000 
     45 CZ        -24.8900  -29.0800  -57.5900 C.ar      5 PHE5        0.0000 
     46 CZ        -23.9600  -29.9600  -55.9000 C.ar      5 PHE5        0.0000 
     47 CZ        -22.8700  -30.5000  -56.7800 C.ar      5 PHE5        0.0000 
     48 CZ        -23.8600  -28.6300  -56.6000 C.ar      5 PHE5        0.0000 
     49 CZ        -22.0300  -32.7000  -54.3900 C.ar      5 PHE5        0.0000 
     50 CZ        -21.9400  -31.3800  -55.0900 C.ar      5 PHE5        0.0000 
     51 CZ        -22.9300  -29.5100  -54.9100 C.ar      5 PHE5        0.0000 
     52 CA        -30.0600  -28.0200  -59.5200 C.3       6 GLY6        0.0000 
     53 CA        -28.9700  -28.5600  -60.4000 C.3       6 GLY6        0.0000 
     54 CA        -27.9400  -28.1100  -59.4000 C.3       6 GLY6        0.0000 
     55 CA        -29.1800  -27.9100  -55.9500 C.3       6 GLY6        0.0000 
     56 CA        -29.0900  -26.5900  -56.6500 C.3       6 GLY6        0.0000 
     57 CA        -28.0000  -27.1300  -57.5300 C.3       6 GLY6        0.0000 
     58 CA        -25.8200  -28.2100  -59.2900 C.3       6 GLY6        0.0000 
     59 CA        -23.9000  -30.9500  -57.7800 C.3       6 GLY6        0.0000 
     60 CA        -25.8800  -27.2200  -57.4100 C.3       6 GLY6        0.0000 
     61 CA        -24.8000  -27.7600  -58.2900 C.3       6 GLY6        0.0000 
     62 CA        -25.7900  -25.8900  -58.1100 C.3       6 GLY6        0.0000 
     63 CA        -24.7000  -26.4300  -58.9900 C.3       6 GLY6        0.0000 
     64 CA        -21.8800  -32.3700  -56.9700 C.3       6 GLY6        0.0000 
     65 CA        -21.7800  -31.0400  -57.6600 C.3       6 GLY6        0.0000 
     66 CA        -20.7000  -31.5800  -58.5400 C.3       6 GLY6        0.0000 
     67 CA        -24.9500  -28.0900  -55.7200 C.3       6 GLY6        0.0000 
     68 CA        -22.7800  -29.1700  -57.4800 C.3       6 GLY6        0.0000 
     69 CA        -24.8600  -26.7700  -56.4100 C.3       6 GLY6        0.0000 
     70 CA        -23.7700  -27.3100  -57.2900 C.3       6 GLY6        0.0000 
     71 CA        -24.7600  -25.4400  -57.1100 C.3       6 GLY6        0.0000 
     72 CA        -21.8400  -30.0500  -55.7900 C.3       6 GLY6        0.0000 
     73 CA        -20.7600  -30.5900  -56.6700 C.3       6 GLY6        0.0000 
     74 CA        -22.8400  -28.1900  -55.6000 C.3       6 GLY6        0.0000 
     75 CA        -20.9100  -30.9300  -54.0900 C.3       6 GLY6        0.0000 
     76 CA        -19.8800  -30.4800  -53.1000 C.3       6 GLY6        0.0000 
     77 DU        -30.1500  -29.3500  -58.8200 H         7 CUB7        0.0000 
     78 DU        -20.8500  -31.9200  -55.9700 H         7 CUB7        0.0000 
@<TRIPOS>BOND
@<TRIPOS>SUBSTRUCTURE
     1 SER1        1 GROUP   
     2 ALA2        3 GROUP   
     3 ASP3       16 GROUP   
     4 LYS4       27 GROUP   
     5 PHE5       30 GROUP   
     6 GLY6       52 GROUP   
     7 CUB7       77 GROUP   
@<TRIPOS>SET

