#    Name: 5z79_3_PAB
#    Modification time : Fri May 22 19:28:06 2020

@<TRIPOS>MOLECULE
5z79_3_PAB
   10    10     1     0     0
SMALL
NO_CHARGES


@<TRIPOS>ATOM
      1 C1'       -32.4520  -29.2120  -18.5980 C.2       1 PAB1103     0.0000 
      2 O1'       -32.5850  -29.8510  -19.6640 O.co2     1 PAB1103     0.0000 
      3 O2'       -33.3540  -28.4560  -18.1690 O.co2     1 PAB1103     0.0000 
      4 C1        -31.1950  -29.3890  -17.8030 C.ar      1 PAB1103     0.0000 
      5 C2        -30.3270  -30.4250  -18.1270 C.ar      1 PAB1103     0.0000 
      6 C3        -29.1670  -30.6040  -17.3950 C.ar      1 PAB1103     0.0000 
      7 C4        -28.8770  -29.7510  -16.3410 C.ar      1 PAB1103     0.0000 
      8 C5        -29.7360  -28.7170  -16.0040 C.ar      1 PAB1103     0.0000 
      9 C6        -30.8980  -28.5390  -16.7410 C.ar      1 PAB1103     0.0000 
     10 N4        -27.7470  -29.9520  -15.6380 N.pl3     1 PAB1103     0.0000 
@<TRIPOS>BOND
     1    1    2 ar   
     2    1    3 ar   
     3    1    4 1    
     4    4    5 ar   
     5    4    9 ar   
     6    5    6 ar   
     7    6    7 ar   
     8    7    8 ar   
     9    7   10 1    
    10    8    9 ar   
@<TRIPOS>SUBSTRUCTURE
     1 PAB1103     1 GROUP   
@<TRIPOS>SET

