#    Name: 5z79_18_PE0
#    Modification time : Fri May 22 19:29:28 2020

@<TRIPOS>MOLECULE
5z79_18_PE0
   12    13     1     0     0
SMALL
NO_CHARGES


@<TRIPOS>ATOM
      1 C1         29.3260   14.6870  -72.3940 C.ar      1 PE01104     0.0000 
      2 C4         28.7600   16.0390  -72.6040 C.2       1 PE01104     0.0000 
      3 O4         29.3360   17.0790  -72.2510 O.2       1 PE01104     0.0000 
      4 N2         27.5880   16.1340  -73.1940 N.am      1 PE01104     0.0000 
      5 C3         26.8980   15.0790  -73.5990 C.2       1 PE01104     0.0000 
      6 N6         25.7090   15.2560  -74.1940 N.pl3     1 PE01104     0.0000 
      7 N1         27.3460   13.8400  -73.4490 N.2       1 PE01104     0.0000 
      8 C2         28.5140   13.5750  -72.8600 C.ar      1 PE01104     0.0000 
      9 N3         28.9670   12.3340  -72.6930 N.ar      1 PE01104     0.0000 
     10 C6         30.1370   12.1310  -72.1080 C.ar      1 PE01104     0.0000 
     11 C5         30.9120   13.1780  -71.6560 C.ar      1 PE01104     0.0000 
     12 N4         30.5050   14.4280  -71.7920 N.ar      1 PE01104     0.0000 
@<TRIPOS>BOND
     1    1    2 1    
     2    1    8 ar   
     3    1   12 ar   
     4    2    3 2    
     5    2    4 am   
     6    4    5 1    
     7    5    6 1    
     8    5    7 2    
     9    7    8 1    
    10    8    9 ar   
    11    9   10 ar   
    12   10   11 ar   
    13   11   12 ar   
@<TRIPOS>SUBSTRUCTURE
     1 PE01104     1 GROUP   
@<TRIPOS>SET

