#    Name: 5z79_9_APC_CAVITY_N1_8
#    Modification time : Fri May 22 19:28:36 2020

@<TRIPOS>MOLECULE
5z79_9_APC_CAVITY_N1_8
   80     0     7     0     0
SMALL
NO_CHARGES


@<TRIPOS>ATOM
      1 OG        -39.9300   24.5700   26.3900 O.3       1 SER1        0.0000 
      2 OG        -39.8400   25.9000   25.7000 O.3       1 SER1        0.0000 
      3 OG        -37.8200   24.4800   26.5100 O.3       1 SER1        0.0000 
      4 OG        -38.8100   26.3500   26.6900 O.3       1 SER1        0.0000 
      5 OG        -37.7200   25.8100   25.8100 O.3       1 SER1        0.0000 
      6 N         -36.8600   20.3000   25.1400 N.am      2 ALA2        0.0000 
      7 N         -35.7700   19.7600   24.2600 N.am      2 ALA2        0.0000 
      8 N         -35.6800   21.0900   23.5700 N.am      2 ALA2        0.0000 
      9 N         -36.9200   21.2900   27.0200 N.am      2 ALA2        0.0000 
     10 N         -35.8300   20.7500   26.1400 N.am      2 ALA2        0.0000 
     11 O         -40.9900   27.4300   28.4500 O.2       2 ALA2        0.0000 
     12 O         -35.8900   21.7400   28.0200 O.2       2 ALA2        0.0000 
     13 N         -35.8000   23.0600   27.3200 N.am      2 ALA2        0.0000 
     14 N         -33.6800   22.9700   27.4400 N.am      2 ALA2        0.0000 
     15 N         -34.6700   24.8400   27.6200 N.am      2 ALA2        0.0000 
     16 O         -34.7300   25.8300   29.5000 O.2       2 ALA2        0.0000 
     17 N         -33.6400   25.2900   28.6200 N.am      2 ALA2        0.0000 
     18 N         -34.6400   27.1500   28.8000 N.am      2 ALA2        0.0000 
     19 N         -33.5500   26.6100   27.9200 N.am      2 ALA2        0.0000 
     20 OD1       -34.5800   26.1600   26.9200 O.co2     3 ASP3        0.0000 
     21 OD1       -35.5700   28.0300   27.1100 O.co2     3 ASP3        0.0000 
     22 OD1       -34.4800   27.4900   26.2300 O.co2     3 ASP3        0.0000 
     23 OD1       -35.4700   29.3500   26.4100 O.co2     3 ASP3        0.0000 
     24 OD1       -32.4600   26.0700   27.0400 O.co2     3 ASP3        0.0000 
     25 NZ        -36.6300   25.2700   24.9300 N.4       4 LYS4        0.0000 
     26 NZ        -35.5500   24.7300   24.0500 N.4       4 LYS4        0.0000 
     27 NZ        -37.6300   27.1300   25.1200 N.4       4 LYS4        0.0000 
     28 NZ        -35.6100   25.7100   25.9300 N.4       4 LYS4        0.0000 
     29 NZ        -35.5100   27.0400   25.2300 N.4       4 LYS4        0.0000 
     30 NZ        -35.4100   28.3600   24.5400 N.4       4 LYS4        0.0000 
     31 CZ        -41.9500   25.9900   25.5800 C.ar      5 PHE5        0.0000 
     32 CZ        -38.9400   22.7100   26.2100 C.ar      5 PHE5        0.0000 
     33 CZ        -36.7600   21.6300   24.4500 C.ar      5 PHE5        0.0000 
     34 CZ        -42.1100   25.6500   28.1500 C.ar      5 PHE5        0.0000 
     35 CZ        -41.0200   25.1100   27.2700 C.ar      5 PHE5        0.0000 
     36 CZ        -36.6700   22.9500   23.7500 C.ar      5 PHE5        0.0000 
     37 CZ        -42.0100   26.9800   27.4600 C.ar      5 PHE5        0.0000 
     38 CZ        -40.9300   26.4400   26.5800 C.ar      5 PHE5        0.0000 
     39 CZ        -41.9200   28.3000   26.7600 C.ar      5 PHE5        0.0000 
     40 CZ        -40.0900   24.2400   28.9600 C.ar      5 PHE5        0.0000 
     41 CZ        -39.0000   23.6900   28.0800 C.ar      5 PHE5        0.0000 
     42 CZ        -37.9100   23.1500   27.2000 C.ar      5 PHE5        0.0000 
     43 CZ        -36.8200   22.6100   26.3200 C.ar      5 PHE5        0.0000 
     44 CZ        -39.9900   25.5600   28.2700 C.ar      5 PHE5        0.0000 
     45 CZ        -38.9100   25.0200   27.3900 C.ar      5 PHE5        0.0000 
     46 CZ        -36.7300   23.9400   25.6300 C.ar      5 PHE5        0.0000 
     47 CZ        -35.6400   23.4000   24.7500 C.ar      5 PHE5        0.0000 
     48 CZ        -36.8800   23.6000   28.2000 C.ar      5 PHE5        0.0000 
     49 CZ        -40.0500   26.5500   30.1400 C.ar      5 PHE5        0.0000 
     50 CZ        -38.9700   26.0100   29.2600 C.ar      5 PHE5        0.0000 
     51 CZ        -37.8800   25.4700   28.3800 C.ar      5 PHE5        0.0000 
     52 CZ        -36.7900   24.9300   27.5000 C.ar      5 PHE5        0.0000 
     53 CZ        -38.8700   27.3300   28.5700 C.ar      5 PHE5        0.0000 
     54 CZ        -35.8600   24.0500   29.2000 C.ar      5 PHE5        0.0000 
     55 CZ        -36.8500   25.9200   29.3800 C.ar      5 PHE5        0.0000 
     56 CZ        -35.7600   25.3800   28.5000 C.ar      5 PHE5        0.0000 
     57 CZ        -37.8400   27.7800   29.5600 C.ar      5 PHE5        0.0000 
     58 CZ        -36.7500   27.2400   28.6800 C.ar      5 PHE5        0.0000 
     59 CZ        -35.8200   26.3700   30.3800 C.ar      5 PHE5        0.0000 
     60 CA        -40.0300   23.2500   27.0900 C.3       6 GLY6        0.0000 
     61 CA        -34.7400   20.2100   25.2600 C.3       6 GLY6        0.0000 
     62 CA        -34.6500   21.5300   24.5600 C.3       6 GLY6        0.0000 
     63 CA        -34.5500   22.8600   23.8700 C.3       6 GLY6        0.0000 
     64 CA        -34.4600   24.1800   23.1700 C.3       6 GLY6        0.0000 
     65 CA        -34.8000   21.2000   27.1400 C.3       6 GLY6        0.0000 
     66 CA        -34.7100   22.5200   26.4400 C.3       6 GLY6        0.0000 
     67 CA        -34.6100   23.8500   25.7400 C.3       6 GLY6        0.0000 
     68 CA        -34.5200   25.1700   25.0500 C.3       6 GLY6        0.0000 
     69 CA        -33.4300   24.6300   24.1700 C.3       6 GLY6        0.0000 
     70 CA        -34.4200   26.5000   24.3500 C.3       6 GLY6        0.0000 
     71 CA        -33.5800   24.3000   26.7400 C.3       6 GLY6        0.0000 
     72 CA        -33.4900   25.6200   26.0400 C.3       6 GLY6        0.0000 
     73 CA        -32.5600   24.7500   27.7400 C.3       6 GLY6        0.0000 
     74 DU        -35.7400   22.0700   25.4400 H         7 CUB7        0.0000 
     75 DU        -39.9000   26.8900   27.5700 H         7 CUB7        0.0000 
     76 DU        -35.7000   24.3900   26.6200 H         7 CUB7        0.0000 
     77 DU        -37.7800   26.7900   27.6900 H         7 CUB7        0.0000 
     78 DU        -36.6900   26.2500   26.8100 H         7 CUB7        0.0000 
     79 DU        -36.6000   27.5800   26.1100 H         7 CUB7        0.0000 
     80 DU        -35.6700   26.7000   27.8000 H         7 CUB7        0.0000 
@<TRIPOS>BOND
@<TRIPOS>SUBSTRUCTURE
     1 SER1        1 GROUP   
     2 ALA2        6 GROUP   
     3 ASP3       20 GROUP   
     4 LYS4       25 GROUP   
     5 PHE5       31 GROUP   
     6 GLY6       60 GROUP   
     7 CUB7       74 GROUP   
@<TRIPOS>SET

