#    Name: 5z79_3_PAB_CAVITY_N1_6
#    Modification time : Fri May 22 19:28:07 2020

@<TRIPOS>MOLECULE
5z79_3_PAB_CAVITY_N1_6
   67     0     7     0     0
SMALL
NO_CHARGES


@<TRIPOS>ATOM
      1 OG        -33.5100  -34.8500  -21.2500 O.3       1 SER1        0.0000 
      2 OG        -33.4200  -33.5200  -21.9400 O.3       1 SER1        0.0000 
      3 OG        -24.9200  -31.5700  -20.3000 O.3       1 SER1        0.0000 
      4 O         -32.3500  -30.7600  -19.7700 O.2       2 ALA2        0.0000 
      5 N         -28.3400  -30.2900  -15.0900 N.am      2 ALA2        0.0000 
      6 O         -27.2500  -30.8300  -15.9700 O.2       2 ALA2        0.0000 
      7 O         -25.1300  -30.9200  -15.8500 O.2       2 ALA2        0.0000 
      8 OD1       -33.5400  -31.5400  -18.1900 O.co2     3 ASP3        0.0000 
      9 OD1       -32.4100  -29.7700  -17.8900 O.co2     3 ASP3        0.0000 
     10 OD1       -32.3200  -28.4400  -18.5900 O.co2     3 ASP3        0.0000 
     11 OD1       -24.8200  -30.2500  -20.9900 O.co2     3 ASP3        0.0000 
     12 OD1       -25.1700  -33.2300  -17.0300 O.co2     3 ASP3        0.0000 
     13 OD1       -25.0700  -31.9100  -17.7300 O.co2     3 ASP3        0.0000 
     14 OD1       -23.9900  -32.4500  -18.6100 O.co2     3 ASP3        0.0000 
     15 OD1       -24.9800  -30.5800  -18.4200 O.co2     3 ASP3        0.0000 
     16 OD1       -23.8900  -31.1200  -19.3000 O.co2     3 ASP3        0.0000 
     17 OD1       -24.8800  -29.2600  -19.1200 O.co2     3 ASP3        0.0000 
     18 OD1       -24.0500  -31.4600  -16.7300 O.co2     3 ASP3        0.0000 
     19 OD1       -23.9500  -30.1300  -17.4300 O.co2     3 ASP3        0.0000 
     20 OD1       -24.9400  -28.2700  -17.2400 O.co2     3 ASP3        0.0000 
     21 NZ        -22.9200  -29.6900  -16.4300 N.4       4 LYS4        0.0000 
     22 CZ        -32.4900  -34.4000  -20.2500 C.ar      5 PHE5        0.0000 
     23 CZ        -32.3900  -33.0700  -20.9500 C.ar      5 PHE5        0.0000 
     24 CZ        -31.3600  -32.6200  -19.9500 C.ar      5 PHE5        0.0000 
     25 CZ        -31.2700  -31.3000  -20.6500 C.ar      5 PHE5        0.0000 
     26 CZ        -30.2400  -30.8500  -19.6500 C.ar      5 PHE5        0.0000 
     27 CZ        -29.2100  -30.4000  -18.6500 C.ar      5 PHE5        0.0000 
     28 CZ        -25.0100  -32.9000  -19.6000 C.ar      5 PHE5        0.0000 
     29 CZ        -28.1800  -29.9500  -17.6600 C.ar      5 PHE5        0.0000 
     30 CZ        -27.0900  -30.4900  -18.5400 C.ar      5 PHE5        0.0000 
     31 CZ        -26.0100  -31.0300  -19.4200 C.ar      5 PHE5        0.0000 
     32 CZ        -26.1600  -31.3700  -16.8500 C.ar      5 PHE5        0.0000 
     33 CZ        -28.2400  -28.9600  -15.7800 C.ar      5 PHE5        0.0000 
     34 CZ        -27.1500  -29.5000  -16.6600 C.ar      5 PHE5        0.0000 
     35 CZ        -25.0400  -29.5900  -16.5500 C.ar      5 PHE5        0.0000 
     36 CZ        -24.0100  -29.1500  -15.5500 C.ar      5 PHE5        0.0000 
     37 CA        -35.6900  -33.7700  -19.4900 C.3       6 GLY6        0.0000 
     38 CA        -34.6000  -34.3100  -20.3700 C.3       6 GLY6        0.0000 
     39 CA        -32.5800  -35.7200  -19.5500 C.3       6 GLY6        0.0000 
     40 CA        -34.6600  -33.3200  -18.4900 C.3       6 GLY6        0.0000 
     41 CA        -33.5700  -33.8600  -19.3700 C.3       6 GLY6        0.0000 
     42 CA        -33.4800  -32.5300  -20.0700 C.3       6 GLY6        0.0000 
     43 CA        -33.7300  -34.1900  -16.8000 C.3       6 GLY6        0.0000 
     44 CA        -32.6400  -34.7300  -17.6800 C.3       6 GLY6        0.0000 
     45 CA        -33.6300  -32.8700  -17.4900 C.3       6 GLY6        0.0000 
     46 CA        -32.5500  -33.4100  -18.3700 C.3       6 GLY6        0.0000 
     47 CA        -32.4500  -32.0800  -19.0700 C.3       6 GLY6        0.0000 
     48 CA        -31.4200  -31.6300  -18.0700 C.3       6 GLY6        0.0000 
     49 CA        -31.3300  -30.3100  -18.7700 C.3       6 GLY6        0.0000 
     50 CA        -30.3900  -31.1900  -17.0800 C.3       6 GLY6        0.0000 
     51 CA        -31.3900  -29.3200  -16.8900 C.3       6 GLY6        0.0000 
     52 CA        -30.3000  -29.8600  -17.7700 C.3       6 GLY6        0.0000 
     53 CA        -31.2900  -27.9900  -17.5900 C.3       6 GLY6        0.0000 
     54 CA        -30.2000  -28.5300  -18.4700 C.3       6 GLY6        0.0000 
     55 CA        -30.4500  -30.2000  -15.2000 C.3       6 GLY6        0.0000 
     56 CA        -29.3700  -30.7400  -16.0800 C.3       6 GLY6        0.0000 
     57 CA        -28.2800  -31.2800  -16.9600 C.3       6 GLY6        0.0000 
     58 CA        -30.3600  -28.8700  -15.9000 C.3       6 GLY6        0.0000 
     59 CA        -30.2600  -27.5500  -16.5900 C.3       6 GLY6        0.0000 
     60 CA        -25.9100  -29.7100  -20.1100 C.3       6 GLY6        0.0000 
     61 CA        -27.0600  -28.1800  -17.3600 C.3       6 GLY6        0.0000 
     62 CA        -25.9700  -28.7200  -18.2400 C.3       6 GLY6        0.0000 
     63 CA        -24.1100  -30.4700  -14.8500 C.3       6 GLY6        0.0000 
     64 DU        -34.7600  -34.6400  -17.7900 H         7 CUB7        0.0000 
     65 DU        -33.6700  -35.1800  -18.6700 H         7 CUB7        0.0000 
     66 DU        -29.2700  -29.4100  -16.7800 H         7 CUB7        0.0000 
     67 DU        -26.0700  -30.0400  -17.5400 H         7 CUB7        0.0000 
@<TRIPOS>BOND
@<TRIPOS>SUBSTRUCTURE
     1 SER1        1 GROUP   
     2 ALA2        4 GROUP   
     3 ASP3        8 GROUP   
     4 LYS4       21 GROUP   
     5 PHE5       22 GROUP   
     6 GLY6       37 GROUP   
     7 CUB7       64 GROUP   
@<TRIPOS>SET

