#    Name: 5z79_2_APC_CAVITY_N1_12
#    Modification time : Fri May 22 19:27:59 2020

@<TRIPOS>MOLECULE
5z79_2_APC_CAVITY_N1_12
   79     0     7     0     0
SMALL
NO_CHARGES


@<TRIPOS>ATOM
      1 OG          5.2200    8.0600  -15.0400 O.3       1 SER1        0.0000 
      2 OG          6.1500    7.1800  -13.3400 O.3       1 SER1        0.0000 
      3 OG          6.2400    8.5100  -14.0400 O.3       1 SER1        0.0000 
      4 OG          5.2500   10.3700  -13.8600 O.3       1 SER1        0.0000 
      5 OG          6.3400    9.8300  -14.7400 O.3       1 SER1        0.0000 
      6 OG          6.0900    8.1700  -11.4700 O.3       1 SER1        0.0000 
      7 OG          6.1800    9.5000  -12.1600 O.3       1 SER1        0.0000 
      8 O           4.8100    6.0600   -9.2000 O.2       2 ALA2        0.0000 
      9 N           3.8200    7.9300   -9.0100 N.am      2 ALA2        0.0000 
     10 N           3.9100    9.2500   -9.7100 N.am      2 ALA2        0.0000 
     11 N           4.8500    8.3800   -8.0200 N.am      2 ALA2        0.0000 
     12 N           4.9400    9.7000   -8.7100 N.am      2 ALA2        0.0000 
     13 N           7.0600    9.6100   -8.6000 N.am      2 ALA2        0.0000 
     14 N           8.1500    9.0700   -9.4800 N.am      2 ALA2        0.0000 
     15 N           9.2300    8.5300  -10.3600 N.am      2 ALA2        0.0000 
     16 N          10.3200    7.9900  -11.2400 N.am      2 ALA2        0.0000 
     17 N          11.4100    7.4500  -12.1200 N.am      2 ALA2        0.0000 
     18 N          12.5000    6.9100  -13.0000 N.am      2 ALA2        0.0000 
     19 O          11.3500    8.4400  -10.2400 O.2       2 ALA2        0.0000 
     20 N          12.4400    7.9000  -11.1200 N.am      2 ALA2        0.0000 
     21 O          11.4400    9.7600  -10.9400 O.2       2 ALA2        0.0000 
     22 O          12.5300    9.2200  -11.8200 O.2       2 ALA2        0.0000 
     23 OD1         9.2600    5.2300  -13.4100 O.co2     3 ASP3        0.0000 
     24 NZ          7.2400    6.6400  -14.2200 N.4       4 LYS4        0.0000 
     25 NZ          5.9000    5.5200  -10.0800 N.4       4 LYS4        0.0000 
     26 NZ          6.9900    4.9800  -10.9600 N.4       4 LYS4        0.0000 
     27 NZ          5.9900    6.8500  -10.7700 N.4       4 LYS4        0.0000 
     28 NZ          7.0800    6.3100  -11.6500 N.4       4 LYS4        0.0000 
     29 NZ          8.1700    5.7700  -12.5300 N.4       4 LYS4        0.0000 
     30 CZ          5.3100    9.3900  -15.7300 C.ar      5 PHE5        0.0000 
     31 CZ          4.9100    7.3900   -9.8900 C.ar      5 PHE5        0.0000 
     32 CZ          5.0000    8.7100  -10.5900 C.ar      5 PHE5        0.0000 
     33 CZ          5.1000   10.0400  -11.2800 C.ar      5 PHE5        0.0000 
     34 CZ          7.2700    8.9600  -13.0400 C.ar      5 PHE5        0.0000 
     35 CZ          6.2800   10.8200  -12.8600 C.ar      5 PHE5        0.0000 
     36 CZ          7.3700   10.2800  -13.7400 C.ar      5 PHE5        0.0000 
     37 CZ          8.4600    9.7400  -14.6200 C.ar      5 PHE5        0.0000 
     38 CZ          6.1200   10.4900  -10.2900 C.ar      5 PHE5        0.0000 
     39 CZ          7.2100    9.9500  -11.1700 C.ar      5 PHE5        0.0000 
     40 CZ          8.3000    9.4100  -12.0500 C.ar      5 PHE5        0.0000 
     41 CZ          9.3900    8.8700  -12.9300 C.ar      5 PHE5        0.0000 
     42 CZ          9.4800   10.1900  -13.6200 C.ar      5 PHE5        0.0000 
     43 CZ          8.2400   10.4000  -10.1700 C.ar      5 PHE5        0.0000 
     44 CZ          9.3300    9.8500  -11.0500 C.ar      5 PHE5        0.0000 
     45 CZ         10.4200    9.3100  -11.9300 C.ar      5 PHE5        0.0000 
     46 CZ         11.6000   10.1000  -13.5100 C.ar      5 PHE5        0.0000 
     47 CA          4.9700    6.4000  -11.7700 C.3       6 GLY6        0.0000 
     48 CA         10.3500    4.6900  -14.2900 C.3       6 GLY6        0.0000 
     49 CA          4.7500    7.0500   -7.3200 C.3       6 GLY6        0.0000 
     50 CA          5.8400    6.5100   -8.2000 C.3       6 GLY6        0.0000 
     51 CA          6.9300    5.9700   -9.0800 C.3       6 GLY6        0.0000 
     52 CA          7.0200    7.3000   -9.7800 C.3       6 GLY6        0.0000 
     53 CA          8.1100    6.7600  -10.6600 C.3       6 GLY6        0.0000 
     54 CA          9.2000    6.2200  -11.5400 C.3       6 GLY6        0.0000 
     55 CA         10.2900    5.6700  -12.4200 C.3       6 GLY6        0.0000 
     56 CA          6.8700    6.9600   -7.2100 C.3       6 GLY6        0.0000 
     57 CA          5.8700    8.8200   -7.0200 C.3       6 GLY6        0.0000 
     58 CA          6.9600    8.2800   -7.9000 C.3       6 GLY6        0.0000 
     59 CA          8.0500    7.7400   -8.7800 C.3       6 GLY6        0.0000 
     60 CA          9.1400    7.2000   -9.6600 C.3       6 GLY6        0.0000 
     61 CA         10.2300    6.6600  -10.5400 C.3       6 GLY6        0.0000 
     62 DU          6.4000    8.8500  -16.6100 H         7 CUB7        0.0000 
     63 DU          8.3300    6.1000  -15.1000 H         7 CUB7        0.0000 
     64 DU          9.4100    5.5600  -15.9800 H         7 CUB7        0.0000 
     65 DU          7.3300    7.9700  -14.9200 H         7 CUB7        0.0000 
     66 DU          7.4300    9.2900  -15.6200 H         7 CUB7        0.0000 
     67 DU          7.1800    7.6300  -12.3500 H         7 CUB7        0.0000 
     68 DU          8.2700    7.0900  -13.2300 H         7 CUB7        0.0000 
     69 DU          9.3500    6.5500  -14.1100 H         7 CUB7        0.0000 
     70 DU          8.3600    8.4200  -13.9200 H         7 CUB7        0.0000 
     71 DU          5.9300    7.8400   -8.9000 H         7 CUB7        0.0000 
     72 DU          6.0300    9.1600   -9.5900 H         7 CUB7        0.0000 
     73 DU          7.1200    8.6200  -10.4700 H         7 CUB7        0.0000 
     74 DU          8.2100    8.0800  -11.3500 H         7 CUB7        0.0000 
     75 DU          9.2900    7.5400  -12.2300 H         7 CUB7        0.0000 
     76 DU         10.3800    7.0000  -13.1100 H         7 CUB7        0.0000 
     77 DU         10.4800    8.3300  -13.8100 H         7 CUB7        0.0000 
     78 DU         11.5000    8.7700  -12.8100 H         7 CUB7        0.0000 
     79 DU         12.5900    8.2300  -13.6900 H         7 CUB7        0.0000 
@<TRIPOS>BOND
@<TRIPOS>SUBSTRUCTURE
     1 SER1        1 GROUP   
     2 ALA2        8 GROUP   
     3 ASP3       23 GROUP   
     4 LYS4       24 GROUP   
     5 PHE5       30 GROUP   
     6 GLY6       47 GROUP   
     7 CUB7       62 GROUP   
@<TRIPOS>SET

