#    Name: 5z79_11_PE0_CAVITY_N1_6
#    Modification time : Fri May 22 19:28:55 2020

@<TRIPOS>MOLECULE
5z79_11_PE0_CAVITY_N1_6
    2     0     2     0     0
SMALL
NO_CHARGES


@<TRIPOS>ATOM
      1 OG        -39.7400   27.2200   25.0000 O.3       1 SER1        0.0000 
      2 CZ        -41.9200   28.3000   26.7600 C.ar      2 PHE5        0.0000 
@<TRIPOS>BOND
@<TRIPOS>SUBSTRUCTURE
     1 SER1        1 GROUP   
     2 PHE5        2 GROUP   
@<TRIPOS>SET

