#    Name: 5z79_6_5AD_CAVITY_N1_6
#    Modification time : Fri May 22 19:28:17 2020

@<TRIPOS>MOLECULE
5z79_6_5AD_CAVITY_N1_6
   82     0     7     0     0
SMALL
NO_CHARGES


@<TRIPOS>ATOM
      1 OG        -64.6400    5.6400  -61.5800 O.3       1 SER1        0.0000 
      2 OG        -64.5400    6.9700  -62.2700 O.3       1 SER1        0.0000 
      3 OG        -64.6000    7.9500  -60.4000 O.3       1 SER1        0.0000 
      4 OG        -63.4800    9.7300  -60.1000 O.3       1 SER1        0.0000 
      5 N         -69.9900    4.0500  -62.1100 N.am      2 ALA2        0.0000 
      6 N         -71.2400    4.2500  -58.6600 N.am      2 ALA2        0.0000 
      7 N         -70.1500    3.7100  -59.5400 N.am      2 ALA2        0.0000 
      8 N         -71.1400    5.5800  -59.3500 N.am      2 ALA2        0.0000 
      9 N         -70.0500    5.0400  -60.2300 N.am      2 ALA2        0.0000 
     10 N         -68.9600    4.5000  -61.1100 N.am      2 ALA2        0.0000 
     11 O         -71.0500    6.9000  -60.0500 O.2       2 ALA2        0.0000 
     12 N         -69.9600    6.3600  -60.9300 N.am      2 ALA2        0.0000 
     13 N         -68.8700    5.8200  -61.8100 N.am      2 ALA2        0.0000 
     14 N         -67.6900    6.6100  -63.3900 N.am      2 ALA2        0.0000 
     15 N         -67.8400    6.2700  -60.8100 N.am      2 ALA2        0.0000 
     16 N         -66.6600    7.0600  -62.3900 N.am      2 ALA2        0.0000 
     17 O         -63.5500    5.1000  -62.4600 O.2       2 ALA2        0.0000 
     18 N         -63.4500    6.4300  -63.1500 N.am      2 ALA2        0.0000 
     19 O         -65.5300    8.8300  -62.0900 O.2       2 ALA2        0.0000 
     20 O         -64.4500    8.2900  -62.9700 O.2       2 ALA2        0.0000 
     21 O         -65.9100    9.1500  -55.0700 O.2       2 ALA2        0.0000 
     22 OD1       -66.9400    3.0800  -60.3000 O.co2     3 ASP3        0.0000 
     23 NZ        -71.1100    7.8900  -58.1700 N.4       4 LYS4        0.0000 
     24 NZ        -67.1000    2.7400  -57.7300 N.4       4 LYS4        0.0000 
     25 NZ        -67.0000    4.0700  -58.4300 N.4       4 LYS4        0.0000 
     26 NZ        -66.9100    5.4000  -59.1200 N.4       4 LYS4        0.0000 
     27 NZ        -65.8200    4.8500  -60.0000 N.4       4 LYS4        0.0000 
     28 NZ        -64.7300    4.3100  -60.8800 N.4       4 LYS4        0.0000 
     29 NZ        -65.9800    4.5200  -57.4300 N.4       4 LYS4        0.0000 
     30 CZ        -70.0200    7.3500  -59.0500 C.ar      5 PHE5        0.0000 
     31 CZ        -68.9300    6.8100  -59.9300 C.ar      5 PHE5        0.0000 
     32 CZ        -68.9900    7.8000  -58.0600 C.ar      5 PHE5        0.0000 
     33 CZ        -67.9000    7.2600  -58.9400 C.ar      5 PHE5        0.0000 
     34 CZ        -66.8100    6.7200  -59.8200 C.ar      5 PHE5        0.0000 
     35 CZ        -65.7300    6.1800  -60.7000 C.ar      5 PHE5        0.0000 
     36 CZ        -65.6300    7.5100  -61.3900 C.ar      5 PHE5        0.0000 
     37 CZ        -65.8800    5.8400  -58.1300 C.ar      5 PHE5        0.0000 
     38 CZ        -64.7900    5.3000  -59.0100 C.ar      5 PHE5        0.0000 
     39 CZ        -67.9600    8.2500  -57.0600 C.ar      5 PHE5        0.0000 
     40 CZ        -66.8700    7.7100  -57.9400 C.ar      5 PHE5        0.0000 
     41 CZ        -65.7900    7.1700  -58.8200 C.ar      5 PHE5        0.0000 
     42 CZ        -70.0400   10.6600  -56.0000 C.ar      5 PHE5        0.0000 
     43 CZ        -65.6900    8.4900  -59.5200 C.ar      5 PHE5        0.0000 
     44 CZ        -64.8500    6.2900  -57.1300 C.ar      5 PHE5        0.0000 
     45 CZ        -66.9300    8.7000  -56.0700 C.ar      5 PHE5        0.0000 
     46 CZ        -65.8500    8.1600  -56.9500 C.ar      5 PHE5        0.0000 
     47 CZ        -66.8400   10.0200  -56.7600 C.ar      5 PHE5        0.0000 
     48 CZ        -65.7500    9.4800  -57.6400 C.ar      5 PHE5        0.0000 
     49 CZ        -64.6600    8.9400  -58.5200 C.ar      5 PHE5        0.0000 
     50 CZ        -64.5700   10.2700  -59.2200 C.ar      5 PHE5        0.0000 
     51 CZ        -66.6500   12.6700  -58.1500 C.ar      5 PHE5        0.0000 
     52 CZ        -65.5600   12.1300  -59.0300 C.ar      5 PHE5        0.0000 
     53 CZ        -65.4600   13.4600  -59.7300 C.ar      5 PHE5        0.0000 
     54 CZ        -64.8200    8.6100  -55.9500 C.ar      5 PHE5        0.0000 
     55 CZ        -64.7200    9.9300  -56.6500 C.ar      5 PHE5        0.0000 
     56 CZ        -63.6300    9.3900  -57.5300 C.ar      5 PHE5        0.0000 
     57 CA        -70.9900    5.9100  -61.9300 C.3       6 GLY6        0.0000 
     58 CA        -69.9000    5.3700  -62.8100 C.3       6 GLY6        0.0000 
     59 CA        -67.8800    3.9600  -61.9900 C.3       6 GLY6        0.0000 
     60 CA        -67.7800    5.2800  -62.6900 C.3       6 GLY6        0.0000 
     61 CA        -68.0300    3.6200  -59.4200 C.3       6 GLY6        0.0000 
     62 CA        -66.8500    4.4100  -61.0000 C.3       6 GLY6        0.0000 
     63 CA        -65.7600    3.8700  -61.8800 C.3       6 GLY6        0.0000 
     64 CA        -66.7500    5.7300  -61.6900 C.3       6 GLY6        0.0000 
     65 CA        -65.6700    5.1900  -62.5700 C.3       6 GLY6        0.0000 
     66 CA        -65.5700    6.5200  -63.2700 C.3       6 GLY6        0.0000 
     67 CA        -64.4800    5.9800  -64.1500 C.3       6 GLY6        0.0000 
     68 CA        -65.4700    7.8400  -63.9700 C.3       6 GLY6        0.0000 
     69 CA        -64.5100    9.2800  -61.0900 C.3       6 GLY6        0.0000 
     70 CA        -64.4700   11.5900  -59.9100 C.3       6 GLY6        0.0000 
     71 CA        -64.6300   11.2600  -57.3400 C.3       6 GLY6        0.0000 
     72 CA        -63.5400   10.7200  -58.2200 C.3       6 GLY6        0.0000 
     73 CA        -64.5300   12.5800  -58.0400 C.3       6 GLY6        0.0000 
     74 CA        -63.4400   12.0400  -58.9200 C.3       6 GLY6        0.0000 
     75 DU        -69.1200    4.1600  -58.5400 H         7 CUB7        0.0000 
     76 DU        -70.1100    6.0300  -58.3600 H         7 CUB7        0.0000 
     77 DU        -69.0200    5.4900  -59.2400 H         7 CUB7        0.0000 
     78 DU        -67.9400    4.9500  -60.1200 H         7 CUB7        0.0000 
     79 DU        -68.0900    4.6100  -57.5500 H         7 CUB7        0.0000 
     80 DU        -69.0900    6.4800  -57.3600 H         7 CUB7        0.0000 
     81 DU        -68.0000    5.9400  -58.2400 H         7 CUB7        0.0000 
     82 DU        -66.9700    6.3800  -57.2500 H         7 CUB7        0.0000 
@<TRIPOS>BOND
@<TRIPOS>SUBSTRUCTURE
     1 SER1        1 GROUP   
     2 ALA2        5 GROUP   
     3 ASP3       22 GROUP   
     4 LYS4       23 GROUP   
     5 PHE5       30 GROUP   
     6 GLY6       57 GROUP   
     7 CUB7       75 GROUP   
@<TRIPOS>SET

