#    Name: 6j2d_1_ASP_PHE_ALA_ASN_THR_PHE_LEU_PRO_CAVITY_N1_4
#    Modification time : Fri May 22 19:34:19 2020

@<TRIPOS>MOLECULE
6j2d_1_ASP_PHE_ALA_ASN_THR_PHE_LEU_PRO_CAVITY_N1_4
   70     0     7     0     0
SMALL
NO_CHARGES


@<TRIPOS>ATOM
      1 OG         -8.8800  -21.0800   -0.9100 O.3       1 SER1        0.0000 
      2 OG         -7.8000  -20.8800   -1.9400 O.3       1 SER1        0.0000 
      3 OG         -7.1700  -22.1700   -1.5200 O.3       1 SER1        0.0000 
      4 OG         -6.5300  -23.4600   -1.0900 O.3       1 SER1        0.0000 
      5 OG         -5.4500  -23.2700   -2.1200 O.3       1 SER1        0.0000 
      6 OG         -5.9000  -19.9500   -1.9600 O.3       1 SER1        0.0000 
      7 OG         -5.2600  -21.2400   -1.5400 O.3       1 SER1        0.0000 
      8 OG         -5.4600  -18.4700   -3.4200 O.3       1 SER1        0.0000 
      9 OG         -4.6300  -17.7200   -2.4100 O.3       1 SER1        0.0000 
     10 N          -9.9500  -21.2700    0.1200 N.am      2 ALA2        0.0000 
     11 N         -10.1900  -20.7200    2.1600 N.am      2 ALA2        0.0000 
     12 N          -8.4800  -21.8200    1.5500 N.am      2 ALA2        0.0000 
     13 N          -7.4100  -21.6200    0.5200 N.am      2 ALA2        0.0000 
     14 O          -6.7700  -22.9100    0.9400 O.2       2 ALA2        0.0000 
     15 O          -6.1300  -24.2000    1.3600 O.2       2 ALA2        0.0000 
     16 N          -7.6100  -18.8500   -1.3600 N.am      2 ALA2        0.0000 
     17 N          -6.9700  -20.1400   -0.9300 N.am      2 ALA2        0.0000 
     18 N          -6.3300  -21.4300   -0.5100 N.am      2 ALA2        0.0000 
     19 N          -5.7000  -22.7200   -0.0900 N.am      2 ALA2        0.0000 
     20 O          -5.0600  -24.0100    0.3300 O.2       2 ALA2        0.0000 
     21 N          -3.9900  -23.8200   -0.7000 N.am      2 ALA2        0.0000 
     22 O          -3.3500  -25.1100   -0.2700 O.2       2 ALA2        0.0000 
     23 N          -7.6500  -21.0800    2.5500 N.am      2 ALA2        0.0000 
     24 O          -7.0100  -22.3700    2.9800 O.2       2 ALA2        0.0000 
     25 N          -6.5800  -20.8800    1.5200 N.am      2 ALA2        0.0000 
     26 O          -5.9400  -22.1700    1.9500 O.2       2 ALA2        0.0000 
     27 N          -7.4200  -16.8200   -0.7800 N.am      2 ALA2        0.0000 
     28 N          -6.1400  -19.4000    0.0700 N.am      2 ALA2        0.0000 
     29 N          -5.7100  -17.9200   -1.3800 N.am      2 ALA2        0.0000 
     30 N          -5.0700  -19.2100   -0.9600 N.am      2 ALA2        0.0000 
     31 O          -6.1800  -21.6300    3.9800 O.2       2 ALA2        0.0000 
     32 N          -5.5100  -15.8900   -0.8000 N.am      2 ALA2        0.0000 
     33 N          -4.8800  -17.1800   -0.3800 N.am      2 ALA2        0.0000 
     34 OD1        -5.6500  -25.3000   -2.7100 O.co2     3 ASP3        0.0000 
     35 OD1        -5.0100  -26.5900   -2.2800 O.co2     3 ASP3        0.0000 
     36 OD1        -4.8200  -24.5600   -1.7000 O.co2     3 ASP3        0.0000 
     37 OD1        -4.1800  -25.8500   -1.2800 O.co2     3 ASP3        0.0000 
     38 OD1        -8.7200  -21.2700    3.5800 O.co2     3 ASP3        0.0000 
     39 NZ        -10.3900  -22.7500    1.5700 N.4       4 LYS4        0.0000 
     40 NZ         -9.5500  -22.0100    2.5800 N.4       4 LYS4        0.0000 
     41 NZ         -7.8400  -23.1100    1.9700 N.4       4 LYS4        0.0000 
     42 NZ         -7.2000  -24.4000    2.3900 N.4       4 LYS4        0.0000 
     43 NZ         -8.0800  -22.5600    4.0100 N.4       4 LYS4        0.0000 
     44 CZ         -7.3600  -24.2000   -2.1000 C.ar      5 PHE5        0.0000 
     45 CZ         -6.7200  -25.4900   -1.6800 C.ar      5 PHE5        0.0000 
     46 CZ         -6.0800  -26.7800   -1.2500 C.ar      5 PHE5        0.0000 
     47 CZ        -11.0200  -21.4600    1.1500 C.ar      5 PHE5        0.0000 
     48 CZ         -9.3100  -22.5600    0.5400 C.ar      5 PHE5        0.0000 
     49 CZ         -8.6700  -23.8500    0.9700 C.ar      5 PHE5        0.0000 
     50 CZ         -8.0400  -25.1400    1.3900 C.ar      5 PHE5        0.0000 
     51 CZ         -7.4000  -26.4300    1.8100 C.ar      5 PHE5        0.0000 
     52 CZ         -8.2400  -22.3700   -0.4900 C.ar      5 PHE5        0.0000 
     53 CZ         -7.6000  -23.6600   -0.0600 C.ar      5 PHE5        0.0000 
     54 CZ         -6.9600  -24.9500    0.3600 C.ar      5 PHE5        0.0000 
     55 CZ         -6.3200  -26.2400    0.7800 C.ar      5 PHE5        0.0000 
     56 CZ         -5.8900  -24.7500   -0.6700 C.ar      5 PHE5        0.0000 
     57 CZ         -8.2500  -17.5600   -1.7800 C.ar      5 PHE5        0.0000 
     58 CZ         -7.1800  -17.3700   -2.8100 C.ar      5 PHE5        0.0000 
     59 CZ         -6.5400  -18.6600   -2.3900 C.ar      5 PHE5        0.0000 
     60 CZ         -6.1000  -17.1800   -3.8400 C.ar      5 PHE5        0.0000 
     61 CA         -6.9800  -15.3400   -2.2300 C.3       6 GLY6        0.0000 
     62 CA         -5.9100  -15.1400   -3.2600 C.3       6 GLY6        0.0000 
     63 CA         -5.2700  -16.4300   -2.8400 C.3       6 GLY6        0.0000 
     64 CA         -7.2500  -21.8200    5.0100 C.3       6 GLY6        0.0000 
     65 CA         -6.1500  -14.6000   -1.2200 C.3       6 GLY6        0.0000 
     66 CA         -5.0800  -14.4000   -2.2500 C.3       6 GLY6        0.0000 
     67 CA         -4.4400  -15.6900   -1.8300 C.3       6 GLY6        0.0000 
     68 DU         -5.2500  -26.0400   -0.2500 H         7 CUB7        0.0000 
     69 DU         -4.6100  -27.3300    0.1800 H         7 CUB7        0.0000 
     70 DU         -6.3400  -16.6300   -1.8100 H         7 CUB7        0.0000 
@<TRIPOS>BOND
@<TRIPOS>SUBSTRUCTURE
     1 SER1        1 GROUP   
     2 ALA2       10 GROUP   
     3 ASP3       34 GROUP   
     4 LYS4       39 GROUP   
     5 PHE5       44 GROUP   
     6 GLY6       61 GROUP   
     7 CUB7       68 GROUP   
@<TRIPOS>SET

