#    Name: 6j2d_1_ASP_PHE_ALA_ASN_THR_PHE_LEU_PRO
#    Modification time : Fri May 22 19:34:17 2020

@<TRIPOS>MOLECULE
6j2d_1_ASP_PHE_ALA_ASN_THR_PHE_LEU_PRO
   66    68     8     0     0
SMALL
NO_CHARGES


@<TRIPOS>ATOM
      1 N         -11.7830  -20.4420    0.4570 N.4       1 ASP1        0.0000 
      2 CA        -10.3770  -20.4520    0.8270 C.3       1 ASP1        0.0000 
      3 C          -9.5060  -20.9460   -0.3060 C.2       1 ASP1        0.0000 
      4 O          -9.9520  -21.7390   -1.1400 O.2       1 ASP1        0.0000 
      5 CB        -10.1470  -21.3220    2.0540 C.3       1 ASP1        0.0000 
      6 CG        -10.7340  -20.7240    3.3010 C.2       1 ASP1        0.0000 
      7 OD1       -11.1430  -19.5500    3.2650 O.co2     1 ASP1        0.0000 
      8 OD2       -10.7850  -21.4200    4.3300 O.co2     1 ASP1        0.0000 
      9 N          -8.2640  -20.4570   -0.3230 N.am      2 PHE2        0.0000 
     10 CA         -7.2280  -21.0350   -1.1620 C.3       2 PHE2        0.0000 
     11 C          -6.9900  -22.4890   -0.7600 C.2       2 PHE2        0.0000 
     12 O          -7.1520  -22.8700    0.3970 O.2       2 PHE2        0.0000 
     13 CB         -5.9230  -20.2340   -1.0300 C.3       2 PHE2        0.0000 
     14 CG         -6.0260  -18.7650   -1.4560 C.ar      2 PHE2        0.0000 
     15 CD1        -6.3010  -18.4260   -2.7560 C.ar      2 PHE2        0.0000 
     16 CD2        -5.7930  -17.7360   -0.5490 C.ar      2 PHE2        0.0000 
     17 CE1        -6.3790  -17.0820   -3.1540 C.ar      2 PHE2        0.0000 
     18 CE2        -5.8620  -16.4040   -0.9390 C.ar      2 PHE2        0.0000 
     19 CZ         -6.1590  -16.0810   -2.2460 C.ar      2 PHE2        0.0000 
     20 N          -6.6360  -23.3190   -1.7290 N.am      3 ALA3        0.0000 
     21 CA         -6.1060  -24.6260   -1.3950 C.3       3 ALA3        0.0000 
     22 C          -4.6830  -24.4640   -0.8700 C.2       3 ALA3        0.0000 
     23 O          -4.0860  -23.3940   -0.9670 O.2       3 ALA3        0.0000 
     24 CB         -6.1290  -25.5540   -2.6100 C.3       3 ALA3        0.0000 
     25 N          -4.1590  -25.5140   -0.2470 N.am      4 ASN4        0.0000 
     26 CA         -2.7260  -25.5600    0.0120 C.3       4 ASN4        0.0000 
     27 C          -1.9330  -25.6600   -1.2960 C.2       4 ASN4        0.0000 
     28 O          -2.4200  -26.1560   -2.3150 O.2       4 ASN4        0.0000 
     29 CB         -2.4100  -26.7300    0.9370 C.3       4 ASN4        0.0000 
     30 CG         -3.3450  -27.9100    0.7170 C.2       4 ASN4        0.0000 
     31 OD1        -3.9240  -28.0720   -0.3700 O.2       4 ASN4        0.0000 
     32 ND2        -3.5590  -28.7030    1.7730 N.am      4 ASN4        0.0000 
     33 N          -0.7050  -25.1590   -1.2660 N.am      5 THR5        0.0000 
     34 CA          0.1760  -25.1510   -2.4230 C.3       5 THR5        0.0000 
     35 C           1.3340  -26.1070   -2.1870 C.2       5 THR5        0.0000 
     36 O           1.9440  -26.1000   -1.1130 O.2       5 THR5        0.0000 
     37 CB          0.6930  -23.7380   -2.6980 C.3       5 THR5        0.0000 
     38 OG1        -0.3630  -22.9580   -3.2580 O.3       5 THR5        0.0000 
     39 CG2         1.8600  -23.7530   -3.6690 C.3       5 THR5        0.0000 
     40 N           1.6280  -26.9370   -3.1870 N.am      6 PHE6        0.0000 
     41 CA          2.6110  -28.0010   -3.0550 C.3       6 PHE6        0.0000 
     42 C           3.8390  -27.6760   -3.8910 C.2       6 PHE6        0.0000 
     43 O           3.7200  -27.1130   -4.9890 O.2       6 PHE6        0.0000 
     44 CB          2.0320  -29.3430   -3.4940 C.3       6 PHE6        0.0000 
     45 CG          0.7790  -29.7360   -2.7670 C.ar      6 PHE6        0.0000 
     46 CD1         0.7930  -29.9540   -1.4000 C.ar      6 PHE6        0.0000 
     47 CD2        -0.4080  -29.9170   -3.4590 C.ar      6 PHE6        0.0000 
     48 CE1        -0.3560  -30.3270   -0.7360 C.ar      6 PHE6        0.0000 
     49 CE2        -1.5630  -30.2940   -2.7980 C.ar      6 PHE6        0.0000 
     50 CZ         -1.5350  -30.4930   -1.4340 C.ar      6 PHE6        0.0000 
     51 N           5.0100  -28.0680   -3.3790 N.am      7 LEU7        0.0000 
     52 CA          6.2730  -27.5860   -3.9150 C.3       7 LEU7        0.0000 
     53 C           6.6950  -28.4450   -5.1010 C.2       7 LEU7        0.0000 
     54 O           6.9320  -29.6490   -4.9320 O.2       7 LEU7        0.0000 
     55 CB          7.3500  -27.5920   -2.8280 C.3       7 LEU7        0.0000 
     56 CG          8.7850  -27.1770   -3.2010 C.3       7 LEU7        0.0000 
     57 CD1         8.8430  -25.7650   -3.7610 C.3       7 LEU7        0.0000 
     58 CD2         9.7000  -27.2940   -2.0030 C.3       7 LEU7        0.0000 
     59 N           6.7730  -27.8850   -6.3140 N.am      8 PRO8        0.0000 
     60 CA          7.3230  -28.5970   -7.4780 C.3       8 PRO8        0.0000 
     61 C           8.7780  -29.0370   -7.2660 C.2       8 PRO8        0.0000 
     62 O           9.1170  -30.0930   -7.8250 O.2       8 PRO8        0.0000 
     63 CB          7.2410  -27.5610   -8.6150 C.3       8 PRO8        0.0000 
     64 CG          6.2380  -26.5570   -8.1370 C.3       8 PRO8        0.0000 
     65 CD          6.3350  -26.5230   -6.6460 C.3       8 PRO8        0.0000 
     66 OXT         9.5460  -28.3650   -6.5770 O.3       8 PRO8        0.0000 
@<TRIPOS>BOND
     1   34   37 1    
     2   35   36 2    
     3   35   40 am   
     4   37   38 1    
     5   37   39 1    
     6   40   41 1    
     7   41   42 1    
     8   41   44 1    
     9   42   43 2    
    10   42   51 am   
    11   44   45 1    
    12   45   46 ar   
    13   45   47 ar   
    14   46   48 ar   
    15   47   49 ar   
    16   48   50 ar   
    17   49   50 ar   
    18   51   52 1    
    19   52   53 1    
    20   52   55 1    
    21   53   54 2    
    22   53   59 am   
    23   55   56 1    
    24   56   57 1    
    25   56   58 1    
    26   59   60 1    
    27   59   65 1    
    28   60   61 1    
    29   60   63 1    
    30   61   62 2    
    31   61   66 1    
    32   63   64 1    
    33   64   65 1    
    34    1    2 1    
    35    2    3 1    
    36    2    5 1    
    37    3    4 2    
    38    3    9 am   
    39    5    6 1    
    40    6    7 ar   
    41    6    8 ar   
    42    9   10 1    
    43   10   11 1    
    44   10   13 1    
    45   11   12 2    
    46   11   20 am   
    47   13   14 1    
    48   14   15 ar   
    49   14   16 ar   
    50   15   17 ar   
    51   16   18 ar   
    52   17   19 ar   
    53   18   19 ar   
    54   20   21 1    
    55   21   22 1    
    56   21   24 1    
    57   22   23 2    
    58   22   25 am   
    59   25   26 1    
    60   26   27 1    
    61   26   29 1    
    62   27   28 2    
    63   27   33 am   
    64   29   30 1    
    65   30   31 2    
    66   30   32 am   
    67   33   34 1    
    68   34   35 1    
@<TRIPOS>SUBSTRUCTURE
     1 ASP1        1 RESIDUE 
     2 PHE2        9 RESIDUE 
     3 ALA3       20 RESIDUE 
     4 ASN4       25 RESIDUE 
     5 THR5       33 RESIDUE 
     6 PHE6       40 RESIDUE 
     7 LEU7       51 RESIDUE 
     8 PRO8       59 RESIDUE 
@<TRIPOS>SET

