#    Name: 6aif_1_THR_PHE_GLU_TYR_GLY_ASP_GLY_ILE
#    Modification time : Fri May 22 19:27:11 2020

@<TRIPOS>MOLECULE
6aif_1_THR_PHE_GLU_TYR_GLY_ASP_GLY_ILE
   53    53     8     0     0
SMALL
NO_CHARGES


@<TRIPOS>ATOM
      1 N           7.0940   14.4750  -11.2010 N.4       1 THR3        0.0000 
      2 CA          7.5930   15.8420  -11.0060 C.3       1 THR3        0.0000 
      3 C           6.5410   16.7800  -10.3470 C.2       1 THR3        0.0000 
      4 O           5.3550   16.7400  -10.6900 O.2       1 THR3        0.0000 
      5 CB          8.0960   16.4050  -12.3580 C.3       1 THR3        0.0000 
      6 OG1         9.4020   15.8660  -12.6360 O.3       1 THR3        0.0000 
      7 CG2         8.1480   17.9160  -12.3640 C.3       1 THR3        0.0000 
      8 N           6.9880   17.6170   -9.3960 N.am      2 PHE4        0.0000 
      9 CA          6.1050   18.3280   -8.4740 C.3       2 PHE4        0.0000 
     10 C           6.5770   19.7550   -8.2260 C.2       2 PHE4        0.0000 
     11 O           7.7650   20.0020   -7.9900 O.2       2 PHE4        0.0000 
     12 CB          6.0090   17.5810   -7.1260 C.3       2 PHE4        0.0000 
     13 CG          5.5810   16.1520   -7.2700 C.ar      2 PHE4        0.0000 
     14 CD1         4.2330   15.8290   -7.3920 C.ar      2 PHE4        0.0000 
     15 CD2         6.5280   15.1330   -7.3380 C.ar      2 PHE4        0.0000 
     16 CE1         3.8300   14.5040   -7.5510 C.ar      2 PHE4        0.0000 
     17 CE2         6.1390   13.8170   -7.5060 C.ar      2 PHE4        0.0000 
     18 CZ          4.7830   13.5010   -7.6060 C.ar      2 PHE4        0.0000 
     19 N           5.6250   20.6870   -8.2390 N.am      3 GLU5        0.0000 
     20 CA          5.9220   22.0820   -7.9450 C.3       3 GLU5        0.0000 
     21 C           4.6430   22.7750   -7.4910 C.2       3 GLU5        0.0000 
     22 O           3.5340   22.3430   -7.8210 O.2       3 GLU5        0.0000 
     23 CB          6.5270   22.7910   -9.1650 C.3       3 GLU5        0.0000 
     24 N           4.8120   23.8330   -6.7040 N.am      4 TYR6        0.0000 
     25 CA          3.7000   24.6930   -6.2880 C.3       4 TYR6        0.0000 
     26 C           2.6590   23.9330   -5.4530 C.2       4 TYR6        0.0000 
     27 O           1.4500   24.1370   -5.5960 O.2       4 TYR6        0.0000 
     28 CB          3.0510   25.3650   -7.5020 C.3       4 TYR6        0.0000 
     29 N           3.1250   23.0640   -4.5530 N.am      5 GLY7        0.0000 
     30 CA          2.2370   22.3230   -3.6740 C.3       5 GLY7        0.0000 
     31 C           1.7060   21.0230   -4.2410 C.2       5 GLY7        0.0000 
     32 O           1.0650   20.2560   -3.5060 O.2       5 GLY7        0.0000 
     33 N           1.9540   20.7520   -5.5210 N.am      6 ASP8        0.0000 
     34 CA          1.5240   19.5090   -6.1430 C.3       6 ASP8        0.0000 
     35 C           2.1470   18.3010   -5.4400 C.2       6 ASP8        0.0000 
     36 O           3.2740   18.3590   -4.9320 O.2       6 ASP8        0.0000 
     37 CB          1.9170   19.5120   -7.6210 C.3       6 ASP8        0.0000 
     38 CG          0.8700   18.8800   -8.4990 C.2       6 ASP8        0.0000 
     39 OD1        -0.3300   19.1190   -8.2480 O.co2     6 ASP8        0.0000 
     40 OD2         1.2430   18.1430   -9.4380 O.co2     6 ASP8        0.0000 
     41 N           1.4050   17.1890   -5.4250 N.am      7 GLY9        0.0000 
     42 CA          1.9100   15.9570   -4.8420 C.3       7 GLY9        0.0000 
     43 C           1.8260   15.8730   -3.3330 C.2       7 GLY9        0.0000 
     44 O           2.3430   14.9100   -2.7540 O.2       7 GLY9        0.0000 
     45 N           1.1850   16.8450   -2.6840 N.am      8 ILE10       0.0000 
     46 CA          1.0900   16.9170   -1.2290 C.3       8 ILE10       0.0000 
     47 C          -0.3390   16.6040   -0.7780 C.2       8 ILE10       0.0000 
     48 O          -0.5530   15.5770   -0.1400 O.2       8 ILE10       0.0000 
     49 CB          1.5640   18.2970   -0.7300 C.3       8 ILE10       0.0000 
     50 CG1         3.0820   18.4310   -0.9540 C.3       8 ILE10       0.0000 
     51 CG2         1.1960   18.5030    0.7240 C.3       8 ILE10       0.0000 
     52 CD1         3.6460   19.8300   -0.6980 C.3       8 ILE10       0.0000 
     53 OXT        -1.3150   17.3100   -1.0530 O.3       8 ILE10       0.0000 
@<TRIPOS>BOND
     1    1    2 1    
     2    2    3 1    
     3    2    5 1    
     4    3    4 2    
     5    3    8 am   
     6    5    6 1    
     7    5    7 1    
     8    8    9 1    
     9    9   10 1    
    10    9   12 1    
    11   10   11 2    
    12   10   19 am   
    13   12   13 1    
    14   13   14 ar   
    15   13   15 ar   
    16   14   16 ar   
    17   15   17 ar   
    18   16   18 ar   
    19   17   18 ar   
    20   19   20 1    
    21   20   21 1    
    22   20   23 1    
    23   21   22 2    
    24   21   24 am   
    25   24   25 1    
    26   25   26 1    
    27   25   28 1    
    28   26   27 2    
    29   26   29 am   
    30   29   30 1    
    31   30   31 1    
    32   31   32 2    
    33   31   33 am   
    34   33   34 1    
    35   34   35 1    
    36   34   37 1    
    37   35   36 2    
    38   35   41 am   
    39   37   38 1    
    40   38   39 ar   
    41   38   40 ar   
    42   41   42 1    
    43   42   43 1    
    44   43   44 2    
    45   43   45 am   
    46   45   46 1    
    47   46   47 1    
    48   46   49 1    
    49   47   48 2    
    50   47   53 1    
    51   49   50 1    
    52   49   51 1    
    53   50   52 1    
@<TRIPOS>SUBSTRUCTURE
     1 THR3        1 RESIDUE 
     2 PHE4        8 RESIDUE 
     3 GLU5       19 RESIDUE 
     4 TYR6       24 RESIDUE 
     5 GLY7       29 RESIDUE 
     6 ASP8       33 RESIDUE 
     7 GLY9       41 RESIDUE 
     8 ILE10      45 RESIDUE 
@<TRIPOS>SET

