#    Name: 6aif_1_THR_PHE_GLU_TYR_GLY_ASP_GLY_ILE_CAVITY_N1_12
#    Modification time : Fri May 22 19:27:14 2020

@<TRIPOS>MOLECULE
6aif_1_THR_PHE_GLU_TYR_GLY_ASP_GLY_ILE_CAVITY_N1_12
   81     0     5     0     0
SMALL
NO_CHARGES


@<TRIPOS>ATOM
      1 OG          1.5300   17.0700   -4.8500 O.3       1 SER1        0.0000 
      2 OG          2.3300   15.9000   -5.3300 O.3       1 SER1        0.0000 
      3 OG          0.3200   20.1900   -5.1100 O.3       1 SER1        0.0000 
      4 OG          1.1200   19.0200   -5.6000 O.3       1 SER1        0.0000 
      5 OG          1.9200   17.8500   -6.0800 O.3       1 SER1        0.0000 
      6 OG          1.5200   19.7900   -6.8200 O.3       1 SER1        0.0000 
      7 N          -4.4800   23.5900   -2.6900 N.am      2 ALA2        0.0000 
      8 N          -2.8800   21.2400   -3.6500 N.am      2 ALA2        0.0000 
      9 N          -3.2900   23.1800   -4.3900 N.am      2 ALA2        0.0000 
     10 N           0.7500   16.4600    0.0200 N.am      2 ALA2        0.0000 
     11 O           0.3400   18.4000   -0.7200 O.2       2 ALA2        0.0000 
     12 O           2.3400   16.8300   -2.9100 O.2       2 ALA2        0.0000 
     13 O           3.1400   15.6500   -3.3900 O.2       2 ALA2        0.0000 
     14 N           1.9500   16.9800    0.7400 N.am      2 ALA2        0.0000 
     15 N           2.3500   17.7600   -0.4800 N.am      2 ALA2        0.0000 
     16 N           3.9500   19.0500   -0.9800 N.am      2 ALA2        0.0000 
     17 CZ         -3.2800   24.1100   -1.9600 C.ar      3 PHE5        0.0000 
     18 CZ         -2.4800   22.9400   -2.4500 C.ar      3 PHE5        0.0000 
     19 CZ         -1.6800   21.7700   -2.9300 C.ar      3 PHE5        0.0000 
     20 CZ         -2.0800   23.7100   -3.6700 C.ar      3 PHE5        0.0000 
     21 CZ          0.7400   19.1700   -1.9400 C.ar      3 PHE5        0.0000 
     22 CZ         -2.8700   25.8100   -0.7600 C.ar      3 PHE5        0.0000 
     23 CZ          0.3300   21.1200   -2.6900 C.ar      3 PHE5        0.0000 
     24 CZ          1.1300   19.9500   -3.1700 C.ar      3 PHE5        0.0000 
     25 CZ         -1.6800   25.4100   -2.4700 C.ar      3 PHE5        0.0000 
     26 CZ         -0.8800   24.2400   -2.9500 C.ar      3 PHE5        0.0000 
     27 CZ         -0.0800   23.0600   -3.4300 C.ar      3 PHE5        0.0000 
     28 CZ          0.7300   21.8900   -3.9100 C.ar      3 PHE5        0.0000 
     29 CZ          1.5500   18.9300    0.0000 C.ar      3 PHE5        0.0000 
     30 CZ          1.9400   19.7000   -1.2200 C.ar      3 PHE5        0.0000 
     31 CZ          2.3400   20.4700   -2.4500 C.ar      3 PHE5        0.0000 
     32 CZ         -0.4700   25.9400   -1.7400 C.ar      3 PHE5        0.0000 
     33 CZ          0.3300   24.7600   -2.2300 C.ar      3 PHE5        0.0000 
     34 CZ          1.1300   23.5900   -2.7100 C.ar      3 PHE5        0.0000 
     35 CZ          1.9300   22.4200   -3.1900 C.ar      3 PHE5        0.0000 
     36 CZ         -0.0800   26.7100   -2.9700 C.ar      3 PHE5        0.0000 
     37 CZ          0.7200   25.5400   -3.4500 C.ar      3 PHE5        0.0000 
     38 CZ          1.5200   24.3600   -3.9300 C.ar      3 PHE5        0.0000 
     39 CZ          3.1500   20.2300   -0.5000 C.ar      3 PHE5        0.0000 
     40 CA         -4.0900   24.3600   -3.9100 C.3       4 GLY6        0.0000 
     41 CA         -2.4900   22.0100   -4.8700 C.3       4 GLY6        0.0000 
     42 CA         -1.6800   20.8400   -5.3500 C.3       4 GLY6        0.0000 
     43 CA         -0.0600   16.7000   -1.9200 C.3       4 GLY6        0.0000 
     44 CA          0.7400   15.5300   -2.4100 C.3       4 GLY6        0.0000 
     45 CA          1.1300   16.3000   -3.6300 C.3       4 GLY6        0.0000 
     46 CA          1.9300   15.1300   -4.1100 C.3       4 GLY6        0.0000 
     47 CA         -4.0800   25.2900   -1.4800 C.3       4 GLY6        0.0000 
     48 CA         -3.6800   26.0600   -2.7100 C.3       4 GLY6        0.0000 
     49 CA         -2.8800   24.8800   -3.1900 C.3       4 GLY6        0.0000 
     50 CA         -1.2800   22.5400   -4.1500 C.3       4 GLY6        0.0000 
     51 CA         -0.4800   21.3600   -4.6300 C.3       4 GLY6        0.0000 
     52 CA         -3.2900   26.8300   -3.9300 C.3       4 GLY6        0.0000 
     53 CA         -2.4900   25.6600   -4.4100 C.3       4 GLY6        0.0000 
     54 CA         -1.6900   24.4800   -4.8900 C.3       4 GLY6        0.0000 
     55 CA         -0.8900   23.3100   -5.3700 C.3       4 GLY6        0.0000 
     56 CA          1.9400   16.0600   -1.6800 C.3       4 GLY6        0.0000 
     57 CA          2.7400   14.8800   -2.1700 C.3       4 GLY6        0.0000 
     58 CA          0.3200   23.8400   -4.6500 C.3       4 GLY6        0.0000 
     59 CA          1.1200   22.6600   -5.1300 C.3       4 GLY6        0.0000 
     60 CA          1.9200   21.4900   -5.6200 C.3       4 GLY6        0.0000 
     61 CA         -0.0900   25.7800   -5.4000 C.3       4 GLY6        0.0000 
     62 CA          3.1500   16.5800   -0.9600 C.3       4 GLY6        0.0000 
     63 CA          3.5400   17.3500   -2.1900 C.3       4 GLY6        0.0000 
     64 CA          2.7300   21.2400   -3.6700 C.3       4 GLY6        0.0000 
     65 CA          2.7500   19.4500    0.7200 C.3       4 GLY6        0.0000 
     66 CA          3.5400   21.0000   -1.7300 C.3       4 GLY6        0.0000 
     67 CA          4.3400   19.8300   -2.2100 C.3       4 GLY6        0.0000 
     68 DU          1.1400   17.2300   -1.2000 H         5 CUB7        0.0000 
     69 DU          1.5400   18.0000   -2.4300 H         5 CUB7        0.0000 
     70 DU          1.9300   18.7700   -3.6500 H         5 CUB7        0.0000 
     71 DU          2.7300   17.6000   -4.1300 H         5 CUB7        0.0000 
     72 DU         -2.4800   26.5800   -1.9800 H         5 CUB7        0.0000 
     73 DU          1.5300   20.7200   -4.3900 H         5 CUB7        0.0000 
     74 DU          2.3300   19.5400   -4.8700 H         5 CUB7        0.0000 
     75 DU          3.1300   18.3700   -5.3600 H         5 CUB7        0.0000 
     76 DU          3.9300   17.2000   -5.8400 H         5 CUB7        0.0000 
     77 DU         -2.0800   27.3600   -3.2100 H         5 CUB7        0.0000 
     78 DU         -1.2800   26.1800   -3.6900 H         5 CUB7        0.0000 
     79 DU         -0.4800   25.0100   -4.1700 H         5 CUB7        0.0000 
     80 DU          2.7400   18.5300   -1.7000 H         5 CUB7        0.0000 
     81 DU          3.1400   19.3000   -2.9300 H         5 CUB7        0.0000 
@<TRIPOS>BOND
@<TRIPOS>SUBSTRUCTURE
     1 SER1        1 GROUP   
     2 ALA2        7 GROUP   
     3 PHE5       17 GROUP   
     4 GLY6       40 GROUP   
     5 CUB7       68 GROUP   
@<TRIPOS>SET

