#    Name: 6i5c_3_GTP_CAVITY_N1_6
#    Modification time : Fri May 22 19:27:24 2020

@<TRIPOS>MOLECULE
6i5c_3_GTP_CAVITY_N1_6
    2     0     1     0     0
SMALL
NO_CHARGES


@<TRIPOS>ATOM
      1 NZ         84.0000   59.6200  -24.1200 N.4       1 LYS4        0.0000 
      2 NZ         88.4200   58.9400  -22.5200 N.4       1 LYS4        0.0000 
@<TRIPOS>BOND
@<TRIPOS>SUBSTRUCTURE
     1 LYS4        1 GROUP   
@<TRIPOS>SET

