#    Name: 6i5c_3_GTP_CAVITY_N1_8
#    Modification time : Fri May 22 19:27:24 2020

@<TRIPOS>MOLECULE
6i5c_3_GTP_CAVITY_N1_8
   27     0     5     0     0
SMALL
NO_CHARGES


@<TRIPOS>ATOM
      1 OG         89.2800   56.5600  -23.1000 O.3       1 SER1        0.0000 
      2 OG         89.7200   57.8300  -23.7700 O.3       1 SER1        0.0000 
      3 N          93.1300   53.9600  -22.1700 N.am      2 ALA2        0.0000 
      4 N          94.5600   53.5100  -22.0800 N.am      2 ALA2        0.0000 
      5 N          95.0000   54.7800  -22.7500 N.am      2 ALA2        0.0000 
      6 O          81.1400   60.5100  -24.3000 O.2       2 ALA2        0.0000 
      7 N          88.7300   59.5500  -24.5300 N.am      2 ALA2        0.0000 
      8 O          93.7000   55.8900  -21.5000 O.2       2 ALA2        0.0000 
      9 N          89.8500   58.5000  -22.4300 N.am      2 ALA2        0.0000 
     10 NZ         83.8800   58.9500  -25.4600 N.4       3 LYS4        0.0000 
     11 NZ         85.7400   59.7700  -26.0400 N.4       3 LYS4        0.0000 
     12 NZ         82.5700   60.0600  -24.2100 N.4       3 LYS4        0.0000 
     13 NZ         84.0000   59.6200  -24.1200 N.4       3 LYS4        0.0000 
     14 NZ         88.2900   58.2800  -23.8600 N.4       3 LYS4        0.0000 
     15 NZ         81.5800   61.7800  -24.9700 N.4       3 LYS4        0.0000 
     16 NZ         83.0100   61.3300  -24.8800 N.4       3 LYS4        0.0000 
     17 NZ         84.4400   60.8800  -24.7900 N.4       3 LYS4        0.0000 
     18 NZ         85.8700   60.4400  -24.7000 N.4       3 LYS4        0.0000 
     19 NZ         87.3000   59.9900  -24.6200 N.4       3 LYS4        0.0000 
     20 NZ         84.8800   62.1500  -25.4600 N.4       3 LYS4        0.0000 
     21 NZ         88.4200   58.9400  -22.5200 N.4       3 LYS4        0.0000 
     22 CA         82.4500   59.4000  -25.5500 C.3       4 GLY6        0.0000 
     23 CA         91.7100   54.4000  -22.2600 C.3       4 GLY6        0.0000 
     24 CA         90.7100   56.1200  -23.0100 C.3       4 GLY6        0.0000 
     25 CA         86.3000   61.7100  -25.3700 C.3       4 GLY6        0.0000 
     26 CA         87.7300   61.2600  -25.2900 C.3       4 GLY6        0.0000 
     27 DU         84.3100   60.2200  -26.1300 H         5 CUB7        0.0000 
@<TRIPOS>BOND
@<TRIPOS>SUBSTRUCTURE
     1 SER1        1 GROUP   
     2 ALA2        3 GROUP   
     3 LYS4       10 GROUP   
     4 GLY6       22 GROUP   
     5 CUB7       27 GROUP   
@<TRIPOS>SET

