#    Name: 6i5c_3_GTP_CAVITY_N1_ALL
#    Modification time : Fri May 22 19:27:24 2020

@<TRIPOS>MOLECULE
6i5c_3_GTP_CAVITY_N1_ALL
   72     0     6     0     0
SMALL
NO_CHARGES


@<TRIPOS>ATOM
      1 OG         90.5900   55.4500  -24.3500 O.3       1 SER1        0.0000 
      2 OG         89.5900   57.1700  -25.1100 O.3       1 SER1        0.0000 
      3 OG         91.0200   56.7200  -25.0200 O.3       1 SER1        0.0000 
      4 OG         88.6000   58.8800  -25.8700 O.3       1 SER1        0.0000 
      5 OG         89.2800   56.5600  -23.1000 O.3       1 SER1        0.0000 
      6 OG         89.7200   57.8300  -23.7700 O.3       1 SER1        0.0000 
      7 N          81.0200   59.8400  -25.6300 N.am      2 ALA2        0.0000 
      8 O          80.0200   61.5600  -26.3900 O.2       2 ALA2        0.0000 
      9 O          81.4500   61.1100  -26.3100 O.2       2 ALA2        0.0000 
     10 N          90.0300   58.4400  -25.7800 N.am      2 ALA2        0.0000 
     11 O          91.4600   57.9900  -25.6900 O.2       2 ALA2        0.0000 
     12 O          92.8900   57.5400  -25.6100 O.2       2 ALA2        0.0000 
     13 O          80.4600   62.8300  -27.0600 O.2       2 ALA2        0.0000 
     14 O          81.8900   62.3800  -26.9800 O.2       2 ALA2        0.0000 
     15 N          90.4700   59.7000  -26.4500 N.am      2 ALA2        0.0000 
     16 N          93.1300   53.9600  -22.1700 N.am      2 ALA2        0.0000 
     17 N          94.5600   53.5100  -22.0800 N.am      2 ALA2        0.0000 
     18 O          92.1400   55.6700  -22.9300 O.2       2 ALA2        0.0000 
     19 N          93.5700   55.2300  -22.8400 N.am      2 ALA2        0.0000 
     20 N          95.0000   54.7800  -22.7500 N.am      2 ALA2        0.0000 
     21 O          81.1400   60.5100  -24.3000 O.2       2 ALA2        0.0000 
     22 O          91.1500   57.3900  -23.6800 O.2       2 ALA2        0.0000 
     23 O          92.5800   56.9400  -23.6000 O.2       2 ALA2        0.0000 
     24 O          94.0100   56.4900  -23.5100 O.2       2 ALA2        0.0000 
     25 N          88.7300   59.5500  -24.5300 N.am      2 ALA2        0.0000 
     26 N          90.1600   59.1000  -24.4400 N.am      2 ALA2        0.0000 
     27 N          91.5900   58.6500  -24.3500 N.am      2 ALA2        0.0000 
     28 N          93.0200   58.2100  -24.2700 N.am      2 ALA2        0.0000 
     29 O          94.4500   57.7600  -24.1800 O.2       2 ALA2        0.0000 
     30 O          93.7000   55.8900  -21.5000 O.2       2 ALA2        0.0000 
     31 N          89.8500   58.5000  -22.4300 N.am      2 ALA2        0.0000 
     32 O          94.5700   58.4300  -22.8400 O.2       2 ALA2        0.0000 
     33 O          96.0000   57.9800  -22.7500 O.2       2 ALA2        0.0000 
     34 OD1        87.1700   59.3300  -25.9600 O.co2     3 ASP3        0.0000 
     35 OD1        84.7500   61.4900  -26.8000 O.co2     3 ASP3        0.0000 
     36 OD1        86.1800   61.0400  -26.7100 O.co2     3 ASP3        0.0000 
     37 OD1        87.6100   60.6000  -26.6300 O.co2     3 ASP3        0.0000 
     38 OD1        89.0400   60.1500  -26.5400 O.co2     3 ASP3        0.0000 
     39 NZ         92.0200   55.0100  -24.2600 N.4       4 LYS4        0.0000 
     40 NZ         93.4500   54.5600  -24.1800 N.4       4 LYS4        0.0000 
     41 NZ         94.8800   54.1200  -24.0900 N.4       4 LYS4        0.0000 
     42 NZ         83.8800   58.9500  -25.4600 N.4       4 LYS4        0.0000 
     43 NZ         93.8800   55.8300  -24.8500 N.4       4 LYS4        0.0000 
     44 NZ         95.3100   55.3800  -24.7600 N.4       4 LYS4        0.0000 
     45 NZ         85.7400   59.7700  -26.0400 N.4       4 LYS4        0.0000 
     46 NZ         82.5700   60.0600  -24.2100 N.4       4 LYS4        0.0000 
     47 NZ         84.0000   59.6200  -24.1200 N.4       4 LYS4        0.0000 
     48 NZ         88.2900   58.2800  -23.8600 N.4       4 LYS4        0.0000 
     49 NZ         81.5800   61.7800  -24.9700 N.4       4 LYS4        0.0000 
     50 NZ         83.0100   61.3300  -24.8800 N.4       4 LYS4        0.0000 
     51 NZ         84.4400   60.8800  -24.7900 N.4       4 LYS4        0.0000 
     52 NZ         85.8700   60.4400  -24.7000 N.4       4 LYS4        0.0000 
     53 NZ         87.3000   59.9900  -24.6200 N.4       4 LYS4        0.0000 
     54 NZ         80.5900   63.4900  -25.7200 N.4       4 LYS4        0.0000 
     55 NZ         84.8800   62.1500  -25.4600 N.4       4 LYS4        0.0000 
     56 NZ         88.4200   58.9400  -22.5200 N.4       4 LYS4        0.0000 
     57 CA         82.4500   59.4000  -25.5500 C.3       5 GLY6        0.0000 
     58 CA         94.3200   57.1000  -25.5200 C.3       5 GLY6        0.0000 
     59 CA         83.3200   61.9300  -26.8900 C.3       5 GLY6        0.0000 
     60 CA         94.7600   58.3700  -26.1900 C.3       5 GLY6        0.0000 
     61 CA         91.7100   54.4000  -22.2600 C.3       5 GLY6        0.0000 
     62 CA         90.7100   56.1200  -23.0100 C.3       5 GLY6        0.0000 
     63 CA         80.1500   62.2200  -25.0500 C.3       5 GLY6        0.0000 
     64 CA         82.0200   63.0400  -25.6400 C.3       5 GLY6        0.0000 
     65 CA         86.3000   61.7100  -25.3700 C.3       5 GLY6        0.0000 
     66 CA         87.7300   61.2600  -25.2900 C.3       5 GLY6        0.0000 
     67 CA         89.1600   60.8200  -25.2000 C.3       5 GLY6        0.0000 
     68 CA         95.0100   59.7000  -23.5100 C.3       5 GLY6        0.0000 
     69 DU         92.4500   56.2800  -24.9400 H         6 CUB7        0.0000 
     70 DU         82.8800   60.6700  -26.2200 H         6 CUB7        0.0000 
     71 DU         84.3100   60.2200  -26.1300 H         6 CUB7        0.0000 
     72 DU         95.4400   56.0500  -23.4200 H         6 CUB7        0.0000 
@<TRIPOS>BOND
@<TRIPOS>SUBSTRUCTURE
     1 SER1        1 GROUP   
     2 ALA2        7 GROUP   
     3 ASP3       34 GROUP   
     4 LYS4       39 GROUP   
     5 GLY6       57 GROUP   
     6 CUB7       69 GROUP   
@<TRIPOS>SET

