#    Name: 6i5c_5_ACP
#    Modification time : Fri May 22 19:27:30 2020

@<TRIPOS>MOLECULE
6i5c_5_ACP
   31    33     1     0     1
SMALL
NO_CHARGES


@<TRIPOS>ATOM
      1 PG         93.5080   28.6650   93.0040 P.3       1 ACP402      0.0000 
      2 O1G        93.2240   29.5700   91.8070 O.co2     1 ACP402      0.0000 
      3 O2G        92.1980   28.0490   93.4990 O.co2     1 ACP402      0.0000 
      4 O3G        94.4160   27.5590   92.5590 O.co2     1 ACP402      0.0000 
      5 PB         93.5480   29.5760   95.9770 P.3       1 ACP402      0.0000 
      6 O1B        92.1060   29.2050   95.8640 O.co2     1 ACP402      0.0000 
      7 O2B        93.6500   30.9140   96.6130 O.co2     1 ACP402      0.0000 
      8 C3B        94.3590   29.6530   94.3050 C.3       1 ACP402      0.0000 
      9 PA         93.7360   27.9170   98.3600 P.3       1 ACP402      0.0000 
     10 O1A        92.2810   27.7040   98.2540 O.co2     1 ACP402      0.0000 
     11 O2A        94.3820   26.6410   98.7490 O.co2     1 ACP402      0.0000 
     12 O3A        94.3220   28.4470   96.9260 O.3       1 ACP402      0.0000 
     13 O5'        94.0300   29.0740   99.5330 O.3       1 ACP402      0.0000 
     14 C5'        95.2600   29.7800   99.5100 C.3       1 ACP402      0.0000 
     15 C4'        95.6360   30.1740  100.9550 C.3       1 ACP402      0.0000 
     16 O4'        94.8970   29.5170  101.7820 O.3       1 ACP402      0.0000 
     17 C3'        97.1060   29.7400  101.2370 C.3       1 ACP402      0.0000 
     18 O3'        97.8880   30.8410  101.3900 O.3       1 ACP402      0.0000 
     19 C2'        97.0730   28.9560  102.5360 C.3       1 ACP402      0.0000 
     20 O2'        98.0020   29.5890  103.5500 O.3       1 ACP402      0.0000 
     21 C1'        95.8400   29.0370  102.9910 C.3       1 ACP402      0.0000 
     22 N9         95.3920   27.7340  103.4500 N.pl3     1 ACP402      0.0000 
     23 C8         94.5480   26.9060  102.7990 C.2       1 ACP402      0.0000 
     24 N7         94.3780   25.8050  103.5590 N.2       1 ACP402      0.0000 
     25 C5         95.1100   25.9500  104.6730 C.ar      1 ACP402      0.0000 
     26 C6         95.3020   25.1360  105.7770 C.ar      1 ACP402      0.0000 
     27 N6         94.8070   23.7730  106.2290 N.pl3     1 ACP402      0.0000 
     28 N1         96.1020   25.5340  106.7660 N.ar      1 ACP402      0.0000 
     29 C2         96.7360   26.7420  106.6990 C.ar      1 ACP402      0.0000 
     30 N3         96.5480   27.5470  105.6100 N.ar      1 ACP402      0.0000 
     31 C4         95.7410   27.1550  104.6030 C.ar      1 ACP402      0.0000 
@<TRIPOS>BOND
     1    1    2 ar   
     2    1    3 ar   
     3    1    4 ar   
     4    1    8 1    
     5    5    6 ar   
     6    5    7 ar   
     7    5    8 1    
     8    5   12 1    
     9    9   10 ar   
    10    9   11 ar   
    11    9   12 1    
    12    9   13 1    
    13   13   14 1    
    14   14   15 1    
    15   15   16 1    
    16   15   17 1    
    17   16   21 1    
    18   17   18 1    
    19   17   19 1    
    20   19   20 1    
    21   19   21 1    
    22   21   22 1    
    23   22   23 1    
    24   22   31 1    
    25   23   24 2    
    26   24   25 1    
    27   25   26 ar   
    28   25   31 ar   
    29   26   27 1    
    30   26   28 ar   
    31   28   29 ar   
    32   29   30 ar   
    33   30   31 ar   
@<TRIPOS>SUBSTRUCTURE
     1 ACP402      1 GROUP   
@<TRIPOS>SET
ATOM$ORANGE STATIC     ATOMS   COLORGROUP SYSTEM 
22 8 8 14 14 15 15 17 17 19 19 21 21 23 23 25 25 26 \
26 29 29 31 31 

