#    Name: 6i5c_3_GTP
#    Modification time : Fri May 22 19:27:22 2020

@<TRIPOS>MOLECULE
6i5c_3_GTP
   32    34     1     0     1
SMALL
NO_CHARGES


@<TRIPOS>ATOM
      1 PG         83.4630   59.8350  -17.1260 P.3       1 GTP501      0.0000 
      2 O1G        84.5470   59.6660  -18.1670 O.co2     1 GTP501      0.0000 
      3 O2G        82.1230   59.4030  -17.6740 O.co2     1 GTP501      0.0000 
      4 O3G        83.3790   61.2930  -16.7300 O.co2     1 GTP501      0.0000 
      5 O3B        83.8150   58.9370  -15.8350 O.3       1 GTP501      0.0000 
      6 PB         85.1550   58.0430  -15.7040 P.3       1 GTP501      0.0000 
      7 O1B        85.5100   57.3790  -17.0170 O.co2     1 GTP501      0.0000 
      8 O2B        85.0030   57.0150  -14.6030 O.co2     1 GTP501      0.0000 
      9 O3A        86.2930   59.1080  -15.3010 O.3       1 GTP501      0.0000 
     10 PA         87.7360   58.6640  -14.7310 P.3       1 GTP501      0.0000 
     11 O1A        88.7990   58.8590  -15.7870 O.co2     1 GTP501      0.0000 
     12 O2A        87.7220   57.2350  -14.2390 O.co2     1 GTP501      0.0000 
     13 O5'        87.9560   59.7230  -13.5370 O.3       1 GTP501      0.0000 
     14 C5'        89.0340   60.6270  -13.5310 C.3       1 GTP501      0.0000 
     15 C4'        89.8240   60.4440  -12.2480 C.3       1 GTP501      0.0000 
     16 O4'        90.2920   59.1140  -12.1860 O.3       1 GTP501      0.0000 
     17 C3'        91.0520   61.3350  -12.2250 C.3       1 GTP501      0.0000 
     18 O3'        91.3300   61.6560  -10.8840 O.3       1 GTP501      0.0000 
     19 C2'        92.1390   60.4330  -12.7530 C.3       1 GTP501      0.0000 
     20 O2'        93.3800   60.8060  -12.2000 O.3       1 GTP501      0.0000 
     21 C1'        91.7030   59.0640  -12.2550 C.3       1 GTP501      0.0000 
     22 N9         92.1120   57.9820  -13.1650 N.pl3     1 GTP501      0.0000 
     23 C8         91.6850   57.7510  -14.4470 C.2       1 GTP501      0.0000 
     24 N7         92.3150   56.6450  -14.9100 N.2       1 GTP501      0.0000 
     25 C5         93.1320   56.1690  -13.9430 C.2       1 GTP501      0.0000 
     26 C6         93.9940   55.0780  -13.8830 C.2       1 GTP501      0.0000 
     27 O6         94.1160   54.3270  -14.8500 O.2       1 GTP501      0.0000 
     28 N1         94.7130   54.8470  -12.7250 N.am      1 GTP501      0.0000 
     29 C2         94.5760   55.6910  -11.6400 C.2       1 GTP501      0.0000 
     30 N2         95.2670   55.4690  -10.5270 N.pl3     1 GTP501      0.0000 
     31 N3         93.7180   56.7680  -11.7090 N.2       1 GTP501      0.0000 
     32 C4         93.0080   57.0040  -12.8410 C.2       1 GTP501      0.0000 
@<TRIPOS>BOND
     1    1    2 ar   
     2    1    3 ar   
     3    1    4 ar   
     4    1    5 1    
     5    5    6 1    
     6    6    7 ar   
     7    6    8 ar   
     8    6    9 1    
     9    9   10 1    
    10   10   11 ar   
    11   10   12 ar   
    12   10   13 1    
    13   13   14 1    
    14   14   15 1    
    15   15   16 1    
    16   15   17 1    
    17   16   21 1    
    18   17   18 1    
    19   17   19 1    
    20   19   20 1    
    21   19   21 1    
    22   21   22 1    
    23   22   23 1    
    24   22   32 1    
    25   23   24 2    
    26   24   25 1    
    27   25   26 1    
    28   25   32 2    
    29   26   27 2    
    30   26   28 am   
    31   28   29 1    
    32   29   30 1    
    33   29   31 2    
    34   31   32 1    
@<TRIPOS>SUBSTRUCTURE
     1 GTP501      1 GROUP   
@<TRIPOS>SET
ATOM$ORANGE STATIC     ATOMS   COLORGROUP SYSTEM 
20 14 14 15 15 17 17 19 19 21 21 23 23 25 25 26 26 29 \
29 32 32 

