#    Name: 6h6a_2_GLY_CYS_GLY_CYS_MYR
#    Modification time : Fri May 22 19:23:46 2020

@<TRIPOS>MOLECULE
6h6a_2_GLY_CYS_GLY_CYS_MYR
   35    34     5     0     0
SMALL
NO_CHARGES


@<TRIPOS>ATOM
      1 N         -29.8380  -35.2880   24.2300 N.am      1 GLY501      0.0000 
      2 CA        -31.2220  -35.7320   23.8820 C.3       1 GLY501      0.0000 
      3 C         -32.3020  -34.9820   24.6190 C.2       1 GLY501      0.0000 
      4 O         -33.4300  -34.8430   24.1180 O.2       1 GLY501      0.0000 
      5 N         -31.9750  -34.4900   25.8190 N.am      2 CYS502      0.0000 
      6 CA        -32.9600  -33.8220   26.6570 C.3       2 CYS502      0.0000 
      7 C         -33.2890  -32.4140   26.1040 C.2       2 CYS502      0.0000 
      8 O         -34.1760  -31.7240   26.6120 O.2       2 CYS502      0.0000 
      9 CB        -32.4550  -33.7350   28.1110 C.3       2 CYS502      0.0000 
     10 SG        -32.3350  -35.3680   28.9710 S.3       2 CYS502      0.0000 
     11 N         -32.5740  -32.0100   25.0570 N.am      3 GLY503      0.0000 
     12 CA        -32.8200  -30.7360   24.4160 C.3       3 GLY503      0.0000 
     13 C         -33.8630  -30.7920   23.3100 C.2       3 GLY503      0.0000 
     14 O         -34.1190  -29.8080   22.6710 O.2       3 GLY503      0.0000 
     15 N         -34.4710  -31.9570   23.1010 N.am      4 CYS504      0.0000 
     16 CA        -35.4620  -32.1180   22.0230 C.3       4 CYS504      0.0000 
     17 C         -36.7880  -31.4650   22.3760 C.2       4 CYS504      0.0000 
     18 O         -37.1910  -31.4740   23.5290 O.2       4 CYS504      0.0000 
     19 CB        -35.6860  -33.5880   21.7340 C.3       4 CYS504      0.0000 
     20 SG        -34.3160  -34.3500   20.9120 S.3       4 CYS504      0.0000 
     21 C1        -29.4650  -34.0700   24.1510 C.2       5 MYR601      0.0000 
     22 O1        -30.1170  -33.1240   23.6550 O.co2     5 MYR601      0.0000 
     23 C2        -27.9590  -33.9900   24.1610 C.3       5 MYR601      0.0000 
     24 C3        -27.4720  -32.9110   25.1260 C.3       5 MYR601      0.0000 
     25 C4        -25.9420  -32.7800   25.0230 C.3       5 MYR601      0.0000 
     26 C5        -25.3490  -31.9750   26.1590 C.3       5 MYR601      0.0000 
     27 C6        -23.8890  -31.6190   25.8680 C.3       5 MYR601      0.0000 
     28 C7        -22.9580  -32.6270   26.5420 C.3       5 MYR601      0.0000 
     29 C8        -21.6400  -32.7740   25.7910 C.3       5 MYR601      0.0000 
     30 C9        -20.8220  -33.9330   26.3480 C.3       5 MYR601      0.0000 
     31 C10       -19.3720  -33.8640   25.8890 C.3       5 MYR601      0.0000 
     32 C11       -19.0680  -34.9570   24.8740 C.3       5 MYR601      0.0000 
     33 C12       -17.5810  -35.0310   24.5850 C.3       5 MYR601      0.0000 
     34 C13       -17.2780  -34.6290   23.1520 C.3       5 MYR601      0.0000 
     35 C14       -17.3610  -33.1330   22.9660 C.3       5 MYR601      0.0000 
@<TRIPOS>BOND
     1   21   22 ar   
     2   21   23 1    
     3   23   24 1    
     4   24   25 1    
     5   25   26 1    
     6   26   27 1    
     7   27   28 1    
     8   28   29 1    
     9   29   30 1    
    10   30   31 1    
    11   31   32 1    
    12   32   33 1    
    13   33   34 1    
    14   34   35 1    
    15    1    2 1    
    16    1   21 du   
    17    2    3 1    
    18    3    4 2    
    19    3    5 am   
    20    5    6 1    
    21    6    7 1    
    22    6    9 1    
    23    7    8 2    
    24    7   11 am   
    25    9   10 1    
    26   11   12 1    
    27   12   13 1    
    28   13   14 2    
    29   13   15 am   
    30   15   16 1    
    31   16   17 1    
    32   16   19 1    
    33   17   18 2    
    34   19   20 1    
@<TRIPOS>SUBSTRUCTURE
     1 GLY501      1 RESIDUE 
     2 CYS502      5 RESIDUE 
     3 GLY503     11 RESIDUE 
     4 CYS504     15 RESIDUE 
     5 MYR601     21 GROUP   
@<TRIPOS>SET

