#    Name: 6h6a_3_GLY_CYS_GLY_CYS_MYR
#    Modification time : Fri May 22 19:23:48 2020

@<TRIPOS>MOLECULE
6h6a_3_GLY_CYS_GLY_CYS_MYR
   35    34     5     0     0
SMALL
NO_CHARGES


@<TRIPOS>ATOM
      1 N          11.9500  -27.3950  -38.7350 N.am      1 GLY501      0.0000 
      2 CA         13.4010  -27.6470  -38.9460 C.3       1 GLY501      0.0000 
      3 C          13.8790  -28.9810  -38.3720 C.2       1 GLY501      0.0000 
      4 O          14.7000  -29.6630  -38.9760 O.2       1 GLY501      0.0000 
      5 N          13.3680  -29.3400  -37.1990 N.am      2 CYS502      0.0000 
      6 CA         13.8210  -30.5490  -36.4980 C.3       2 CYS502      0.0000 
      7 C          13.2840  -31.8240  -37.1980 C.2       2 CYS502      0.0000 
      8 O          13.5860  -32.9560  -36.7860 O.2       2 CYS502      0.0000 
      9 CB         13.3690  -30.5110  -35.0350 C.3       2 CYS502      0.0000 
     10 SG         14.1480  -29.1770  -34.0590 S.3       2 CYS502      0.0000 
     11 N          12.5020  -31.6190  -38.2580 N.am      3 GLY503      0.0000 
     12 CA         11.9930  -32.7100  -39.0700 C.3       3 GLY503      0.0000 
     13 C          12.9200  -33.1070  -40.2080 C.2       3 GLY503      0.0000 
     14 O          12.6320  -34.0390  -40.9380 O.2       3 GLY503      0.0000 
     15 N          14.0350  -32.3930  -40.3500 N.am      4 CYS504      0.0000 
     16 CA         15.0530  -32.7420  -41.3520 C.3       4 CYS504      0.0000 
     17 C          15.7240  -34.0780  -40.9980 C.2       4 CYS504      0.0000 
     18 O          16.0890  -34.8580  -41.8810 O.2       4 CYS504      0.0000 
     19 CB         16.1160  -31.6380  -41.4440 C.3       4 CYS504      0.0000 
     20 SG         15.5570  -30.1050  -42.2400 S.3       4 CYS504      0.0000 
     21 C1         10.9500  -28.1840  -38.7730 C.2       5 MYR601      0.0000 
     22 O1         10.8110  -29.2630  -39.3920 O.co2     5 MYR601      0.0000 
     23 C2          9.7490  -27.3070  -38.5920 C.3       5 MYR601      0.0000 
     24 C3          8.7410  -27.9650  -37.6710 C.3       5 MYR601      0.0000 
     25 C4          7.3910  -27.2580  -37.7780 C.3       5 MYR601      0.0000 
     26 C5          6.4420  -27.6830  -36.6790 C.3       5 MYR601      0.0000 
     27 C6          5.0530  -27.0940  -36.9100 C.3       5 MYR601      0.0000 
     28 C7          4.9610  -25.7210  -36.2710 C.3       5 MYR601      0.0000 
     29 C8          3.6680  -25.0000  -36.6460 C.3       5 MYR601      0.0000 
     30 C9          3.6390  -23.6270  -35.9790 C.3       5 MYR601      0.0000 
     31 C10         2.6580  -22.6940  -36.6650 C.3       5 MYR601      0.0000 
     32 C11         3.3610  -21.8380  -37.7060 C.3       5 MYR601      0.0000 
     33 C12         2.5700  -20.5730  -37.9930 C.3       5 MYR601      0.0000 
     34 C13         1.1030  -20.8780  -38.3050 C.3       5 MYR601      0.0000 
     35 C14         0.9550  -21.4570  -39.6810 C.3       5 MYR601      0.0000 
@<TRIPOS>BOND
     1    1    2 1    
     2    1   21 du   
     3    2    3 1    
     4    3    4 2    
     5    3    5 am   
     6    5    6 1    
     7    6    7 1    
     8    6    9 1    
     9    7    8 2    
    10    7   11 am   
    11    9   10 1    
    12   11   12 1    
    13   12   13 1    
    14   13   15 am   
    15   13   14 2    
    16   15   16 1    
    17   16   17 1    
    18   16   19 1    
    19   17   18 2    
    20   19   20 1    
    21   21   22 ar   
    22   21   23 1    
    23   23   24 1    
    24   24   25 1    
    25   25   26 1    
    26   26   27 1    
    27   27   28 1    
    28   28   29 1    
    29   29   30 1    
    30   30   31 1    
    31   31   32 1    
    32   32   33 1    
    33   33   34 1    
    34   34   35 1    
@<TRIPOS>SUBSTRUCTURE
     1 GLY501      1 RESIDUE 
     2 CYS502      5 RESIDUE 
     3 GLY503     11 RESIDUE 
     4 CYS504     15 RESIDUE 
     5 MYR601     21 GROUP   
@<TRIPOS>SET

