#    Name: 6h6a_1_GLY_CYS_GLY_CYS_SER_SER_MYR_CAVITY_N1_6
#    Modification time : Fri May 22 19:23:44 2020

@<TRIPOS>MOLECULE
6h6a_1_GLY_CYS_GLY_CYS_SER_SER_MYR_CAVITY_N1_6
   76     0     6     0     0
SMALL
NO_CHARGES


@<TRIPOS>ATOM
      1 OG         -9.2000   -3.8800    6.1100 O.3       1 SER1        0.0000 
      2 OG        -10.4700   -3.1800    6.4900 O.3       1 SER1        0.0000 
      3 OG        -11.7400   -2.4900    6.8700 O.3       1 SER1        0.0000 
      4 OG        -13.4900   -3.0400    7.9400 O.3       1 SER1        0.0000 
      5 OG         -8.8900   -0.2300    6.4000 O.3       1 SER1        0.0000 
      6 OG         -8.0900   -2.1700    6.7100 O.3       1 SER1        0.0000 
      7 OG         -9.3600   -1.4700    7.0900 O.3       1 SER1        0.0000 
      8 OG         -8.5600   -3.4200    7.3900 O.3       1 SER1        0.0000 
      9 OG         -9.8400   -2.7200    7.7700 O.3       1 SER1        0.0000 
     10 OG        -12.3800   -1.3300    8.5300 O.3       1 SER1        0.0000 
     11 OG         -7.7600   -5.3600    7.6900 O.3       1 SER1        0.0000 
     12 OG         -9.0400   -4.6600    8.0700 O.3       1 SER1        0.0000 
     13 N         -13.9800    2.5500    7.9300 N.am      2 ALA2        0.0000 
     14 N         -12.8700    4.2600    8.5300 N.am      2 ALA2        0.0000 
     15 O         -10.8000    1.6200    8.4500 O.2       2 ALA2        0.0000 
     16 O          -8.7300   -1.0200    8.3700 O.2       2 ALA2        0.0000 
     17 O         -10.0000   -0.3200    8.7500 O.2       2 ALA2        0.0000 
     18 N         -13.8200    1.7600    9.8900 N.am      2 ALA2        0.0000 
     19 N         -10.1700    2.0800    9.7300 N.am      2 ALA2        0.0000 
     20 N         -11.4400    2.7700   10.1100 N.am      2 ALA2        0.0000 
     21 N         -12.7100    3.4700   10.4900 N.am      2 ALA2        0.0000 
     22 O          -9.3700    0.1400   10.0300 O.2       2 ALA2        0.0000 
     23 N         -10.6400    0.8300   10.4100 N.am      2 ALA2        0.0000 
     24 N         -11.9200    1.5300   10.7900 N.am      2 ALA2        0.0000 
     25 N         -12.3900    0.2800   11.4700 N.am      2 ALA2        0.0000 
     26 N         -13.6700    0.9700   11.8600 N.am      2 ALA2        0.0000 
     27 N         -14.1400   -0.2800   12.5400 N.am      2 ALA2        0.0000 
     28 NZ         -7.2900   -4.1100    7.0100 N.4       3 LYS4        0.0000 
     29 NZ        -12.4000    5.5000    7.8400 N.4       3 LYS4        0.0000 
     30 CZ        -13.0200   -1.7900    7.2500 C.ar      4 PHE5        0.0000 
     31 CZ        -10.1600    0.4700    6.7900 C.ar      4 PHE5        0.0000 
     32 CZ        -11.4300    1.1600    7.1700 C.ar      4 PHE5        0.0000 
     33 CZ        -15.8800   -2.4400   10.6600 C.ar      4 PHE5        0.0000 
     34 CZ        -16.3600   -3.6900   11.3500 C.ar      4 PHE5        0.0000 
     35 CZ        -10.3200    2.8700    7.7600 C.ar      4 PHE5        0.0000 
     36 CZ        -11.6000    3.5600    8.1400 C.ar      4 PHE5        0.0000 
     37 CA        -14.2900   -1.1000    7.6300 C.3       5 GLY6        0.0000 
     38 CA        -14.7700   -2.3500    8.3200 C.3       5 GLY6        0.0000 
     39 CA        -12.2300    3.1000    6.8600 C.3       5 GLY6        0.0000 
     40 CA        -14.9300    0.0500    9.3000 C.3       5 GLY6        0.0000 
     41 CA        -12.8600   -2.5800    9.2200 C.3       5 GLY6        0.0000 
     42 CA        -14.1300   -1.8900    9.6000 C.3       5 GLY6        0.0000 
     43 CA        -15.4100   -1.1900    9.9800 C.3       5 GLY6        0.0000 
     44 CA        -16.6800   -0.5000   10.3600 C.3       5 GLY6        0.0000 
     45 CA        -14.6100   -3.1400   10.2800 C.3       5 GLY6        0.0000 
     46 CA        -17.1600   -1.7500   11.0400 C.3       5 GLY6        0.0000 
     47 CA         -7.4500   -1.7100    7.9900 C.3       5 GLY6        0.0000 
     48 CA         -7.9300   -2.9600    8.6700 C.3       5 GLY6        0.0000 
     49 CA         -9.2000   -2.2600    9.0500 C.3       5 GLY6        0.0000 
     50 CA        -10.4800   -1.5700    9.4300 C.3       5 GLY6        0.0000 
     51 CA        -11.7500   -0.8800    9.8100 C.3       5 GLY6        0.0000 
     52 CA        -13.0200   -0.1800   10.1900 C.3       5 GLY6        0.0000 
     53 CA        -13.5000   -1.4300   10.8800 C.3       5 GLY6        0.0000 
     54 CA        -14.7700   -0.7300   11.2600 C.3       5 GLY6        0.0000 
     55 CA        -15.2500   -1.9800   11.9400 C.3       5 GLY6        0.0000 
     56 CA        -15.7300   -3.2300   12.6300 C.3       5 GLY6        0.0000 
     57 CA        -12.2400    4.7200    9.8100 C.3       5 GLY6        0.0000 
     58 CA         -8.0900   -0.5600    9.6500 C.3       5 GLY6        0.0000 
     59 CA        -11.1200   -0.4200   11.0900 C.3       5 GLY6        0.0000 
     60 CA        -14.6200   -1.5200   13.2200 C.3       5 GLY6        0.0000 
     61 DU         -9.9900   -1.9300    5.8100 H         6 CUB7        0.0000 
     62 DU        -11.2700   -1.2400    6.1900 H         6 CUB7        0.0000 
     63 DU        -10.6300   -0.7800    7.4700 H         6 CUB7        0.0000 
     64 DU        -11.9100   -0.0900    7.8500 H         6 CUB7        0.0000 
     65 DU        -13.1800    0.6100    8.2300 H         6 CUB7        0.0000 
     66 DU        -14.4600    1.3000    8.6100 H         6 CUB7        0.0000 
     67 DU        -15.7300    2.0000    8.9900 H         6 CUB7        0.0000 
     68 DU        -13.6600   -0.6400    8.9100 H         6 CUB7        0.0000 
     69 DU        -12.0700    2.3100    8.8300 H         6 CUB7        0.0000 
     70 DU        -13.3500    3.0100    9.2100 H         6 CUB7        0.0000 
     71 DU        -11.2800    0.3700    9.1300 H         6 CUB7        0.0000 
     72 DU        -12.5500    1.0700    9.5100 H         6 CUB7        0.0000 
     73 DU        -15.1000    2.4600   10.2700 H         6 CUB7        0.0000 
     74 DU        -14.3000    0.5100   10.5800 H         6 CUB7        0.0000 
     75 DU        -16.0500   -0.0400   11.6400 H         6 CUB7        0.0000 
     76 DU        -16.5200   -1.2900   12.3200 H         6 CUB7        0.0000 
@<TRIPOS>BOND
@<TRIPOS>SUBSTRUCTURE
     1 SER1        1 GROUP   
     2 ALA2       13 GROUP   
     3 LYS4       28 GROUP   
     4 PHE5       30 GROUP   
     5 GLY6       37 GROUP   
     6 CUB7       61 GROUP   
@<TRIPOS>SET

