#    Name: 6h6a_1_GLY_CYS_GLY_CYS_SER_SER_MYR
#    Modification time : Fri May 22 19:23:43 2020

@<TRIPOS>MOLECULE
6h6a_1_GLY_CYS_GLY_CYS_SER_SER_MYR
   47    46     7     0     0
SMALL
NO_CHARGES


@<TRIPOS>ATOM
      1 N          -7.4080   -3.6240    7.1380 N.am      1 GLY501      0.0000 
      2 CA         -7.4360   -2.2300    7.6600 C.3       1 GLY501      0.0000 
      3 C          -8.4480   -1.3340    6.9530 C.2       1 GLY501      0.0000 
      4 O          -8.8560   -0.2970    7.5000 O.2       1 GLY501      0.0000 
      5 N          -8.8490   -1.7180    5.7320 N.am      2 CYS502      0.0000 
      6 CA         -9.8500   -0.9470    4.9750 C.3       2 CYS502      0.0000 
      7 C         -11.2510   -1.0750    5.5990 C.2       2 CYS502      0.0000 
      8 O         -12.1840   -0.4090    5.1750 O.2       2 CYS502      0.0000 
      9 CB         -9.8930   -1.4010    3.5140 C.3       2 CYS502      0.0000 
     10 SG         -8.3980   -1.0130    2.5500 S.3       2 CYS502      0.0000 
     11 N         -11.3820   -1.9330    6.6040 N.am      3 GLY503      0.0000 
     12 CA        -12.6440   -2.0730    7.3270 C.3       3 GLY503      0.0000 
     13 C         -12.7670   -1.1450    8.5210 C.2       3 GLY503      0.0000 
     14 O         -13.7270   -1.1960    9.2350 O.2       3 GLY503      0.0000 
     15 N         -11.7640   -0.3060    8.7300 N.am      4 CYS504      0.0000 
     16 CA        -11.8330    0.7190    9.7540 C.3       4 CYS504      0.0000 
     17 C         -12.8150    1.8060    9.3400 C.2       4 CYS504      0.0000 
     18 O         -12.9250    2.1320    8.1580 O.2       4 CYS504      0.0000 
     19 CB        -10.4690    1.3400    9.9520 C.3       4 CYS504      0.0000 
     20 SG         -9.3090    0.2910   10.8020 S.3       4 CYS504      0.0000 
     21 N         -13.5170    2.3750   10.3140 N.am      5 SER505      0.0000 
     22 CA        -14.2830    3.6120   10.0850 C.3       5 SER505      0.0000 
     23 C         -14.6020    4.3290   11.3970 C.2       5 SER505      0.0000 
     24 O         -15.1540    3.7340   12.3230 O.2       5 SER505      0.0000 
     25 CB        -15.5840    3.3010    9.3400 C.3       5 SER505      0.0000 
     26 OG        -16.2300    2.1790    9.8980 O.3       5 SER505      0.0000 
     27 N         -14.2540    5.6120   11.4630 N.am      6 SER506      0.0000 
     28 CA        -14.7390    6.4930   12.5340 C.3       6 SER506      0.0000 
     29 C         -16.2470    6.3030   12.7690 C.2       6 SER506      0.0000 
     30 O         -17.0760    6.9340   12.1060 O.2       6 SER506      0.0000 
     31 CB        -14.4500    7.9540   12.1850 C.3       6 SER506      0.0000 
     32 OG        -14.8840    8.2550   10.8690 O.3       6 SER506      0.0000 
     33 C1         -8.3670   -4.4110    7.2890 C.2       7 MYR601      0.0000 
     34 O1         -9.4990   -4.2240    7.7860 O.co2     7 MYR601      0.0000 
     35 C2         -7.9410   -5.8200    6.9240 C.3       7 MYR601      0.0000 
     36 C3         -9.0170   -6.5040    6.0930 C.3       7 MYR601      0.0000 
     37 C4         -8.9270   -8.0180    6.2320 C.3       7 MYR601      0.0000 
     38 C5         -9.4410   -8.7210    4.9950 C.3       7 MYR601      0.0000 
     39 C6         -9.2950  -10.2530    5.1170 C.3       7 MYR601      0.0000 
     40 C7         -7.9280  -10.7140    4.6170 C.3       7 MYR601      0.0000 
     41 C8         -7.7050  -12.2090    4.8410 C.3       7 MYR601      0.0000 
     42 C9         -6.3060  -12.6180    4.3960 C.3       7 MYR601      0.0000 
     43 C10        -5.8260  -13.8590    5.1330 C.3       7 MYR601      0.0000 
     44 C11        -4.5270  -13.5810    5.8680 C.3       7 MYR601      0.0000 
     45 C12        -3.6990  -14.8440    6.0260 C.3       7 MYR601      0.0000 
     46 C13        -4.1200  -15.6240    7.2510 C.3       7 MYR601      0.0000 
     47 C14        -5.5240  -16.1410    7.1010 C.3       7 MYR601      0.0000 
@<TRIPOS>BOND
     1    1    2 1    
     2    1   33 du   
     3    2    3 1    
     4    3    4 2    
     5    3    5 am   
     6    5    6 1    
     7    6    7 1    
     8    6    9 1    
     9    7    8 2    
    10    7   11 am   
    11    9   10 1    
    12   11   12 1    
    13   12   13 1    
    14   13   14 2    
    15   13   15 am   
    16   15   16 1    
    17   16   17 1    
    18   16   19 1    
    19   17   18 2    
    20   17   21 am   
    21   19   20 1    
    22   21   22 1    
    23   22   23 1    
    24   22   25 1    
    25   23   24 2    
    26   23   27 am   
    27   25   26 1    
    28   27   28 1    
    29   28   29 1    
    30   28   31 1    
    31   29   30 2    
    32   31   32 1    
    33   33   34 ar   
    34   33   35 1    
    35   35   36 1    
    36   36   37 1    
    37   37   38 1    
    38   38   39 1    
    39   39   40 1    
    40   40   41 1    
    41   41   42 1    
    42   42   43 1    
    43   43   44 1    
    44   44   45 1    
    45   45   46 1    
    46   46   47 1    
@<TRIPOS>SUBSTRUCTURE
     1 GLY501      1 RESIDUE 
     2 CYS502      5 RESIDUE 
     3 GLY503     11 RESIDUE 
     4 CYS504     15 RESIDUE 
     5 SER505     21 RESIDUE 
     6 SER506     27 RESIDUE 
     7 MYR601     33 GROUP   
@<TRIPOS>SET

