#    Name: 6h6a_3_GLY_CYS_GLY_CYS_MYR_CAVITY_N1_8
#    Modification time : Fri May 22 19:23:49 2020

@<TRIPOS>MOLECULE
6h6a_3_GLY_CYS_GLY_CYS_MYR_CAVITY_N1_8
   79     0     6     0     0
SMALL
NO_CHARGES


@<TRIPOS>ATOM
      1 OG         12.2300  -33.4500  -39.5900 O.3       1 SER1        0.0000 
      2 OG         10.9600  -32.7600  -39.2100 O.3       1 SER1        0.0000 
      3 OG         12.5400  -29.8000  -39.2900 O.3       1 SER1        0.0000 
      4 OG         11.2700  -29.1100  -38.9100 O.3       1 SER1        0.0000 
      5 OG         10.0000  -28.4100  -38.5300 O.3       1 SER1        0.0000 
      6 OG          8.7200  -27.7200  -38.1500 O.3       1 SER1        0.0000 
      7 OG         12.0700  -31.0500  -38.6100 O.3       1 SER1        0.0000 
      8 OG         13.6500  -28.0900  -38.7000 O.3       1 SER1        0.0000 
      9 OG         13.1800  -29.3400  -38.0100 O.3       1 SER1        0.0000 
     10 OG         13.3400  -30.1300  -36.0500 O.3       1 SER1        0.0000 
     11 OG         13.9700  -29.6700  -34.7700 O.3       1 SER1        0.0000 
     12 OG         14.6000  -29.2100  -33.4900 O.3       1 SER1        0.0000 
     13 N          14.4700  -33.2600  -44.2800 N.am      2 ALA2        0.0000 
     14 N          15.5800  -31.5600  -43.6800 N.am      2 ALA2        0.0000 
     15 N          16.3700  -33.5000  -43.3800 N.am      2 ALA2        0.0000 
     16 N          15.1000  -32.8000  -43.0000 N.am      2 ALA2        0.0000 
     17 N          16.2100  -31.1000  -42.4000 N.am      2 ALA2        0.0000 
     18 N          15.7300  -32.3400  -41.7200 N.am      2 ALA2        0.0000 
     19 N          16.5300  -34.2900  -41.4200 N.am      2 ALA2        0.0000 
     20 O          16.8400  -30.6400  -41.1200 O.2       2 ALA2        0.0000 
     21 O          15.5700  -29.9400  -40.7400 O.2       2 ALA2        0.0000 
     22 O          16.3700  -31.8800  -40.4400 O.2       2 ALA2        0.0000 
     23 O          15.0900  -31.1900  -40.0600 O.2       2 ALA2        0.0000 
     24 N          17.1700  -33.8300  -40.1400 N.am      2 ALA2        0.0000 
     25 N          17.9600  -35.7700  -39.8300 N.am      2 ALA2        0.0000 
     26 N          16.6900  -35.0700  -39.4500 N.am      2 ALA2        0.0000 
     27 O          14.9300  -28.7900  -39.0800 O.2       2 ALA2        0.0000 
     28 N          19.5500  -32.8100  -39.9200 N.am      2 ALA2        0.0000 
     29 O          18.2700  -32.1200  -39.5400 O.2       2 ALA2        0.0000 
     30 O          15.7300  -30.7300  -38.7800 O.2       2 ALA2        0.0000 
     31 O          14.4500  -30.0400  -38.3900 O.2       2 ALA2        0.0000 
     32 NZ          9.3600  -27.2600  -36.8700 N.4       3 LYS4        0.0000 
     33 CZ          8.0900  -28.1800  -39.4300 C.ar      4 PHE5        0.0000 
     34 CZ         11.5900  -32.3000  -37.9300 C.ar      4 PHE5        0.0000 
     35 CZ         17.8000  -33.3700  -38.8600 C.ar      4 PHE5        0.0000 
     36 CZ         16.5200  -32.6700  -38.4700 C.ar      4 PHE5        0.0000 
     37 CZ         15.2500  -31.9800  -38.0900 C.ar      4 PHE5        0.0000 
     38 CZ         11.4300  -29.9000  -36.9500 C.ar      4 PHE5        0.0000 
     39 CZ         13.5000  -32.5300  -37.0300 C.ar      4 PHE5        0.0000 
     40 CZ         12.2300  -31.8400  -36.6500 C.ar      4 PHE5        0.0000 
     41 CZ         14.6100  -30.8300  -36.4300 C.ar      4 PHE5        0.0000 
     42 CZ         14.1300  -32.0700  -35.7500 C.ar      4 PHE5        0.0000 
     43 CZ         12.8600  -31.3800  -35.3700 C.ar      4 PHE5        0.0000 
     44 CZ         15.2400  -30.3700  -35.1500 C.ar      4 PHE5        0.0000 
     45 CZ         12.2200  -30.2300  -33.7100 C.ar      4 PHE5        0.0000 
     46 CA         12.7200  -33.8200  -43.2100 C.3       5 GLY6        0.0000 
     47 CA         12.2400  -35.0600  -42.5300 C.3       5 GLY6        0.0000 
     48 CA         10.9700  -34.3700  -42.1500 C.3       5 GLY6        0.0000 
     49 CA         13.8300  -32.1100  -42.6200 C.3       5 GLY6        0.0000 
     50 CA         13.3500  -33.3600  -41.9300 C.3       5 GLY6        0.0000 
     51 CA         12.0800  -32.6600  -41.5500 C.3       5 GLY6        0.0000 
     52 CA         14.1500  -35.3000  -41.6300 C.3       5 GLY6        0.0000 
     53 CA         12.8800  -34.6000  -41.2500 C.3       5 GLY6        0.0000 
     54 CA         11.6000  -33.9100  -40.8700 C.3       5 GLY6        0.0000 
     55 CA         13.6700  -36.5500  -40.9500 C.3       5 GLY6        0.0000 
     56 CA         14.9300  -30.4000  -42.0200 C.3       5 GLY6        0.0000 
     57 CA         14.4600  -31.6500  -41.3400 C.3       5 GLY6        0.0000 
     58 CA         13.1900  -30.9600  -40.9500 C.3       5 GLY6        0.0000 
     59 CA         12.7100  -32.2000  -40.2700 C.3       5 GLY6        0.0000 
     60 CA         14.2900  -29.2500  -40.3600 C.3       5 GLY6        0.0000 
     61 CA         13.0200  -28.5500  -39.9800 C.3       5 GLY6        0.0000 
     62 CA         11.7500  -27.8600  -39.6000 C.3       5 GLY6        0.0000 
     63 CA         13.8200  -30.5000  -39.6700 C.3       5 GLY6        0.0000 
     64 CA         12.8700  -32.9900  -38.3100 C.3       5 GLY6        0.0000 
     65 CA         17.3200  -34.6100  -38.1700 C.3       5 GLY6        0.0000 
     66 CA         14.7700  -31.6100  -34.4700 C.3       5 GLY6        0.0000 
     67 CA         13.4900  -30.9200  -34.0900 C.3       5 GLY6        0.0000 
     68 CA         14.1300  -30.4600  -32.8100 C.3       5 GLY6        0.0000 
     69 DU         14.6200  -34.0500  -42.3100 H         6 CUB7        0.0000 
     70 DU         15.2600  -33.5900  -41.0300 H         6 CUB7        0.0000 
     71 DU         13.9800  -32.9000  -40.6500 H         6 CUB7        0.0000 
     72 DU         16.0600  -35.5300  -40.7300 H         6 CUB7        0.0000 
     73 DU         14.7800  -34.8400  -40.3500 H         6 CUB7        0.0000 
     74 DU         15.8900  -33.1300  -39.7500 H         6 CUB7        0.0000 
     75 DU         14.6200  -32.4400  -39.3700 H         6 CUB7        0.0000 
     76 DU         13.3400  -31.7400  -38.9900 H         6 CUB7        0.0000 
     77 DU         19.0700  -34.0600  -39.2400 H         6 CUB7        0.0000 
     78 DU         13.9800  -31.2800  -37.7100 H         6 CUB7        0.0000 
     79 DU         12.7000  -30.5900  -37.3300 H         6 CUB7        0.0000 
@<TRIPOS>BOND
@<TRIPOS>SUBSTRUCTURE
     1 SER1        1 GROUP   
     2 ALA2       13 GROUP   
     3 LYS4       32 GROUP   
     4 PHE5       33 GROUP   
     5 GLY6       46 GROUP   
     6 CUB7       69 GROUP   
@<TRIPOS>SET

