#    Name: 6rfu_3_ATP
#    Modification time : Fri May 22 19:24:10 2020

@<TRIPOS>MOLECULE
6rfu_3_ATP
   43    45     1     0     1
SMALL
NO_CHARGES


@<TRIPOS>ATOM
      1 PG         52.1070   79.3500    4.6430 P.3       1 ATP601      0.0000 
      2 O1G        51.7480   80.0340    3.3410 O.co2     1 ATP601      0.0000 
      3 O2G        50.9370   79.0180    5.5460 O.co2     1 ATP601      0.0000 
      4 O3G        53.2770   79.9730    5.3690 O.co2     1 ATP601      0.0000 
      5 PB         52.6460   76.6270    5.0860 P.3       1 ATP601      0.0000 
      6 O1B        53.4520   76.9090    6.3400 O.co2     1 ATP601      0.0000 
      7 O2B        51.2080   76.1720    5.2270 O.co2     1 ATP601      0.0000 
      8 O3B        52.6530   77.9240    4.1310 O.3       1 ATP601      0.0000 
      9 PA         54.5550   74.5520    4.4810 P.3       1 ATP601      0.0000 
     10 O1A        54.0730   73.1410    4.2130 O.co2     1 ATP601      0.0000 
     11 O2A        55.8030   75.0340    3.7820 O.co2     1 ATP601      0.0000 
     12 O3A        53.3810   75.5940    4.0900 O.3       1 ATP601      0.0000 
     13 O5'        54.7720   74.6260    6.0820 O.3       1 ATP601      0.0000 
     14 C5'        55.8130   75.4270    6.6400 C.3       1 ATP601      0.0000 
     15 C4'        57.0610   74.5820    6.8860 C.3       1 ATP601      0.0000 
     16 O4'        57.5990   74.1120    5.6410 O.3       1 ATP601      0.0000 
     17 C3'        58.1550   75.4020    7.5430 C.3       1 ATP601      0.0000 
     18 O3'        58.8800   74.5640    8.4470 O.3       1 ATP601      0.0000 
     19 C2'        59.0050   75.8350    6.3740 C.3       1 ATP601      0.0000 
     20 O2'        60.3370   76.1820    6.7510 O.3       1 ATP601      0.0000 
     21 C1'        58.9310   74.6140    5.4770 C.3       1 ATP601      0.0000 
     22 N9         59.2490   74.9750    4.0730 N.pl3     1 ATP601      0.0000 
     23 C8         58.6190   75.8860    3.3040 C.2       1 ATP601      0.0000 
     24 N7         59.1940   75.9530    2.0780 N.2       1 ATP601      0.0000 
     25 C5         60.2140   75.0810    2.0560 C.ar      1 ATP601      0.0000 
     26 C6         61.2330   74.6530    1.0760 C.ar      1 ATP601      0.0000 
     27 N6         61.2560   75.2040   -0.1560 N.pl3     1 ATP601      0.0000 
     28 N1         62.1240   73.7090    1.4520 N.ar      1 ATP601      0.0000 
     29 C2         62.1090   73.1560    2.6770 C.ar      1 ATP601      0.0000 
     30 N3         61.2100   73.5040    3.6140 N.ar      1 ATP601      0.0000 
     31 C4         60.2550   74.4420    3.3740 C.ar      1 ATP601      0.0000 
     32 H5'1       55.4740   75.8620    7.5830 H         1 ATP601      0.0000 
     33 H5'2       56.0520   76.2450    5.9570 H         1 ATP601      0.0000 
     34 H4'        56.8040   73.7350    7.5360 H         1 ATP601      0.0000 
     35 H3'        57.7250   76.2770    8.0520 H         1 ATP601      0.0000 
     36 HO3'       59.5810   75.0790    8.8710 H         1 ATP601      0.0000 
     37 H2'        58.5190   76.6810    5.8690 H         1 ATP601      0.0000 
     38 HO2'       60.3130   76.9290    7.3650 H         1 ATP601      0.0000 
     39 H1'        59.6530   73.8690    5.8400 H         1 ATP601      0.0000 
     40 H8         57.7660   76.4750    3.6190 H         1 ATP601      0.0000 
     41 HN61       60.5760   75.9070   -0.4070 H         1 ATP601      0.0000 
     42 HN62       61.9520   74.9120   -0.8270 H         1 ATP601      0.0000 
     43 H2         62.8510   72.4050    2.9190 H         1 ATP601      0.0000 
@<TRIPOS>BOND
     1    1    2 ar   
     2    1    3 ar   
     3    1    4 ar   
     4    1    8 1    
     5    5    6 ar   
     6    5    7 ar   
     7    5    8 1    
     8    5   12 1    
     9    9   10 ar   
    10    9   11 ar   
    11    9   12 1    
    12    9   13 1    
    13   13   14 1    
    14   14   15 1    
    15   14   32 1    
    16   14   33 1    
    17   15   16 1    
    18   15   17 1    
    19   15   34 1    
    20   16   21 1    
    21   17   18 1    
    22   17   19 1    
    23   17   35 1    
    24   18   36 1    
    25   19   20 1    
    26   19   21 1    
    27   19   37 1    
    28   20   38 1    
    29   21   22 1    
    30   21   39 1    
    31   22   23 1    
    32   22   31 1    
    33   23   24 2    
    34   23   40 1    
    35   24   25 1    
    36   25   26 ar   
    37   25   31 ar   
    38   26   27 1    
    39   26   28 ar   
    40   27   41 1    
    41   27   42 1    
    42   28   29 ar   
    43   29   30 ar   
    44   29   43 1    
    45   30   31 ar   
@<TRIPOS>SUBSTRUCTURE
     1 ATP601      1 GROUP   
@<TRIPOS>SET
ATOM$ORANGE STATIC     ATOMS   COLORGROUP SYSTEM 
20 14 14 15 15 17 17 19 19 21 21 23 23 25 25 26 26 29 \
29 31 31 

