#    Name: 6rfu_2_5GP
#    Modification time : Fri May 22 19:24:02 2020

@<TRIPOS>MOLECULE
6rfu_2_5GP
   36    38     1     0     0
SMALL
NO_CHARGES


@<TRIPOS>ATOM
      1 P          34.1270   60.2120   13.8540 P.3       1 5GP602      0.0000 
      2 O1P        34.0940   59.4630   12.5380 O.co2     1 5GP602      0.0000 
      3 O2P        33.0000   61.2050   14.0420 O.co2     1 5GP602      0.0000 
      4 O3P        34.4030   59.3390   15.0590 O.co2     1 5GP602      0.0000 
      5 O5'        35.4280   61.1270   13.7390 O.3       1 5GP602      0.0000 
      6 C5'        35.8890   61.8880   14.8520 C.3       1 5GP602      0.0000 
      7 C4'        37.1300   61.2810   15.4630 C.3       1 5GP602      0.0000 
      8 O4'        38.3020   61.9910   14.9690 O.3       1 5GP602      0.0000 
      9 C3'        37.2070   61.3440   16.9920 C.3       1 5GP602      0.0000 
     10 O3'        37.8020   60.1470   17.4990 O.3       1 5GP602      0.0000 
     11 C2'        38.1300   62.5370   17.2360 C.3       1 5GP602      0.0000 
     12 O2'        38.8020   62.5260   18.4780 O.3       1 5GP602      0.0000 
     13 C1'        39.0970   62.4060   16.0640 C.3       1 5GP602      0.0000 
     14 N9         39.8100   63.6400   15.6980 N.pl3     1 5GP602      0.0000 
     15 C8         39.5390   64.9030   16.0760 C.2       1 5GP602      0.0000 
     16 N7         40.4460   65.7390   15.5140 N.2       1 5GP602      0.0000 
     17 C5         41.2950   64.9970   14.7770 C.2       1 5GP602      0.0000 
     18 C6         42.4030   65.2970   13.9860 C.2       1 5GP602      0.0000 
     19 O6         42.8000   66.4780   13.8480 O.2       1 5GP602      0.0000 
     20 N1         43.0520   64.3040   13.3630 N.am      1 5GP602      0.0000 
     21 C2         42.6510   63.0330   13.4900 C.2       1 5GP602      0.0000 
     22 N2         43.3280   62.0560   12.8500 N.pl3     1 5GP602      0.0000 
     23 N3         41.5820   62.7120   14.2480 N.2       1 5GP602      0.0000 
     24 C4         40.8880   63.6790   14.9000 C.2       1 5GP602      0.0000 
     25 H5'1       35.1020   61.9380   15.6070 H         1 5GP602      0.0000 
     26 H5'2       36.1070   62.9080   14.5280 H         1 5GP602      0.0000 
     27 H4'        37.1860   60.2270   15.1570 H         1 5GP602      0.0000 
     28 H3'        36.2130   61.5260   17.4240 H         1 5GP602      0.0000 
     29 HO3'       37.9190   60.2260   18.4550 H         1 5GP602      0.0000 
     30 H2'        37.5540   63.4650   17.1230 H         1 5GP602      0.0000 
     31 HO2'       39.4200   63.2690   18.5160 H         1 5GP602      0.0000 
     32 H1'        39.8270   61.6200   16.3050 H         1 5GP602      0.0000 
     33 H8         38.7260   65.2030   16.7260 H         1 5GP602      0.0000 
     34 HN1        43.8800   64.5240   12.7740 H         1 5GP602      0.0000 
     35 HN21       44.1290   62.2860   12.2810 H         1 5GP602      0.0000 
     36 HN22       43.0310   61.0940   12.9400 H         1 5GP602      0.0000 
@<TRIPOS>BOND
     1    1    2 ar   
     2    1    3 ar   
     3    1    4 ar   
     4    1    5 1    
     5    5    6 1    
     6    6    7 1    
     7    6   25 1    
     8    6   26 1    
     9    7    8 1    
    10    7    9 1    
    11    7   27 1    
    12    8   13 1    
    13    9   10 1    
    14    9   11 1    
    15    9   28 1    
    16   10   29 1    
    17   11   12 1    
    18   11   13 1    
    19   11   30 1    
    20   12   31 1    
    21   13   14 1    
    22   13   32 1    
    23   14   15 1    
    24   14   24 1    
    25   15   16 2    
    26   15   33 1    
    27   16   17 1    
    28   17   18 1    
    29   17   24 2    
    30   18   19 2    
    31   18   20 am   
    32   20   21 1    
    33   20   34 1    
    34   21   22 1    
    35   21   23 2    
    36   22   35 1    
    37   22   36 1    
    38   23   24 1    
@<TRIPOS>SUBSTRUCTURE
     1 5GP602      1 GROUP   
@<TRIPOS>SET

