#    Name: 6rfu_1_5GP
#    Modification time : Fri May 22 19:23:58 2020

@<TRIPOS>MOLECULE
6rfu_1_5GP
   36    38     1     0     0
SMALL
NO_CHARGES


@<TRIPOS>ATOM
      1 P          54.9720   94.9680   -2.1880 P.3       1 5GP602      0.0000 
      2 O1P        55.2820   96.1490   -3.0840 O.co2     1 5GP602      0.0000 
      3 O2P        56.0270   94.7010   -1.1390 O.co2     1 5GP602      0.0000 
      4 O3P        53.5480   94.9090   -1.6790 O.co2     1 5GP602      0.0000 
      5 O5'        55.0770   93.7160   -3.1690 O.3       1 5GP602      0.0000 
      6 C5'        54.8990   92.3810   -2.6980 C.3       1 5GP602      0.0000 
      7 C4'        55.8090   91.4260   -3.4300 C.3       1 5GP602      0.0000 
      8 O4'        55.5420   90.0640   -2.9900 O.3       1 5GP602      0.0000 
      9 C3'        55.6480   91.4190   -4.9560 C.3       1 5GP602      0.0000 
     10 O3'        56.9290   91.3130   -5.5750 O.3       1 5GP602      0.0000 
     11 C2'        54.8450   90.1440   -5.2100 C.3       1 5GP602      0.0000 
     12 O2'        55.0070   89.5880   -6.4990 O.3       1 5GP602      0.0000 
     13 C1'        55.3970   89.2350   -4.1230 C.3       1 5GP602      0.0000 
     14 N9         54.5570   88.0830   -3.7780 N.pl3     1 5GP602      0.0000 
     15 C8         53.3240   87.7600   -4.2040 C.2       1 5GP602      0.0000 
     16 N7         52.9570   86.5900   -3.6230 N.2       1 5GP602      0.0000 
     17 C5         53.9770   86.1810   -2.8360 C.2       1 5GP602      0.0000 
     18 C6         54.1950   85.0850   -2.0040 C.2       1 5GP602      0.0000 
     19 O6         53.3230   84.1970   -1.8670 O.2       1 5GP602      0.0000 
     20 N1         55.3580   84.9870   -1.3430 N.am      1 5GP602      0.0000 
     21 C2         56.3140   85.9180   -1.4720 C.2       1 5GP602      0.0000 
     22 N2         57.4840   85.8030   -0.8020 N.pl3     1 5GP602      0.0000 
     23 N3         56.1310   86.9860   -2.2680 N.2       1 5GP602      0.0000 
     24 C4         54.9750   87.1290   -2.9510 C.2       1 5GP602      0.0000 
     25 H5'1       53.8600   92.0790   -2.8430 H         1 5GP602      0.0000 
     26 H5'2       55.1150   92.3410   -1.6280 H         1 5GP602      0.0000 
     27 H4'        56.8490   91.6900   -3.1940 H         1 5GP602      0.0000 
     28 H3'        55.0940   92.3050   -5.2960 H         1 5GP602      0.0000 
     29 HO3'       56.8190   91.2290   -6.5320 H         1 5GP602      0.0000 
     30 H2'        53.7830   90.3420   -5.0100 H         1 5GP602      0.0000 
     31 HO2'       54.5300   88.7490   -6.5490 H         1 5GP602      0.0000 
     32 H1'        56.3860   88.8800   -4.4430 H         1 5GP602      0.0000 
     33 H8         52.7220   88.3400   -4.8910 H         1 5GP602      0.0000 
     34 HN1        55.5250   84.1680   -0.7240 H         1 5GP602      0.0000 
     35 HN21       57.6440   85.0090   -0.1980 H         1 5GP602      0.0000 
     36 HN22       58.1970   86.5110   -0.9040 H         1 5GP602      0.0000 
@<TRIPOS>BOND
     1    1    2 ar   
     2    1    3 ar   
     3    1    4 ar   
     4    1    5 1    
     5    5    6 1    
     6    6    7 1    
     7    6   25 1    
     8    6   26 1    
     9    7    8 1    
    10    7    9 1    
    11    7   27 1    
    12    8   13 1    
    13    9   10 1    
    14    9   11 1    
    15    9   28 1    
    16   10   29 1    
    17   11   12 1    
    18   11   13 1    
    19   11   30 1    
    20   12   31 1    
    21   13   14 1    
    22   13   32 1    
    23   14   15 1    
    24   14   24 1    
    25   15   16 2    
    26   15   33 1    
    27   16   17 1    
    28   17   18 1    
    29   17   24 2    
    30   18   19 2    
    31   18   20 am   
    32   20   21 1    
    33   20   34 1    
    34   21   22 1    
    35   21   23 2    
    36   22   35 1    
    37   22   36 1    
    38   23   24 1    
@<TRIPOS>SUBSTRUCTURE
     1 5GP602      1 GROUP   
@<TRIPOS>SET

