#    Name: 6rfu_4_ATP
#    Modification time : Fri May 22 19:24:19 2020

@<TRIPOS>MOLECULE
6rfu_4_ATP
   43    45     1     0     1
SMALL
NO_CHARGES


@<TRIPOS>ATOM
      1 PG         46.5160   69.9790    7.1190 P.3       1 ATP601      0.0000 
      2 O1G        45.9170   68.8450    6.3220 O.co2     1 ATP601      0.0000 
      3 O2G        46.4440   69.8370    8.6200 O.co2     1 ATP601      0.0000 
      4 O3G        46.1730   71.3570    6.5990 O.co2     1 ATP601      0.0000 
      5 PB         49.0950   71.0250    7.0810 P.3       1 ATP601      0.0000 
      6 O1B        49.2390   71.1630    8.5840 O.co2     1 ATP601      0.0000 
      7 O2B        48.7220   72.2080    6.2060 O.co2     1 ATP601      0.0000 
      8 O3B        48.0800   69.8110    6.8130 O.3       1 ATP601      0.0000 
      9 PA         51.6500   69.9140    7.4310 P.3       1 ATP601      0.0000 
     10 O1A        51.1910   68.7070    8.2150 O.co2     1 ATP601      0.0000 
     11 O2A        52.2470   71.0870    8.1740 O.co2     1 ATP601      0.0000 
     12 O3A        50.4420   70.3860    6.4710 O.3       1 ATP601      0.0000 
     13 O5'        52.6980   69.4610    6.3040 O.3       1 ATP601      0.0000 
     14 C5'        52.2490   68.7170    5.1780 C.3       1 ATP601      0.0000 
     15 C4'        53.3230   67.6820    4.9230 C.3       1 ATP601      0.0000 
     16 O4'        53.9150   67.3730    6.1880 O.3       1 ATP601      0.0000 
     17 C3'        52.7740   66.3930    4.3410 C.3       1 ATP601      0.0000 
     18 O3'        53.6910   65.9150    3.3500 O.3       1 ATP601      0.0000 
     19 C2'        52.6960   65.4680    5.5340 C.3       1 ATP601      0.0000 
     20 O2'        52.8540   64.0860    5.2180 O.3       1 ATP601      0.0000 
     21 C1'        53.8580   65.9600    6.3790 C.3       1 ATP601      0.0000 
     22 N9         53.6920   65.5820    7.8000 N.pl3     1 ATP601      0.0000 
     23 C8         52.5850   65.7410    8.5500 C.2       1 ATP601      0.0000 
     24 N7         52.7930   65.2680    9.8030 N.2       1 ATP601      0.0000 
     25 C5         54.0470   64.7920    9.8550 C.ar      1 ATP601      0.0000 
     26 C6         54.8960   64.1560   10.8790 C.ar      1 ATP601      0.0000 
     27 N6         54.3800   63.9510   12.1140 N.pl3     1 ATP601      0.0000 
     28 N1         56.1590   63.8030   10.5380 N.ar      1 ATP601      0.0000 
     29 C2         56.6510   64.0170    9.3020 C.ar      1 ATP601      0.0000 
     30 N3         55.9220   64.5930    8.3240 N.ar      1 ATP601      0.0000 
     31 C4         54.6400   64.9920    8.5330 C.ar      1 ATP601      0.0000 
     32 H5'1       52.1310   69.3690    4.3100 H         1 ATP601      0.0000 
     33 H5'2       51.2940   68.2340    5.3930 H         1 ATP601      0.0000 
     34 H4'        54.0760   68.0990    4.2390 H         1 ATP601      0.0000 
     35 H3'        51.7730   66.5600    3.9200 H         1 ATP601      0.0000 
     36 HO3'       53.3540   65.0920    2.9690 H         1 ATP601      0.0000 
     37 H2'        51.7530   65.6400    6.0720 H         1 ATP601      0.0000 
     38 HO2'       52.1460   63.8090    4.6220 H         1 ATP601      0.0000 
     39 H1'        54.7800   65.5050    5.9900 H         1 ATP601      0.0000 
     40 H8         51.6620   66.1890    8.2030 H         1 ATP601      0.0000 
     41 HN61       53.4320   64.2340   12.3190 H         1 ATP601      0.0000 
     42 HN62       54.9440   63.5180   12.8310 H         1 ATP601      0.0000 
     43 H2         57.6670   63.7130    9.0840 H         1 ATP601      0.0000 
@<TRIPOS>BOND
     1    1    2 ar   
     2    1    3 ar   
     3    1    4 ar   
     4    1    8 1    
     5    5    6 ar   
     6    5    7 ar   
     7    5    8 1    
     8    5   12 1    
     9    9   10 ar   
    10    9   11 ar   
    11    9   12 1    
    12    9   13 1    
    13   13   14 1    
    14   14   15 1    
    15   14   32 1    
    16   14   33 1    
    17   15   16 1    
    18   15   17 1    
    19   15   34 1    
    20   16   21 1    
    21   17   18 1    
    22   17   19 1    
    23   17   35 1    
    24   18   36 1    
    25   19   20 1    
    26   19   21 1    
    27   19   37 1    
    28   20   38 1    
    29   21   22 1    
    30   21   39 1    
    31   22   23 1    
    32   22   31 1    
    33   23   24 2    
    34   23   40 1    
    35   24   25 1    
    36   25   26 ar   
    37   25   31 ar   
    38   26   27 1    
    39   26   28 ar   
    40   27   41 1    
    41   27   42 1    
    42   28   29 ar   
    43   29   30 ar   
    44   29   43 1    
    45   30   31 ar   
@<TRIPOS>SUBSTRUCTURE
     1 ATP601      1 GROUP   
@<TRIPOS>SET
ATOM$ORANGE STATIC     ATOMS   COLORGROUP SYSTEM 
20 14 14 15 15 17 17 19 19 21 21 23 23 25 25 26 26 29 \
29 31 31 

