#    Name: 5oep_2_FAD
#    Modification time : Fri May 22 19:21:51 2020

@<TRIPOS>MOLECULE
5oep_2_FAD
   53    58     1     0     1
SMALL
NO_CHARGES


@<TRIPOS>ATOM
      1 PA          3.3020   -6.8650   41.3400 P.3       1 FAD501      0.0000 
      2 O1A         4.1950   -7.9130   41.8880 O.co2     1 FAD501      0.0000 
      3 O2A         1.8440   -6.8400   41.7490 O.co2     1 FAD501      0.0000 
      4 O5B         3.9740   -5.4220   41.5350 O.3       1 FAD501      0.0000 
      5 C5B         5.4060   -5.3060   41.4230 C.3       1 FAD501      0.0000 
      6 C4B         5.7930   -3.8240   41.4190 C.3       1 FAD501      0.0000 
      7 O4B         5.2680   -3.2220   40.2320 O.3       1 FAD501      0.0000 
      8 C3B         5.2110   -3.0010   42.5670 C.3       1 FAD501      0.0000 
      9 O3B         6.1930   -2.0230   42.8420 O.3       1 FAD501      0.0000 
     10 C2B         4.0020   -2.3340   41.9510 C.3       1 FAD501      0.0000 
     11 O2B         3.6290   -1.1100   42.5880 O.3       1 FAD501      0.0000 
     12 C1B         4.5080   -2.0940   40.5380 C.3       1 FAD501      0.0000 
     13 N9A         3.4010   -1.9780   39.6100 N.pl3     1 FAD501      0.0000 
     14 C8A         2.5680   -2.9560   39.2280 C.2       1 FAD501      0.0000 
     15 N7A         1.6260   -2.4610   38.3910 N.2       1 FAD501      0.0000 
     16 C5A         1.8630   -1.1500   38.2080 C.ar      1 FAD501      0.0000 
     17 C6A         1.2500   -0.0270   37.4310 C.ar      1 FAD501      0.0000 
     18 N6A         0.1710   -0.2530   36.6490 N.pl3     1 FAD501      0.0000 
     19 N1A         1.8040    1.2080   37.5220 N.ar      1 FAD501      0.0000 
     20 C2A         2.8830    1.4390   38.3080 C.ar      1 FAD501      0.0000 
     21 N3A         3.5020    0.4730   39.0310 N.ar      1 FAD501      0.0000 
     22 C4A         3.0440   -0.8240   39.0250 C.ar      1 FAD501      0.0000 
     23 N1         11.6000  -11.1330   37.4180 N.2       1 FAD501      0.0000 
     24 C2         12.5850  -10.9970   36.5240 C.2       1 FAD501      0.0000 
     25 O2         13.0230   -9.8410   36.3020 O.2       1 FAD501      0.0000 
     26 N3         13.0950  -12.0440   35.8380 N.am      1 FAD501      0.0000 
     27 C4         12.6320  -13.2880   36.0290 C.2       1 FAD501      0.0000 
     28 O4         13.0710  -14.2560   35.3870 O.2       1 FAD501      0.0000 
     29 C4X        11.5760  -13.5410   37.0290 C.2       1 FAD501      0.0000 
     30 N5         11.0760  -14.7680   37.2610 N.2       1 FAD501      0.0000 
     31 C5X        10.0840  -14.9520   38.1600 C.ar      1 FAD501      0.0000 
     32 C6          9.5730  -16.2450   38.3530 C.ar      1 FAD501      0.0000 
     33 C7          8.5460  -16.4350   39.2710 C.ar      1 FAD501      0.0000 
     34 C7M         8.0200  -17.8160   39.5310 C.3       1 FAD501      0.0000 
     35 C8          7.9720  -15.2710   40.0170 C.ar      1 FAD501      0.0000 
     36 C8M         6.8680  -15.4780   41.0340 C.3       1 FAD501      0.0000 
     37 C9          8.4770  -13.9930   39.8170 C.ar      1 FAD501      0.0000 
     38 C9A         9.5140  -13.7870   38.9010 C.ar      1 FAD501      0.0000 
     39 N10        10.0440  -12.5070   38.6710 N.pl3     1 FAD501      0.0000 
     40 C10        11.0770  -12.3470   37.7330 C.2       1 FAD501      0.0000 
     41 C1'         9.5620  -11.3070   39.3620 C.3       1 FAD501      0.0000 
     42 C2'         8.4590  -10.6830   38.5320 C.3       1 FAD501      0.0000 
     43 O2'         8.8470  -10.7220   37.1400 O.3       1 FAD501      0.0000 
     44 C3'         8.3480   -9.2470   38.9650 C.3       1 FAD501      0.0000 
     45 O3'         8.2300   -9.1920   40.4010 O.3       1 FAD501      0.0000 
     46 C4'         7.1580   -8.5820   38.2950 C.3       1 FAD501      0.0000 
     47 O4'         7.3220   -7.2080   38.6360 O.3       1 FAD501      0.0000 
     48 C5'         5.8130   -9.1060   38.8370 C.3       1 FAD501      0.0000 
     49 O5'         4.7590   -8.4380   38.1810 O.3       1 FAD501      0.0000 
     50 P           3.3220   -8.2430   38.8100 P.3       1 FAD501      0.0000 
     51 O1P         2.3950   -7.7090   37.7400 O.co2     1 FAD501      0.0000 
     52 O2P         2.8810   -9.4520   39.6250 O.co2     1 FAD501      0.0000 
     53 O3P         3.5080   -6.9500   39.7520 O.3       1 FAD501      0.0000 
@<TRIPOS>BOND
     1    1    2 ar   
     2    1    3 ar   
     3    1    4 1    
     4    1   53 1    
     5    4    5 1    
     6    5    6 1    
     7    6    7 1    
     8    6    8 1    
     9    7   12 1    
    10    8    9 1    
    11    8   10 1    
    12   10   11 1    
    13   10   12 1    
    14   12   13 1    
    15   13   14 1    
    16   13   22 1    
    17   14   15 2    
    18   15   16 1    
    19   16   17 ar   
    20   16   22 ar   
    21   17   18 1    
    22   17   19 ar   
    23   19   20 ar   
    24   20   21 ar   
    25   21   22 ar   
    26   23   24 1    
    27   23   40 2    
    28   24   25 2    
    29   24   26 am   
    30   26   27 am   
    31   27   28 2    
    32   27   29 1    
    33   29   30 2    
    34   29   40 1    
    35   30   31 1    
    36   31   32 ar   
    37   31   38 ar   
    38   32   33 ar   
    39   33   34 1    
    40   33   35 ar   
    41   35   36 1    
    42   35   37 ar   
    43   37   38 ar   
    44   38   39 1    
    45   39   40 1    
    46   39   41 1    
    47   41   42 1    
    48   42   43 1    
    49   42   44 1    
    50   44   45 1    
    51   44   46 1    
    52   46   47 1    
    53   46   48 1    
    54   48   49 1    
    55   49   50 1    
    56   50   51 ar   
    57   50   52 ar   
    58   50   53 1    
@<TRIPOS>SUBSTRUCTURE
     1 FAD501      1 GROUP   
@<TRIPOS>SET
ATOM$ORANGE STATIC     ATOMS   COLORGROUP SYSTEM 
54 5 5 6 6 8 8 10 10 12 12 14 14 16 16 17 17 20 \
20 22 22 24 24 27 27 29 29 31 31 32 32 33 33 34 34 35 \
35 36 36 37 37 38 38 40 40 41 41 42 42 44 44 46 46 48 \
48 

