#    Name: 5oep_3_FAD
#    Modification time : Fri May 22 19:21:56 2020

@<TRIPOS>MOLECULE
5oep_3_FAD
   53    58     1     0     1
SMALL
NO_CHARGES


@<TRIPOS>ATOM
      1 PA        -12.3080  -19.2130   -4.2020 P.3       1 FAD501      0.0000 
      2 O1A       -13.4130  -20.2180   -4.0990 O.co2     1 FAD501      0.0000 
      3 O2A       -10.9280  -19.6710   -4.5280 O.co2     1 FAD501      0.0000 
      4 O5B       -12.6300  -18.0490   -5.2370 O.3       1 FAD501      0.0000 
      5 C5B       -14.0020  -17.6520   -5.3790 C.3       1 FAD501      0.0000 
      6 C4B       -14.1190  -16.3340   -6.1170 C.3       1 FAD501      0.0000 
      7 O4B       -13.4680  -15.2920   -5.3860 O.3       1 FAD501      0.0000 
      8 C3B       -13.4680  -16.3930   -7.4780 C.3       1 FAD501      0.0000 
      9 O3B       -14.2400  -15.5570   -8.3120 O.3       1 FAD501      0.0000 
     10 C2B       -12.1550  -15.6730   -7.2580 C.3       1 FAD501      0.0000 
     11 O2B       -11.6550  -15.0610   -8.4430 O.3       1 FAD501      0.0000 
     12 C1B       -12.5250  -14.6310   -6.2340 C.3       1 FAD501      0.0000 
     13 N9A       -11.3540  -14.1940   -5.4690 N.pl3     1 FAD501      0.0000 
     14 C8A       -10.7240  -14.8980   -4.4940 C.2       1 FAD501      0.0000 
     15 N7A        -9.6780  -14.2040   -3.9930 N.2       1 FAD501      0.0000 
     16 C5A        -9.6190  -13.0270   -4.6220 C.ar      1 FAD501      0.0000 
     17 C6A        -8.7590  -11.8240   -4.5750 C.ar      1 FAD501      0.0000 
     18 N6A        -7.7270  -11.7320   -3.7240 N.pl3     1 FAD501      0.0000 
     19 N1A        -9.0140  -10.8030   -5.4160 N.ar      1 FAD501      0.0000 
     20 C2A       -10.0480  -10.8590   -6.3110 C.ar      1 FAD501      0.0000 
     21 N3A       -10.8710  -11.9210   -6.4090 N.ar      1 FAD501      0.0000 
     22 C4A       -10.7240  -13.0190   -5.6070 C.ar      1 FAD501      0.0000 
     23 N1        -21.0910  -18.9590    0.9480 N.2       1 FAD501      0.0000 
     24 C2        -21.9740  -18.1430    1.5780 C.2       1 FAD501      0.0000 
     25 O2        -22.1930  -17.0110    1.0890 O.2       1 FAD501      0.0000 
     26 N3        -22.6060  -18.5190    2.7180 N.am      1 FAD501      0.0000 
     27 C4        -22.3940  -19.7270    3.2900 C.2       1 FAD501      0.0000 
     28 O4        -22.9560  -20.0790    4.3600 O.2       1 FAD501      0.0000 
     29 C4X       -21.4490  -20.6600    2.6510 C.2       1 FAD501      0.0000 
     30 N5        -21.1990  -21.8780    3.1740 N.2       1 FAD501      0.0000 
     31 C5X       -20.3090  -22.7300    2.5720 C.ar      1 FAD501      0.0000 
     32 C6        -20.0580  -23.9900    3.1470 C.ar      1 FAD501      0.0000 
     33 C7        -19.1490  -24.8650    2.5460 C.ar      1 FAD501      0.0000 
     34 C7M       -18.9060  -26.2140    3.1830 C.3       1 FAD501      0.0000 
     35 C8        -18.4230  -24.4560    1.2920 C.ar      1 FAD501      0.0000 
     36 C8M       -17.4440  -25.3940    0.6070 C.3       1 FAD501      0.0000 
     37 C9        -18.6780  -23.2010    0.7230 C.ar      1 FAD501      0.0000 
     38 C9A       -19.5930  -22.3110    1.3120 C.ar      1 FAD501      0.0000 
     39 N10       -19.8770  -21.0210    0.7540 N.pl3     1 FAD501      0.0000 
     40 C10       -20.8020  -20.1920    1.4070 C.2       1 FAD501      0.0000 
     41 C1'       -19.2350  -20.5210   -0.4760 C.3       1 FAD501      0.0000 
     42 C2'       -17.9680  -19.7780   -0.0980 C.3       1 FAD501      0.0000 
     43 O2'       -18.2740  -18.9880    1.0680 O.3       1 FAD501      0.0000 
     44 C3'       -17.5540  -18.8490   -1.2180 C.3       1 FAD501      0.0000 
     45 O3'       -17.4670  -19.5710   -2.4470 O.3       1 FAD501      0.0000 
     46 C4'       -16.2120  -18.1720   -0.9720 C.3       1 FAD501      0.0000 
     47 O4'       -16.1120  -17.1550   -1.9810 O.3       1 FAD501      0.0000 
     48 C5'       -15.0230  -19.1230   -1.1050 C.3       1 FAD501      0.0000 
     49 O5'       -13.8580  -18.3760   -0.7930 O.3       1 FAD501      0.0000 
     50 P         -12.4350  -18.8590   -1.3360 P.3       1 FAD501      0.0000 
     51 O1P       -11.3670  -18.0690   -0.6510 O.co2     1 FAD501      0.0000 
     52 O2P       -12.2730  -20.3670   -1.3330 O.co2     1 FAD501      0.0000 
     53 O3P       -12.4410  -18.2970   -2.8730 O.3       1 FAD501      0.0000 
@<TRIPOS>BOND
     1    1    2 ar   
     2    1    3 ar   
     3    1    4 1    
     4    1   53 1    
     5    4    5 1    
     6    5    6 1    
     7    6    7 1    
     8    6    8 1    
     9    7   12 1    
    10    8    9 1    
    11    8   10 1    
    12   10   11 1    
    13   10   12 1    
    14   12   13 1    
    15   13   14 1    
    16   13   22 1    
    17   14   15 2    
    18   15   16 1    
    19   16   17 ar   
    20   16   22 ar   
    21   17   18 1    
    22   17   19 ar   
    23   19   20 ar   
    24   20   21 ar   
    25   21   22 ar   
    26   23   24 1    
    27   23   40 2    
    28   24   25 2    
    29   24   26 am   
    30   26   27 am   
    31   27   28 2    
    32   27   29 1    
    33   29   30 2    
    34   29   40 1    
    35   30   31 1    
    36   31   32 ar   
    37   31   38 ar   
    38   32   33 ar   
    39   33   34 1    
    40   33   35 ar   
    41   35   36 1    
    42   35   37 ar   
    43   37   38 ar   
    44   38   39 1    
    45   39   40 1    
    46   39   41 1    
    47   41   42 1    
    48   42   43 1    
    49   42   44 1    
    50   44   45 1    
    51   44   46 1    
    52   46   47 1    
    53   46   48 1    
    54   48   49 1    
    55   49   50 1    
    56   50   51 ar   
    57   50   52 ar   
    58   50   53 1    
@<TRIPOS>SUBSTRUCTURE
     1 FAD501      1 GROUP   
@<TRIPOS>SET
ATOM$ORANGE STATIC     ATOMS   COLORGROUP SYSTEM 
54 5 5 6 6 8 8 10 10 12 12 14 14 16 16 17 17 20 \
20 22 22 24 24 27 27 29 29 31 31 32 32 33 33 34 34 35 \
35 36 36 37 37 38 38 40 40 41 41 42 42 44 44 46 46 48 \
48 

