#    Name: 5zx5_5_Y01
#    Modification time : Fri May 22 19:28:41 2020

@<TRIPOS>MOLECULE
5zx5_5_Y01
   35    38     1     0     0
SMALL
NO_CHARGES


@<TRIPOS>ATOM
      1 CAA       185.8170  170.0340  174.8830 C.3       1 Y011305     0.0000 
      2 CBA       184.5700  170.2220  175.7480 C.3       1 Y011305     0.0000 
      3 CAB       184.6290  171.5740  176.4540 C.3       1 Y011305     0.0000 
      4 CAN       184.4940  169.1090  176.7880 C.3       1 Y011305     0.0000 
      5 CAJ       185.6450  169.2600  177.7770 C.3       1 Y011305     0.0000 
      6 CAO       185.0880  169.3670  179.1950 C.3       1 Y011305     0.0000 
      7 CBB       184.4590  170.7340  179.3630 C.3       1 Y011305     0.0000 
      8 CAC       183.0890  170.6990  178.6930 C.3       1 Y011305     0.0000 
      9 CBE       184.3580  171.0870  180.8620 C.3       1 Y011305     0.0000 
     10 CAP       183.3910  172.2730  181.0470 C.3       1 Y011305     0.0000 
     11 CAQ       182.2200  171.6890  181.8060 C.3       1 Y011305     0.0000 
     12 CBG       182.9800  170.8200  182.7310 C.3       1 Y011305     0.0000 
     13 CBI       183.7550  169.9850  181.7520 C.3       1 Y011305     0.0000 
     14 CAE       182.8820  168.9890  180.9660 C.3       1 Y011305     0.0000 
     15 CAU       184.7720  169.2420  182.5820 C.3       1 Y011305     0.0000 
     16 CAS       184.0570  168.3310  183.6130 C.3       1 Y011305     0.0000 
     17 CBF       182.9920  169.0870  184.4490 C.3       1 Y011305     0.0000 
     18 CBD       182.1010  169.9180  183.5360 C.3       1 Y011305     0.0000 
     19 CAK       181.1400  170.7030  184.4130 C.3       1 Y011305     0.0000 
     20 CAI       180.3770  169.8650  185.2460 C.2       1 Y011305     0.0000 
     21 CAZ       180.8490  168.6370  185.7220 C.2       1 Y011305     0.0000 
     22 CAV       180.0240  167.8660  186.5390 C.3       1 Y011305     0.0000 
     23 CBH       182.1220  168.1320  185.3680 C.3       1 Y011305     0.0000 
     24 CAD       181.8930  166.8030  184.6540 C.3       1 Y011305     0.0000 
     25 CAT       182.8990  167.8720  186.6390 C.3       1 Y011305     0.0000 
     26 CAR       182.1580  166.8470  187.4980 C.3       1 Y011305     0.0000 
     27 CBC       180.7380  167.3690  187.7980 C.3       1 Y011305     0.0000 
     28 OAW       179.9410  166.3210  188.3770 O.3       1 Y011305     0.0000 
     29 CAY       180.3560  166.0520  189.6430 C.2       1 Y011305     0.0000 
     30 OAG       181.5340  165.9950  189.9860 O.2       1 Y011305     0.0000 
     31 CAM       179.2410  165.8130  190.6580 C.3       1 Y011305     0.0000 
     32 CAL       178.6530  164.4180  190.4520 C.3       1 Y011305     0.0000 
     33 CAX       178.2180  163.8460  191.7970 C.2       1 Y011305     0.0000 
     34 OAH       179.0830  163.8120  192.6960 O.co2     1 Y011305     0.0000 
     35 OAF       177.0360  163.4550  191.8970 O.co2     1 Y011305     0.0000 
@<TRIPOS>BOND
     1    1    2 1    
     2    2    3 1    
     3    2    4 1    
     4    4    5 1    
     5    5    6 1    
     6    6    7 1    
     7    7    8 1    
     8    7    9 1    
     9    9   10 1    
    10    9   13 1    
    11   10   11 1    
    12   11   12 1    
    13   12   13 1    
    14   12   18 1    
    15   13   14 1    
    16   13   15 1    
    17   15   16 1    
    18   16   17 1    
    19   17   18 1    
    20   17   23 1    
    21   18   19 1    
    22   19   20 1    
    23   20   21 2    
    24   21   22 1    
    25   21   23 1    
    26   22   27 1    
    27   23   24 1    
    28   23   25 1    
    29   25   26 1    
    30   26   27 1    
    31   27   28 1    
    32   28   29 1    
    33   29   30 2    
    34   29   31 1    
    35   31   32 1    
    36   32   33 1    
    37   33   34 ar   
    38   33   35 ar   
@<TRIPOS>SUBSTRUCTURE
     1 Y011305     1 GROUP   
@<TRIPOS>SET

