#    Name: 5zx5_11_Y01
#    Modification time : Fri May 22 19:30:39 2020

@<TRIPOS>MOLECULE
5zx5_11_Y01
   35    38     1     0     0
SMALL
NO_CHARGES


@<TRIPOS>ATOM
      1 CAA       169.9320  133.7160  189.8360 C.3       1 Y011302     0.0000 
      2 CBA       170.9790  132.6280  189.9810 C.3       1 Y011302     0.0000 
      3 CAB       170.2820  131.2730  189.8310 C.3       1 Y011302     0.0000 
      4 CAN       171.7330  132.8200  191.3020 C.3       1 Y011302     0.0000 
      5 CAJ       171.2850  131.8580  192.3880 C.3       1 Y011302     0.0000 
      6 CAO       170.1930  132.4470  193.2620 C.3       1 Y011302     0.0000 
      7 CBB       170.8560  132.7520  194.5860 C.3       1 Y011302     0.0000 
      8 CAC       171.1250  134.2230  194.5780 C.3       1 Y011302     0.0000 
      9 CBE       169.9980  132.6330  195.8280 C.3       1 Y011302     0.0000 
     10 CAP       168.5080  132.7490  195.5440 C.3       1 Y011302     0.0000 
     11 CAQ       167.9440  132.2000  196.8410 C.3       1 Y011302     0.0000 
     12 CBG       169.2160  131.8260  197.6310 C.3       1 Y011302     0.0000 
     13 CBI       170.1270  131.3390  196.5990 C.3       1 Y011302     0.0000 
     14 CAE       169.6170  130.0700  195.8770 C.3       1 Y011302     0.0000 
     15 CAU       171.4730  131.0780  197.2450 C.3       1 Y011302     0.0000 
     16 CAS       171.3530  130.0400  198.3770 C.3       1 Y011302     0.0000 
     17 CBF       170.2850  130.4690  199.4030 C.3       1 Y011302     0.0000 
     18 CBD       169.0090  130.7460  198.6560 C.3       1 Y011302     0.0000 
     19 CAK       168.1120  131.3470  199.6160 C.3       1 Y011302     0.0000 
     20 CAI       167.8490  130.5620  200.7030 C.2       1 Y011302     0.0000 
     21 CAZ       168.7530  129.6170  201.1340 C.2       1 Y011302     0.0000 
     22 CAV       168.3440  128.9400  202.2710 C.3       1 Y011302     0.0000 
     23 CBH       169.9560  129.3610  200.4520 C.3       1 Y011302     0.0000 
     24 CAD       169.8350  128.0210  199.6920 C.3       1 Y011302     0.0000 
     25 CAT       171.0790  129.2810  201.4600 C.3       1 Y011302     0.0000 
     26 CAR       170.6570  129.4200  202.9560 C.3       1 Y011302     0.0000 
     27 CBC       169.4380  128.5690  203.2590 C.3       1 Y011302     0.0000 
     28 OAW       169.7310  127.1690  203.1740 O.3       1 Y011302     0.0000 
     29 CAY       169.0000  126.4670  204.1000 C.2       1 Y011302     0.0000 
     30 OAG       167.8880  126.7710  204.5210 O.2       1 Y011302     0.0000 
     31 CAM       169.6590  125.2120  204.6460 C.3       1 Y011302     0.0000 
     32 CAL       169.7490  125.3470  206.1680 C.3       1 Y011302     0.0000 
     33 CAX       168.5960  124.6230  206.8680 C.2       1 Y011302     0.0000 
     34 OAH       168.8220  124.1780  208.0130 O.co2     1 Y011302     0.0000 
     35 OAF       167.5210  124.5150  206.2430 O.co2     1 Y011302     0.0000 
@<TRIPOS>BOND
     1    1    2 1    
     2    2    3 1    
     3    2    4 1    
     4    4    5 1    
     5    5    6 1    
     6    6    7 1    
     7    7    8 1    
     8    7    9 1    
     9    9   10 1    
    10    9   13 1    
    11   10   11 1    
    12   11   12 1    
    13   12   13 1    
    14   12   18 1    
    15   13   14 1    
    16   13   15 1    
    17   15   16 1    
    18   16   17 1    
    19   17   18 1    
    20   17   23 1    
    21   18   19 1    
    22   19   20 1    
    23   20   21 2    
    24   21   22 1    
    25   21   23 1    
    26   22   27 1    
    27   23   24 1    
    28   23   25 1    
    29   25   26 1    
    30   26   27 1    
    31   27   28 1    
    32   28   29 1    
    33   29   30 2    
    34   29   31 1    
    35   31   32 1    
    36   32   33 1    
    37   33   34 ar   
    38   33   35 ar   
@<TRIPOS>SUBSTRUCTURE
     1 Y011302     1 GROUP   
@<TRIPOS>SET

