#    Name: 5zx5_8_Y01
#    Modification time : Fri May 22 19:29:40 2020

@<TRIPOS>MOLECULE
5zx5_8_Y01
   35    38     1     0     0
SMALL
NO_CHARGES


@<TRIPOS>ATOM
      1 CAA       133.6480  144.9570  189.8470 C.3       1 Y011301     0.0000 
      2 CBA       132.5660  143.9090  190.0030 C.3       1 Y011301     0.0000 
      3 CAB       131.2110  144.6120  189.8790 C.3       1 Y011301     0.0000 
      4 CAN       132.7870  143.1430  191.3130 C.3       1 Y011301     0.0000 
      5 CAJ       131.8330  143.5640  192.4150 C.3       1 Y011301     0.0000 
      6 CAO       132.3990  144.6820  193.2770 C.3       1 Y011301     0.0000 
      7 CBB       132.7370  144.0370  194.5960 C.3       1 Y011301     0.0000 
      8 CAC       134.2120  143.8030  194.5640 C.3       1 Y011301     0.0000 
      9 CBE       132.6250  144.8990  195.8340 C.3       1 Y011301     0.0000 
     10 CAP       132.7520  146.3860  195.5500 C.3       1 Y011301     0.0000 
     11 CAQ       132.2290  146.9490  196.8610 C.3       1 Y011301     0.0000 
     12 CBG       131.8460  145.6750  197.6430 C.3       1 Y011301     0.0000 
     13 CBI       131.3330  144.7800  196.6080 C.3       1 Y011301     0.0000 
     14 CAE       130.0610  145.3170  195.9050 C.3       1 Y011301     0.0000 
     15 CAU       131.0620  143.4300  197.2420 C.3       1 Y011301     0.0000 
     16 CAS       130.0390  143.5540  198.3840 C.3       1 Y011301     0.0000 
     17 CBF       130.4820  144.6110  199.4150 C.3       1 Y011301     0.0000 
     18 CBD       130.7820  145.8890  198.6770 C.3       1 Y011301     0.0000 
     19 CAK       131.4030  146.7620  199.6510 C.3       1 Y011301     0.0000 
     20 CAI       130.5880  147.0480  200.7150 C.2       1 Y011301     0.0000 
     21 CAZ       129.6200  146.1580  201.1300 C.2       1 Y011301     0.0000 
     22 CAV       128.8960  146.5700  202.2390 C.3       1 Y011301     0.0000 
     23 CBH       129.3690  144.9530  200.4520 C.3       1 Y011301     0.0000 
     24 CAD       128.0380  145.0920  199.6840 C.3       1 Y011301     0.0000 
     25 CAT       129.2630  143.8340  201.4610 C.3       1 Y011301     0.0000 
     26 CAR       129.4330  144.2690  202.9500 C.3       1 Y011301     0.0000 
     27 CBC       128.5760  145.4850  203.2550 C.3       1 Y011301     0.0000 
     28 OAW       127.1840  145.1660  203.2070 O.3       1 Y011301     0.0000 
     29 CAY       126.4770  145.9140  204.1110 C.2       1 Y011301     0.0000 
     30 OAG       126.8450  146.9700  204.6190 O.2       1 Y011301     0.0000 
     31 CAM       125.1340  145.3390  204.5280 C.3       1 Y011301     0.0000 
     32 CAL       125.1570  145.1290  206.0440 C.3       1 Y011301     0.0000 
     33 CAX       124.5750  146.3250  206.8050 C.2       1 Y011301     0.0000 
     34 OAH       124.1990  146.1150  207.9780 O.co2     1 Y011301     0.0000 
     35 OAF       124.4940  147.4140  206.1990 O.co2     1 Y011301     0.0000 
@<TRIPOS>BOND
     1    1    2 1    
     2    2    3 1    
     3    2    4 1    
     4    4    5 1    
     5    5    6 1    
     6    6    7 1    
     7    7    8 1    
     8    7    9 1    
     9    9   10 1    
    10    9   13 1    
    11   10   11 1    
    12   11   12 1    
    13   12   13 1    
    14   12   18 1    
    15   13   14 1    
    16   13   15 1    
    17   15   16 1    
    18   16   17 1    
    19   17   18 1    
    20   17   23 1    
    21   18   19 1    
    22   19   20 1    
    23   20   21 2    
    24   21   22 1    
    25   21   23 1    
    26   22   27 1    
    27   23   24 1    
    28   23   25 1    
    29   25   26 1    
    30   26   27 1    
    31   27   28 1    
    32   28   29 1    
    33   29   30 2    
    34   29   31 1    
    35   31   32 1    
    36   32   33 1    
    37   33   34 ar   
    38   33   35 ar   
@<TRIPOS>SUBSTRUCTURE
     1 Y011301     1 GROUP   
@<TRIPOS>SET

