#    Name: 5zx5_6_Y01
#    Modification time : Fri May 22 19:28:57 2020

@<TRIPOS>MOLECULE
5zx5_6_Y01
   35    38     1     0     0
SMALL
NO_CHARGES


@<TRIPOS>ATOM
      1 CAA       147.4950  140.8030  193.2320 C.3       1 Y011301     0.0000 
      2 CBA       146.6430  139.7130  192.7040 C.3       1 Y011301     0.0000 
      3 CAB       147.5170  138.5060  192.4500 C.3       1 Y011301     0.0000 
      4 CAN       146.0240  140.1820  191.4040 C.3       1 Y011301     0.0000 
      5 CAJ       147.0540  140.3990  190.3180 C.3       1 Y011301     0.0000 
      6 CAO       146.3200  140.3700  188.9920 C.3       1 Y011301     0.0000 
      7 CBB       147.0360  139.5000  187.9420 C.3       1 Y011301     0.0000 
      8 CAC       147.3330  138.1340  188.5750 C.3       1 Y011301     0.0000 
      9 CBE       146.1590  139.4280  186.6600 C.3       1 Y011301     0.0000 
     10 CAP       145.7750  140.8660  186.2640 C.3       1 Y011301     0.0000 
     11 CAQ       145.7480  140.9230  184.7520 C.3       1 Y011301     0.0000 
     12 CBG       145.7920  139.4650  184.4080 C.3       1 Y011301     0.0000 
     13 CBI       146.8260  138.9210  185.3650 C.3       1 Y011301     0.0000 
     14 CAE       148.2080  139.5530  185.1830 C.3       1 Y011301     0.0000 
     15 CAU       146.8750  137.3940  185.1220 C.3       1 Y011301     0.0000 
     16 CAS       147.2440  137.0770  183.6650 C.3       1 Y011301     0.0000 
     17 CBF       146.2330  137.7310  182.6990 C.3       1 Y011301     0.0000 
     18 CBD       146.1850  139.2190  182.9570 C.3       1 Y011301     0.0000 
     19 CAK       145.1110  139.8050  182.0930 C.3       1 Y011301     0.0000 
     20 CAI       145.1590  139.4020  180.7700 C.2       1 Y011301     0.0000 
     21 CAZ       145.8310  138.2660  180.3540 C.2       1 Y011301     0.0000 
     22 CAV       145.7510  137.9940  178.9860 C.3       1 Y011301     0.0000 
     23 CBH       146.6400  137.5070  181.2380 C.3       1 Y011301     0.0000 
     24 CAD       148.1130  137.9230  181.0650 C.3       1 Y011301     0.0000 
     25 CAT       146.5210  136.0280  180.9350 C.3       1 Y011301     0.0000 
     26 CAR       146.7500  135.8010  179.4610 C.3       1 Y011301     0.0000 
     27 CBC       145.6540  136.5080  178.6990 C.3       1 Y011301     0.0000 
     28 OAW       145.8880  136.2720  177.3250 O.3       1 Y011301     0.0000 
     29 CAY       144.8260  136.4520  176.5130 C.2       1 Y011301     0.0000 
     30 OAG       143.6640  136.6060  176.8770 O.2       1 Y011301     0.0000 
     31 CAM       145.1920  136.4060  175.0460 C.3       1 Y011301     0.0000 
     32 CAL       146.6330  136.8820  174.8880 C.3       1 Y011301     0.0000 
     33 CAX       147.3380  135.9560  173.9090 C.2       1 Y011301     0.0000 
     34 OAH       146.6310  135.4280  173.0240 O.co2     1 Y011301     0.0000 
     35 OAF       148.5660  135.7900  174.0710 O.co2     1 Y011301     0.0000 
@<TRIPOS>BOND
     1    1    2 1    
     2    2    3 1    
     3    2    4 1    
     4    4    5 1    
     5    5    6 1    
     6    6    7 1    
     7    7    8 1    
     8    7    9 1    
     9    9   10 1    
    10    9   13 1    
    11   10   11 1    
    12   11   12 1    
    13   12   13 1    
    14   12   18 1    
    15   13   14 1    
    16   13   15 1    
    17   15   16 1    
    18   16   17 1    
    19   17   18 1    
    20   17   23 1    
    21   18   19 1    
    22   19   20 1    
    23   20   21 2    
    24   21   22 1    
    25   21   23 1    
    26   22   27 1    
    27   23   24 1    
    28   23   25 1    
    29   25   26 1    
    30   26   27 1    
    31   27   28 1    
    32   28   29 1    
    33   29   30 2    
    34   29   31 1    
    35   31   32 1    
    36   32   33 1    
    37   33   34 ar   
    38   33   35 ar   
@<TRIPOS>SUBSTRUCTURE
     1 Y011301     1 GROUP   
@<TRIPOS>SET

