#    Name: 5zx5_10_Y01
#    Modification time : Fri May 22 19:30:20 2020

@<TRIPOS>MOLECULE
5zx5_10_Y01
   35    38     1     0     0
SMALL
NO_CHARGES


@<TRIPOS>ATOM
      1 CAA       176.2360  147.8860  191.9740 C.3       1 Y011301     0.0000 
      2 CBA       174.8460  147.3700  192.2390 C.3       1 Y011301     0.0000 
      3 CAB       174.8770  146.7480  193.6060 C.3       1 Y011301     0.0000 
      4 CAN       174.5130  146.3390  191.1920 C.3       1 Y011301     0.0000 
      5 CAJ       174.3610  147.0770  189.8990 C.3       1 Y011301     0.0000 
      6 CAO       174.6980  146.1540  188.7510 C.3       1 Y011301     0.0000 
      7 CBB       175.4350  146.9380  187.6590 C.3       1 Y011301     0.0000 
      8 CAC       176.7880  147.3070  188.2670 C.3       1 Y011301     0.0000 
      9 CBE       175.4770  146.0990  186.3510 C.3       1 Y011301     0.0000 
     10 CAP       174.0230  145.8410  185.9550 C.3       1 Y011301     0.0000 
     11 CAQ       173.9760  145.7980  184.4360 C.3       1 Y011301     0.0000 
     12 CBG       175.4330  145.7530  184.0990 C.3       1 Y011301     0.0000 
     13 CBI       176.0280  146.7620  185.0620 C.3       1 Y011301     0.0000 
     14 CAE       175.4780  148.1870  184.8720 C.3       1 Y011301     0.0000 
     15 CAU       177.5520  146.7170  184.8390 C.3       1 Y011301     0.0000 
     16 CAS       177.9000  147.0630  183.3940 C.3       1 Y011301     0.0000 
     17 CBF       177.1960  146.0960  182.4110 C.3       1 Y011301     0.0000 
     18 CBD       175.7080  146.1160  182.6490 C.3       1 Y011301     0.0000 
     19 CAK       175.0790  145.0680  181.7660 C.3       1 Y011301     0.0000 
     20 CAI       175.5020  145.1230  180.4460 C.2       1 Y011301     0.0000 
     21 CAZ       176.6650  145.7710  180.0560 C.2       1 Y011301     0.0000 
     22 CAV       176.9640  145.7130  178.6900 C.3       1 Y011301     0.0000 
     23 CBH       177.4350  146.5360  180.9720 C.3       1 Y011301     0.0000 
     24 CAD       177.0610  148.0290  180.8520 C.3       1 Y011301     0.0000 
     25 CAT       178.9120  146.3890  180.6870 C.3       1 Y011301     0.0000 
     26 CAR       179.1550  146.6880  179.2380 C.3       1 Y011301     0.0000 
     27 CBC       178.4550  145.6360  178.4170 C.3       1 Y011301     0.0000 
     28 OAW       178.7050  145.9660  177.0700 O.3       1 Y011301     0.0000 
     29 CAY       178.4560  144.9910  176.1780 C.2       1 Y011301     0.0000 
     30 OAG       178.3890  143.7930  176.4390 O.2       1 Y011301     0.0000 
     31 CAM       178.3320  145.5040  174.7520 C.3       1 Y011301     0.0000 
     32 CAL       178.0190  146.9980  174.7580 C.3       1 Y011301     0.0000 
     33 CAX       179.1190  147.7210  173.9910 C.2       1 Y011301     0.0000 
     34 OAH       179.7220  147.0570  173.1200 O.co2     1 Y011301     0.0000 
     35 OAF       179.3410  148.9140  174.2950 O.co2     1 Y011301     0.0000 
@<TRIPOS>BOND
     1    1    2 1    
     2    2    3 1    
     3    2    4 1    
     4    4    5 1    
     5    5    6 1    
     6    6    7 1    
     7    7    8 1    
     8    7    9 1    
     9    9   10 1    
    10    9   13 1    
    11   10   11 1    
    12   11   12 1    
    13   12   13 1    
    14   12   18 1    
    15   13   14 1    
    16   13   15 1    
    17   15   16 1    
    18   16   17 1    
    19   17   18 1    
    20   17   23 1    
    21   18   19 1    
    22   19   20 1    
    23   20   21 2    
    24   21   22 1    
    25   21   23 1    
    26   22   27 1    
    27   23   24 1    
    28   23   25 1    
    29   25   26 1    
    30   26   27 1    
    31   27   28 1    
    32   28   29 1    
    33   29   30 2    
    34   29   31 1    
    35   31   32 1    
    36   32   33 1    
    37   33   34 ar   
    38   33   35 ar   
@<TRIPOS>SUBSTRUCTURE
     1 Y011301     1 GROUP   
@<TRIPOS>SET

