#    Name: 5zx5_2_Y01
#    Modification time : Fri May 22 19:28:15 2020

@<TRIPOS>MOLECULE
5zx5_2_Y01
   35    38     1     0     0
SMALL
NO_CHARGES


@<TRIPOS>ATOM
      1 CAA       167.2640  176.2900  192.2080 C.3       1 Y011302     0.0000 
      2 CBA       167.5710  174.8200  192.1430 C.3       1 Y011302     0.0000 
      3 CAB       168.2190  174.5330  193.4520 C.3       1 Y011302     0.0000 
      4 CAN       168.5730  174.5730  191.0470 C.3       1 Y011302     0.0000 
      5 CAJ       167.8300  174.3320  189.7750 C.3       1 Y011302     0.0000 
      6 CAO       168.7430  174.6890  188.6260 C.3       1 Y011302     0.0000 
      7 CBB       167.9510  175.4220  187.5430 C.3       1 Y011302     0.0000 
      8 CAC       167.5660  176.7720  188.1550 C.3       1 Y011302     0.0000 
      9 CBE       168.8050  175.4520  186.2450 C.3       1 Y011302     0.0000 
     10 CAP       169.0070  173.9920  185.8290 C.3       1 Y011302     0.0000 
     11 CAQ       169.1080  173.9750  184.3090 C.3       1 Y011302     0.0000 
     12 CBG       169.2060  175.4390  184.0050 C.3       1 Y011302     0.0000 
     13 CBI       168.1900  176.0440  184.9600 C.3       1 Y011302     0.0000 
     14 CAE       166.7500  175.5420  184.7290 C.3       1 Y011302     0.0000 
     15 CAU       168.3000  177.5690  184.7730 C.3       1 Y011302     0.0000 
     16 CAS       167.9760  177.9540  183.3390 C.3       1 Y011302     0.0000 
     17 CBF       168.9220  177.2430  182.3370 C.3       1 Y011302     0.0000 
     18 CBD       168.8940  175.7560  182.5520 C.3       1 Y011302     0.0000 
     19 CAK       169.9750  175.1650  181.6760 C.3       1 Y011302     0.0000 
     20 CAI       169.8640  175.5710  180.3450 C.2       1 Y011302     0.0000 
     21 CAZ       169.1810  176.7190  179.9610 C.2       1 Y011302     0.0000 
     22 CAV       169.1690  177.0170  178.5820 C.3       1 Y011302     0.0000 
     23 CBH       168.4500  177.4870  180.9080 C.3       1 Y011302     0.0000 
     24 CAD       166.9490  177.1170  180.8430 C.3       1 Y011302     0.0000 
     25 CAT       168.6090  178.9570  180.6240 C.3       1 Y011302     0.0000 
     26 CAR       168.2000  179.2070  179.2050 C.3       1 Y011302     0.0000 
     27 CBC       169.1740  178.5170  178.2850 C.3       1 Y011302     0.0000 
     28 OAW       168.6810  178.7590  176.9780 O.3       1 Y011302     0.0000 
     29 CAY       169.4980  178.4040  175.9700 C.2       1 Y011302     0.0000 
     30 OAG       170.7240  178.4550  176.0200 O.2       1 Y011302     0.0000 
     31 CAM       168.7480  177.9800  174.7070 C.3       1 Y011302     0.0000 
     32 CAL       168.1470  179.2050  174.0170 C.3       1 Y011302     0.0000 
     33 CAX       169.1020  179.7010  172.9290 C.2       1 Y011302     0.0000 
     34 OAH       169.7760  178.8380  172.3350 O.co2     1 Y011302     0.0000 
     35 OAF       169.1390  180.9300  172.7120 O.co2     1 Y011302     0.0000 
@<TRIPOS>BOND
     1    1    2 1    
     2    2    3 1    
     3    2    4 1    
     4    4    5 1    
     5    5    6 1    
     6    6    7 1    
     7    7    8 1    
     8    7    9 1    
     9    9   10 1    
    10    9   13 1    
    11   10   11 1    
    12   11   12 1    
    13   12   13 1    
    14   12   18 1    
    15   13   14 1    
    16   13   15 1    
    17   15   16 1    
    18   16   17 1    
    19   17   18 1    
    20   17   23 1    
    21   18   19 1    
    22   19   20 1    
    23   20   21 2    
    24   21   22 1    
    25   21   23 1    
    26   22   27 1    
    27   23   24 1    
    28   23   25 1    
    29   25   26 1    
    30   26   27 1    
    31   27   28 1    
    32   28   29 1    
    33   29   30 2    
    34   29   31 1    
    35   31   32 1    
    36   32   33 1    
    37   33   34 ar   
    38   33   35 ar   
@<TRIPOS>SUBSTRUCTURE
     1 Y011302     1 GROUP   
@<TRIPOS>SET

