#    Name: 5zx5_11_Y01_CAVITY_N1_4
#    Modification time : Fri May 22 19:30:41 2020

@<TRIPOS>MOLECULE
5zx5_11_Y01_CAVITY_N1_4
   69     0     5     0     0
SMALL
NO_CHARGES


@<TRIPOS>ATOM
      1 OG        171.1100  131.9300  196.7600 O.3       1 SER1        0.0000 
      2 OG        171.0300  130.7400  197.6600 O.3       1 SER1        0.0000 
      3 OG        171.7700  131.4900  198.7200 O.3       1 SER1        0.0000 
      4 N         172.3200  130.2300  197.1000 N.am      2 ALA2        0.0000 
      5 N         172.2400  129.0300  198.0000 N.am      2 ALA2        0.0000 
      6 N         173.4500  127.3300  198.3500 N.am      2 ALA2        0.0000 
      7 N         172.1500  127.8400  198.9000 N.am      2 ALA2        0.0000 
      8 O         169.1800  132.5000  199.8300 O.2       2 ALA2        0.0000 
      9 O         167.8800  133.0100  200.3800 O.2       2 ALA2        0.0000 
     10 N         172.9900  129.7800  199.0700 N.am      2 ALA2        0.0000 
     11 O         167.8000  131.8200  201.2800 O.2       2 ALA2        0.0000 
     12 N         169.0100  130.1100  201.6300 N.am      2 ALA2        0.0000 
     13 N         167.7100  130.6200  202.1800 N.am      2 ALA2        0.0000 
     14 N         168.9200  128.9100  202.5300 N.am      2 ALA2        0.0000 
     15 N         167.6300  129.4200  203.0900 N.am      2 ALA2        0.0000 
     16 N         168.8400  127.7200  203.4300 N.am      2 ALA2        0.0000 
     17 N         167.5400  128.2300  203.9900 N.am      2 ALA2        0.0000 
     18 N         172.5200  132.2300  199.7800 N.am      2 ALA2        0.0000 
     19 N         169.6700  129.6600  203.5900 N.am      2 ALA2        0.0000 
     20 N         169.5900  128.4700  204.5000 N.am      2 ALA2        0.0000 
     21 CZ        168.2600  129.3600  200.5700 C.ar      3 PHE5        0.0000 
     22 CZ        166.9600  129.8700  201.1200 C.ar      3 PHE5        0.0000 
     23 CZ        168.1800  128.1700  201.4700 C.ar      3 PHE5        0.0000 
     24 CZ        171.6000  129.0900  200.5200 C.ar      3 PHE5        0.0000 
     25 CZ        172.8200  127.3900  200.8700 C.ar      3 PHE5        0.0000 
     26 CZ        171.5200  127.9000  201.4200 C.ar      3 PHE5        0.0000 
     27 CZ        172.3500  129.8400  201.5900 C.ar      3 PHE5        0.0000 
     28 CZ        171.0500  130.3500  202.1400 C.ar      3 PHE5        0.0000 
     29 CZ        170.9700  129.1500  203.0400 C.ar      3 PHE5        0.0000 
     30 CZ        170.8900  127.9600  203.9400 C.ar      3 PHE5        0.0000 
     31 CZ        171.7200  129.9000  204.1000 C.ar      3 PHE5        0.0000 
     32 CA        167.9400  134.6000  195.0000 C.3       4 GLY6        0.0000 
     33 CA        170.3600  131.1900  195.6900 C.3       4 GLY6        0.0000 
     34 CA        171.5800  129.4800  196.0400 C.3       4 GLY6        0.0000 
     35 CA        170.2800  129.9900  196.5900 C.3       4 GLY6        0.0000 
     36 CA        169.9800  134.8400  195.5100 C.3       4 GLY6        0.0000 
     37 CA        169.9000  133.6400  196.4100 C.3       4 GLY6        0.0000 
     38 CA        168.6000  134.1500  196.9600 C.3       4 GLY6        0.0000 
     39 CA        168.5200  132.9500  197.8600 C.3       4 GLY6        0.0000 
     40 CA        167.2200  133.4600  198.4200 C.3       4 GLY6        0.0000 
     41 CA        168.4300  131.7600  198.7600 C.3       4 GLY6        0.0000 
     42 CA        167.0500  131.0700  200.2200 C.3       4 GLY6        0.0000 
     43 CA        170.6500  134.3900  197.4700 C.3       4 GLY6        0.0000 
     44 CA        170.5600  133.1900  198.3700 C.3       4 GLY6        0.0000 
     45 CA        169.2600  133.7000  198.9300 C.3       4 GLY6        0.0000 
     46 CA        171.6900  130.2900  199.6200 C.3       4 GLY6        0.0000 
     47 CA        172.9000  128.5800  199.9700 C.3       4 GLY6        0.0000 
     48 CA        171.2200  132.7400  200.3400 C.3       4 GLY6        0.0000 
     49 CA        169.9300  133.2500  200.8900 C.3       4 GLY6        0.0000 
     50 CA        172.4400  131.0400  200.6800 C.3       4 GLY6        0.0000 
     51 CA        171.1400  131.5500  201.2400 C.3       4 GLY6        0.0000 
     52 CA        169.8400  132.0600  201.7900 C.3       4 GLY6        0.0000 
     53 CA        169.7600  130.8600  202.6900 C.3       4 GLY6        0.0000 
     54 CA        169.5000  127.2700  205.4000 C.3       4 GLY6        0.0000 
     55 CA        173.1800  131.7800  201.7500 C.3       4 GLY6        0.0000 
     56 CA        171.8900  132.2900  202.3000 C.3       4 GLY6        0.0000 
     57 CA        171.8000  131.1000  203.2000 C.3       4 GLY6        0.0000 
     58 DU        169.8100  132.4400  197.3100 H         5 CUB7        0.0000 
     59 DU        169.7300  131.2500  198.2100 H         5 CUB7        0.0000 
     60 DU        170.9400  129.5400  198.5600 H         5 CUB7        0.0000 
     61 DU        168.3500  130.5600  199.6700 H         5 CUB7        0.0000 
     62 DU        170.8600  128.3400  199.4600 H         5 CUB7        0.0000 
     63 DU        169.5600  128.8500  200.0100 H         5 CUB7        0.0000 
     64 DU        169.4700  127.6600  200.9100 H         5 CUB7        0.0000 
     65 DU        170.4800  131.9900  199.2700 H         5 CUB7        0.0000 
     66 DU        170.3900  130.8000  200.1800 H         5 CUB7        0.0000 
     67 DU        169.0900  131.3100  200.7300 H         5 CUB7        0.0000 
     68 DU        170.3100  129.6000  201.0800 H         5 CUB7        0.0000 
     69 DU        170.2200  128.4100  201.9800 H         5 CUB7        0.0000 
@<TRIPOS>BOND
@<TRIPOS>SUBSTRUCTURE
     1 SER1        1 GROUP   
     2 ALA2        4 GROUP   
     3 PHE5       21 GROUP   
     4 GLY6       32 GROUP   
     5 CUB7       58 GROUP   
@<TRIPOS>SET

