#    Name: 5zx5_9_Y01
#    Modification time : Fri May 22 19:30:05 2020

@<TRIPOS>MOLECULE
5zx5_9_Y01
   35    38     1     0     0
SMALL
NO_CHARGES


@<TRIPOS>ATOM
      1 CAA       129.1330  144.9150  174.4170 C.3       1 Y011302     0.0000 
      2 CBA       129.0840  145.8010  175.6650 C.3       1 Y011302     0.0000 
      3 CAB       129.1800  147.2760  175.2620 C.3       1 Y011302     0.0000 
      4 CAN       130.2390  145.4340  176.6020 C.3       1 Y011302     0.0000 
      5 CAJ       129.9870  144.0340  177.1440 C.3       1 Y011302     0.0000 
      6 CAO       131.0140  143.7010  178.2140 C.3       1 Y011302     0.0000 
      7 CBB       130.5300  144.1790  179.5730 C.3       1 Y011302     0.0000 
      8 CAC       130.1960  142.9920  180.4640 C.3       1 Y011302     0.0000 
      9 CBE       131.6710  144.9610  180.1960 C.3       1 Y011302     0.0000 
     10 CAP       131.6510  146.3570  179.5720 C.3       1 Y011302     0.0000 
     11 CAQ       131.7580  147.3280  180.7390 C.3       1 Y011302     0.0000 
     12 CBG       132.3380  146.4470  181.8090 C.3       1 Y011302     0.0000 
     13 CBI       131.4860  145.2230  181.6820 C.3       1 Y011302     0.0000 
     14 CAE       130.0180  145.4830  182.0510 C.3       1 Y011302     0.0000 
     15 CAU       132.0590  144.1570  182.5900 C.3       1 Y011302     0.0000 
     16 CAS       132.0750  144.6760  184.0460 C.3       1 Y011302     0.0000 
     17 CBF       132.7570  146.0630  184.1690 C.3       1 Y011302     0.0000 
     18 CBD       132.1390  147.0240  183.1580 C.3       1 Y011302     0.0000 
     19 CAK       132.8480  148.3640  183.2570 C.3       1 Y011302     0.0000 
     20 CAI       132.8510  148.8790  184.5580 C.2       1 Y011302     0.0000 
     21 CAZ       132.8020  148.0700  185.6970 C.2       1 Y011302     0.0000 
     22 CAV       132.8160  148.6640  186.9460 C.3       1 Y011302     0.0000 
     23 CBH       132.7320  146.6580  185.6400 C.3       1 Y011302     0.0000 
     24 CAD       131.4530  146.2290  186.3520 C.3       1 Y011302     0.0000 
     25 CAT       133.9290  146.0840  186.3940 C.3       1 Y011302     0.0000 
     26 CAR       134.0790  146.6730  187.8120 C.3       1 Y011302     0.0000 
     27 CBC       134.0370  148.2060  187.7220 C.3       1 Y011302     0.0000 
     28 OAW       133.9570  148.7790  189.0370 O.3       1 Y011302     0.0000 
     29 CAY       135.0610  148.5570  189.7950 C.2       1 Y011302     0.0000 
     30 OAG       135.8280  147.6080  189.6500 O.2       1 Y011302     0.0000 
     31 CAM       135.2940  149.5860  190.8990 C.3       1 Y011302     0.0000 
     32 CAL       136.5640  150.3850  190.6020 C.3       1 Y011302     0.0000 
     33 CAX       136.9670  151.2160  191.8220 C.2       1 Y011302     0.0000 
     34 OAH       138.1670  151.5490  191.9110 O.co2     1 Y011302     0.0000 
     35 OAF       136.0660  151.5030  192.6380 O.co2     1 Y011302     0.0000 
@<TRIPOS>BOND
     1    1    2 1    
     2    2    3 1    
     3    2    4 1    
     4    4    5 1    
     5    5    6 1    
     6    6    7 1    
     7    7    8 1    
     8    7    9 1    
     9    9   10 1    
    10    9   13 1    
    11   10   11 1    
    12   11   12 1    
    13   12   13 1    
    14   12   18 1    
    15   13   14 1    
    16   13   15 1    
    17   15   16 1    
    18   16   17 1    
    19   17   18 1    
    20   17   23 1    
    21   18   19 1    
    22   19   20 1    
    23   20   21 2    
    24   21   22 1    
    25   21   23 1    
    26   22   27 1    
    27   23   24 1    
    28   23   25 1    
    29   25   26 1    
    30   26   27 1    
    31   27   28 1    
    32   28   29 1    
    33   29   30 2    
    34   29   31 1    
    35   31   32 1    
    36   32   33 1    
    37   33   34 ar   
    38   33   35 ar   
@<TRIPOS>SUBSTRUCTURE
     1 Y011302     1 GROUP   
@<TRIPOS>SET

