#    Name: 5zx5_7_Y01
#    Modification time : Fri May 22 19:29:20 2020

@<TRIPOS>MOLECULE
5zx5_7_Y01
   35    38     1     0     0
SMALL
NO_CHARGES


@<TRIPOS>ATOM
      1 CAA       143.0890  184.7260  173.8620 C.3       1 Y011302     0.0000 
      2 CBA       144.1980  185.7870  173.9220 C.3       1 Y011302     0.0000 
      3 CAB       145.2860  185.4550  172.9020 C.3       1 Y011302     0.0000 
      4 CAN       144.8220  185.8810  175.3270 C.3       1 Y011302     0.0000 
      5 CAJ       144.9530  184.5140  176.0060 C.3       1 Y011302     0.0000 
      6 CAO       144.4540  184.6280  177.4490 C.3       1 Y011302     0.0000 
      7 CBB       145.1730  183.6710  178.4070 C.3       1 Y011302     0.0000 
      8 CAC       146.6580  183.5290  178.0630 C.3       1 Y011302     0.0000 
      9 CBE       145.0650  184.2510  179.8110 C.3       1 Y011302     0.0000 
     10 CAP       143.6020  184.4450  180.1690 C.3       1 Y011302     0.0000 
     11 CAQ       143.4750  184.0790  181.6530 C.3       1 Y011302     0.0000 
     12 CBG       144.9080  183.9040  182.0650 C.3       1 Y011302     0.0000 
     13 CBI       145.4960  183.2610  180.8480 C.3       1 Y011302     0.0000 
     14 CAE       144.9190  181.8620  180.5990 C.3       1 Y011302     0.0000 
     15 CAU       146.9920  183.1620  181.0260 C.3       1 Y011302     0.0000 
     16 CAS       147.2610  182.2730  182.2400 C.3       1 Y011302     0.0000 
     17 CBF       146.5510  182.8450  183.4680 C.3       1 Y011302     0.0000 
     18 CBD       145.0620  182.9760  183.2220 C.3       1 Y011302     0.0000 
     19 CAK       144.3920  183.5790  184.4620 C.3       1 Y011302     0.0000 
     20 CAI       144.8370  183.0850  185.7050 C.2       1 Y011302     0.0000 
     21 CAZ       145.9920  182.3090  185.8250 C.2       1 Y011302     0.0000 
     22 CAV       146.3090  181.8750  187.1210 C.3       1 Y011302     0.0000 
     23 CBH       146.7460  181.9400  184.6860 C.3       1 Y011302     0.0000 
     24 CAD       146.3080  180.5310  184.2910 C.3       1 Y011302     0.0000 
     25 CAT       148.2110  181.9790  185.0010 C.3       1 Y011302     0.0000 
     26 CAR       148.4970  180.9650  186.0640 C.3       1 Y011302     0.0000 
     27 CBC       147.7220  181.2750  187.3420 C.3       1 Y011302     0.0000 
     28 OAW       147.6030  180.0590  188.1220 O.3       1 Y011302     0.0000 
     29 CAY       148.8250  179.7080  188.6040 C.2       1 Y011302     0.0000 
     30 OAG       149.7870  179.4470  187.8860 O.2       1 Y011302     0.0000 
     31 CAM       148.9510  179.6550  190.1290 C.3       1 Y011302     0.0000 
     32 CAL       150.4260  179.4810  190.5090 C.3       1 Y011302     0.0000 
     33 CAX       150.5560  178.7470  191.8420 C.2       1 Y011302     0.0000 
     34 OAH       150.1640  179.3590  192.8560 O.co2     1 Y011302     0.0000 
     35 OAF       151.0510  177.5990  191.8170 O.co2     1 Y011302     0.0000 
@<TRIPOS>BOND
     1    1    2 1    
     2    2    3 1    
     3    2    4 1    
     4    4    5 1    
     5    5    6 1    
     6    6    7 1    
     7    7    8 1    
     8    7    9 1    
     9    9   10 1    
    10    9   13 1    
    11   10   11 1    
    12   11   12 1    
    13   12   13 1    
    14   12   18 1    
    15   13   14 1    
    16   13   15 1    
    17   15   16 1    
    18   16   17 1    
    19   17   18 1    
    20   17   23 1    
    21   18   19 1    
    22   19   20 1    
    23   20   21 2    
    24   21   22 1    
    25   21   23 1    
    26   22   27 1    
    27   23   24 1    
    28   23   25 1    
    29   25   26 1    
    30   26   27 1    
    31   27   28 1    
    32   28   29 1    
    33   29   30 2    
    34   29   31 1    
    35   31   32 1    
    36   32   33 1    
    37   33   34 ar   
    38   33   35 ar   
@<TRIPOS>SUBSTRUCTURE
     1 Y011302     1 GROUP   
@<TRIPOS>SET

