#    Name: 5zx5_1_Y01
#    Modification time : Fri May 22 19:27:59 2020

@<TRIPOS>MOLECULE
5zx5_1_Y01
   35    38     1     0     0
SMALL
NO_CHARGES


@<TRIPOS>ATOM
      1 CAA       138.9310  167.6270  192.9670 C.3       1 Y011301     0.0000 
      2 CBA       140.2490  167.5470  192.2120 C.3       1 Y011301     0.0000 
      3 CAB       141.3660  167.9490  193.1560 C.3       1 Y011301     0.0000 
      4 CAN       140.2330  168.5160  191.0430 C.3       1 Y011301     0.0000 
      5 CAJ       140.2870  167.7310  189.7480 C.3       1 Y011301     0.0000 
      6 CAO       140.0510  168.6880  188.5930 C.3       1 Y011301     0.0000 
      7 CBB       139.6130  167.9340  187.3390 C.3       1 Y011301     0.0000 
      8 CAC       138.2580  167.2790  187.5710 C.3       1 Y011301     0.0000 
      9 CBE       139.4870  168.9440  186.2160 C.3       1 Y011301     0.0000 
     10 CAP       140.8870  169.4190  185.8290 C.3       1 Y011301     0.0000 
     11 CAQ       140.9150  169.4550  184.3010 C.3       1 Y011301     0.0000 
     12 CBG       139.4440  169.3700  183.9640 C.3       1 Y011301     0.0000 
     13 CBI       138.9720  168.3290  184.9370 C.3       1 Y011301     0.0000 
     14 CAE       139.5870  166.9580  184.6570 C.3       1 Y011301     0.0000 
     15 CAU       137.4700  168.2350  184.8360 C.3       1 Y011301     0.0000 
     16 CAS       137.1210  167.7950  183.4100 C.3       1 Y011301     0.0000 
     17 CBF       137.6950  168.7900  182.3910 C.3       1 Y011301     0.0000 
     18 CBD       139.1940  168.9060  182.5630 C.3       1 Y011301     0.0000 
     19 CAK       139.6920  169.9720  181.5850 C.3       1 Y011301     0.0000 
     20 CAI       139.2780  169.7890  180.2580 C.2       1 Y011301     0.0000 
     21 CAZ       138.1390  169.0550  179.9330 C.2       1 Y011301     0.0000 
     22 CAV       137.8110  168.9190  178.5870 C.3       1 Y011301     0.0000 
     23 CBH       137.3370  168.4160  180.9110 C.3       1 Y011301     0.0000 
     24 CAD       137.4740  166.9070  180.7230 C.3       1 Y011301     0.0000 
     25 CAT       135.8830  168.8040  180.6990 C.3       1 Y011301     0.0000 
     26 CAR       135.4380  168.4270  179.3010 C.3       1 Y011301     0.0000 
     27 CBC       136.3280  169.1550  178.3030 C.3       1 Y011301     0.0000 
     28 OAW       136.0280  168.6510  176.9990 O.3       1 Y011301     0.0000 
     29 CAY       136.3950  169.4740  175.9820 C.2       1 Y011301     0.0000 
     30 OAG       136.5500  170.6890  176.0930 O.2       1 Y011301     0.0000 
     31 CAM       136.5930  168.7820  174.6280 C.3       1 Y011301     0.0000 
     32 CAL       136.7830  167.2710  174.8020 C.3       1 Y011301     0.0000 
     33 CAX       135.4390  166.5550  174.6510 C.2       1 Y011301     0.0000 
     34 OAH       135.3020  165.4600  175.2430 O.co2     1 Y011301     0.0000 
     35 OAF       134.5750  167.1170  173.9450 O.co2     1 Y011301     0.0000 
@<TRIPOS>BOND
     1    1    2 1    
     2    2    3 1    
     3    2    4 1    
     4    4    5 1    
     5    5    6 1    
     6    6    7 1    
     7    7    8 1    
     8    7    9 1    
     9    9   10 1    
    10    9   13 1    
    11   10   11 1    
    12   11   12 1    
    13   12   13 1    
    14   12   18 1    
    15   13   14 1    
    16   13   15 1    
    17   15   16 1    
    18   16   17 1    
    19   17   18 1    
    20   17   23 1    
    21   18   19 1    
    22   19   20 1    
    23   20   21 2    
    24   21   22 1    
    25   21   23 1    
    26   22   27 1    
    27   23   24 1    
    28   23   25 1    
    29   25   26 1    
    30   26   27 1    
    31   27   28 1    
    32   28   29 1    
    33   29   30 2    
    34   29   31 1    
    35   31   32 1    
    36   32   33 1    
    37   33   34 ar   
    38   33   35 ar   
@<TRIPOS>SUBSTRUCTURE
     1 Y011301     1 GROUP   
@<TRIPOS>SET

