#    Name: 5zx5_12_Y01
#    Modification time : Fri May 22 19:31:02 2020

@<TRIPOS>MOLECULE
5zx5_12_Y01
   35    38     1     0     0
SMALL
NO_CHARGES


@<TRIPOS>ATOM
      1 CAA       171.0150  127.8970  173.6140 C.3       1 Y011303     0.0000 
      2 CBA       170.5120  129.3210  173.8470 C.3       1 Y011303     0.0000 
      3 CAB       171.6720  130.2150  174.3030 C.3       1 Y011303     0.0000 
      4 CAN       169.3940  129.3140  174.9000 C.3       1 Y011303     0.0000 
      5 CAJ       169.9640  129.1150  176.3070 C.3       1 Y011303     0.0000 
      6 CAO       170.2720  130.4690  176.9470 C.3       1 Y011303     0.0000 
      7 CBB       170.4880  130.2890  178.4520 C.3       1 Y011303     0.0000 
      8 CAC       171.9770  130.1970  178.7370 C.3       1 Y011303     0.0000 
      9 CBE       169.9110  131.4810  179.2150 C.3       1 Y011303     0.0000 
     10 CAP       168.4460  131.6620  178.7830 C.3       1 Y011303     0.0000 
     11 CAQ       167.6290  131.7120  180.0660 C.3       1 Y011303     0.0000 
     12 CBG       168.6710  132.1620  181.0450 C.3       1 Y011303     0.0000 
     13 CBI       169.8100  131.2400  180.7260 C.3       1 Y011303     0.0000 
     14 CAE       169.4810  129.7870  181.0690 C.3       1 Y011303     0.0000 
     15 CAU       171.0010  131.6820  181.5430 C.3       1 Y011303     0.0000 
     16 CAS       170.6340  131.5970  183.0390 C.3       1 Y011303     0.0000 
     17 CBF       169.3630  132.4080  183.3460 C.3       1 Y011303     0.0000 
     18 CBD       168.2310  131.9430  182.4500 C.3       1 Y011303     0.0000 
     19 CAK       166.9720  132.7780  182.7160 C.3       1 Y011303     0.0000 
     20 CAI       166.6850  133.0010  184.0700 C.2       1 Y011303     0.0000 
     21 CAZ       167.6160  132.7890  185.0880 C.2       1 Y011303     0.0000 
     22 CAV       167.2220  133.0460  186.4000 C.3       1 Y011303     0.0000 
     23 CBH       168.9260  132.2940  184.8360 C.3       1 Y011303     0.0000 
     24 CAD       168.9460  130.8250  185.2240 C.3       1 Y011303     0.0000 
     25 CAT       169.9810  133.0260  185.6630 C.3       1 Y011303     0.0000 
     26 CAR       169.5550  133.2460  187.1120 C.3       1 Y011303     0.0000 
     27 CBC       168.2260  133.9690  187.0610 C.3       1 Y011303     0.0000 
     28 OAW       167.8180  134.3170  188.4000 O.3       1 Y011303     0.0000 
     29 CAY       166.5710  134.8550  188.5110 C.2       1 Y011303     0.0000 
     30 OAG       165.8910  135.2330  187.5620 O.2       1 Y011303     0.0000 
     31 CAM       166.0510  134.9570  189.9490 C.3       1 Y011303     0.0000 
     32 CAL       164.7490  135.7610  190.0010 C.3       1 Y011303     0.0000 
     33 CAX       164.4370  136.1510  191.4510 C.2       1 Y011303     0.0000 
     34 OAH       163.7740  137.1950  191.6380 O.co2     1 Y011303     0.0000 
     35 OAF       164.8680  135.3910  192.3420 O.co2     1 Y011303     0.0000 
@<TRIPOS>BOND
     1    1    2 1    
     2    2    3 1    
     3    2    4 1    
     4    4    5 1    
     5    5    6 1    
     6    6    7 1    
     7    7    8 1    
     8    7    9 1    
     9    9   10 1    
    10    9   13 1    
    11   10   11 1    
    12   11   12 1    
    13   12   13 1    
    14   12   18 1    
    15   13   14 1    
    16   13   15 1    
    17   15   16 1    
    18   16   17 1    
    19   17   18 1    
    20   17   23 1    
    21   18   19 1    
    22   19   20 1    
    23   20   21 2    
    24   21   22 1    
    25   21   23 1    
    26   22   27 1    
    27   23   24 1    
    28   23   25 1    
    29   25   26 1    
    30   26   27 1    
    31   27   28 1    
    32   28   29 1    
    33   29   30 2    
    34   29   31 1    
    35   31   32 1    
    36   32   33 1    
    37   33   34 ar   
    38   33   35 ar   
@<TRIPOS>SUBSTRUCTURE
     1 Y011303     1 GROUP   
@<TRIPOS>SET

