#    Name: 6grg_3_ADP
#    Modification time : Fri May 22 19:27:48 2020

@<TRIPOS>MOLECULE
6grg_3_ADP
   27    29     1     0     1
SMALL
NO_CHARGES


@<TRIPOS>ATOM
      1 PB        209.0220   23.1900   16.5460 P.3       1 ADP702      0.0000 
      2 O1B       209.0720   24.4550   15.7350 O.co2     1 ADP702      0.0000 
      3 O2B       209.8880   22.0300   16.1150 O.co2     1 ADP702      0.0000 
      4 O3B       209.1540   23.3590   18.0250 O.co2     1 ADP702      0.0000 
      5 PA        206.3080   22.2390   17.2200 P.3       1 ADP702      0.0000 
      6 O1A       205.2550   21.8640   16.2050 O.co2     1 ADP702      0.0000 
      7 O2A       206.1280   23.3470   18.2290 O.co2     1 ADP702      0.0000 
      8 O3A       207.5360   22.6130   16.2190 O.3       1 ADP702      0.0000 
      9 O5'       206.7200   20.8980   17.9830 O.3       1 ADP702      0.0000 
     10 C5'       207.4850   20.9310   19.1800 C.3       1 ADP702      0.0000 
     11 C4'       207.8300   19.5050   19.5860 C.3       1 ADP702      0.0000 
     12 O4'       206.6270   18.8130   19.9800 O.3       1 ADP702      0.0000 
     13 C3'       208.4400   18.6510   18.4830 C.3       1 ADP702      0.0000 
     14 O3'       209.3770   17.6920   19.0320 O.3       1 ADP702      0.0000 
     15 C2'       207.2570   17.8780   17.9640 C.3       1 ADP702      0.0000 
     16 O2'       207.6280   16.6720   17.2980 O.3       1 ADP702      0.0000 
     17 C1'       206.5180   17.5930   19.2640 C.3       1 ADP702      0.0000 
     18 N9        205.1160   17.1960   19.0460 N.pl3     1 ADP702      0.0000 
     19 C8        204.1910   17.9100   18.3780 C.2       1 ADP702      0.0000 
     20 N7        203.0050   17.2560   18.3670 N.2       1 ADP702      0.0000 
     21 C5        203.1630   16.1020   19.0470 C.ar      1 ADP702      0.0000 
     22 C6        202.3050   14.9560   19.4240 C.ar      1 ADP702      0.0000 
     23 N6        201.0210   14.9200   19.0530 N.pl3     1 ADP702      0.0000 
     24 N1        202.8390   13.9410   20.1370 N.ar      1 ADP702      0.0000 
     25 C2        204.1370   13.9770   20.5230 C.ar      1 ADP702      0.0000 
     26 N3        204.9830   15.0010   20.2150 N.ar      1 ADP702      0.0000 
     27 C4        204.5630   16.0670   19.4910 C.ar      1 ADP702      0.0000 
@<TRIPOS>BOND
     1    1    2 ar   
     2    1    3 ar   
     3    1    4 ar   
     4    1    8 1    
     5    5    6 ar   
     6    5    7 ar   
     7    5    8 1    
     8    5    9 1    
     9    9   10 1    
    10   10   11 1    
    11   11   12 1    
    12   11   13 1    
    13   12   17 1    
    14   13   14 1    
    15   13   15 1    
    16   15   16 1    
    17   15   17 1    
    18   17   18 1    
    19   18   19 1    
    20   18   27 1    
    21   19   20 2    
    22   20   21 1    
    23   21   22 ar   
    24   21   27 ar   
    25   22   23 1    
    26   22   24 ar   
    27   24   25 ar   
    28   25   26 ar   
    29   26   27 ar   
@<TRIPOS>SUBSTRUCTURE
     1 ADP702      1 GROUP   
@<TRIPOS>SET
ATOM$ORANGE STATIC     ATOMS   COLORGROUP SYSTEM 
20 10 10 11 11 13 13 15 15 17 17 19 19 21 21 22 22 25 \
25 27 27 

