#    Name: 6cun_1_CA1
#    Modification time : Fri May 22 19:29:09 2020

@<TRIPOS>MOLECULE
6cun_1_CA1
    7     6     1     0     0
SMALL
NO_CHARGES


@<TRIPOS>ATOM
      1 CX5        33.1680  -27.7980    8.3460 C.3       1 CA1202      0.0000 
      2 CX6        33.8140  -27.9400    6.9920 C.3       1 CA1202      0.0000 
      3 CX7        33.5920  -29.2100    6.3890 C.2       1 CA1202      0.0000 
      4 OX8        34.3640  -30.1440    6.4890 O.2       1 CA1202      0.0000 
      5 OX9        32.4030  -29.3210    5.6200 O.3       1 CA1202      0.0000 
      6 CJ1        32.1490  -30.5120    4.8560 C.3       1 CA1202      0.0000 
      7 CJ2        31.0940  -31.3030    5.5640 C.3       1 CA1202      0.0000 
@<TRIPOS>BOND
     1    1    2 1    
     2    2    3 1    
     3    3    4 2    
     4    3    5 1    
     5    5    6 1    
     6    6    7 1    
@<TRIPOS>SUBSTRUCTURE
     1 CA1202      1 GROUP   
@<TRIPOS>SET

