#    Name: 6j5j_2_ATP
#    Modification time : Fri May 22 19:27:55 2020

@<TRIPOS>MOLECULE
6j5j_2_ATP
   31    33     1     0     1
SMALL
NO_CHARGES


@<TRIPOS>ATOM
      1 PG        163.1420  233.0270  158.7750 P.3       1 ATP601      0.0000 
      2 O1G       163.2570  231.9100  157.7730 O.co2     1 ATP601      0.0000 
      3 O2G       161.9470  233.9260  158.6080 O.co2     1 ATP601      0.0000 
      4 O3G       164.4300  233.7590  159.0200 O.co2     1 ATP601      0.0000 
      5 PB        163.6250  232.7760  161.4930 P.3       1 ATP601      0.0000 
      6 O1B       165.0490  232.2990  161.4420 O.co2     1 ATP601      0.0000 
      7 O2B       163.3070  234.2310  161.7040 O.co2     1 ATP601      0.0000 
      8 O3B       162.8680  232.2850  160.1680 O.3       1 ATP601      0.0000 
      9 PA        162.0120  232.6380  163.7590 P.3       1 ATP601      0.0000 
     10 O1A       160.8230  233.2690  163.0910 O.co2     1 ATP601      0.0000 
     11 O2A       162.9090  233.4760  164.6240 O.co2     1 ATP601      0.0000 
     12 O3A       162.8780  231.9190  162.6210 O.3       1 ATP601      0.0000 
     13 O5'       161.5000  231.3840  164.6130 O.3       1 ATP601      0.0000 
     14 C5'       160.8130  230.3360  163.9420 C.3       1 ATP601      0.0000 
     15 C4'       160.0930  229.4620  164.9500 C.3       1 ATP601      0.0000 
     16 O4'       160.9710  229.0800  166.0040 O.3       1 ATP601      0.0000 
     17 C3'       158.9590  230.2250  165.6000 C.3       1 ATP601      0.0000 
     18 O3'       157.7190  229.8740  164.9880 O.3       1 ATP601      0.0000 
     19 C2'       158.9770  229.7900  167.0450 C.3       1 ATP601      0.0000 
     20 O2'       157.8270  228.9960  167.3290 O.3       1 ATP601      0.0000 
     21 C1'       160.2200  228.9400  167.2080 C.3       1 ATP601      0.0000 
     22 N9        160.9930  229.4280  168.3700 N.pl3     1 ATP601      0.0000 
     23 C8        161.8680  230.4420  168.3530 C.2       1 ATP601      0.0000 
     24 N7        162.4080  230.6430  169.5780 N.2       1 ATP601      0.0000 
     25 C5        161.8650  229.7420  170.4060 C.ar      1 ATP601      0.0000 
     26 C6        161.9970  229.4080  171.8370 C.ar      1 ATP601      0.0000 
     27 N6        162.8390  230.1020  172.6360 N.pl3     1 ATP601      0.0000 
     28 N1        161.2520  228.3920  172.3140 N.ar      1 ATP601      0.0000 
     29 C2        160.4130  227.7000  171.5210 C.ar      1 ATP601      0.0000 
     30 N3        160.2450  227.9510  170.2110 N.ar      1 ATP601      0.0000 
     31 C4        160.9320  228.9440  169.6060 C.ar      1 ATP601      0.0000 
@<TRIPOS>BOND
     1    1    2 ar   
     2    1    3 ar   
     3    1    4 ar   
     4    1    8 1    
     5    5    6 ar   
     6    5    7 ar   
     7    5    8 1    
     8    5   12 1    
     9    9   10 ar   
    10    9   11 ar   
    11    9   12 1    
    12    9   13 1    
    13   13   14 1    
    14   14   15 1    
    15   15   16 1    
    16   15   17 1    
    17   16   21 1    
    18   17   18 1    
    19   17   19 1    
    20   19   20 1    
    21   19   21 1    
    22   21   22 1    
    23   22   23 1    
    24   22   31 1    
    25   23   24 2    
    26   24   25 1    
    27   25   26 ar   
    28   25   31 ar   
    29   26   27 1    
    30   26   28 ar   
    31   28   29 ar   
    32   29   30 ar   
    33   30   31 ar   
@<TRIPOS>SUBSTRUCTURE
     1 ATP601      1 GROUP   
@<TRIPOS>SET
ATOM$ORANGE STATIC     ATOMS   COLORGROUP SYSTEM 
20 14 14 15 15 17 17 19 19 21 21 23 23 25 25 26 26 29 \
29 31 31 

