#    Name: 6j5j_4_ADP
#    Modification time : Fri May 22 19:28:42 2020

@<TRIPOS>MOLECULE
6j5j_4_ADP
   27    29     1     0     1
SMALL
NO_CHARGES


@<TRIPOS>ATOM
      1 PB        190.9290  239.6570  162.7950 P.3       1 ADP501      0.0000 
      2 O1B       191.6090  240.6560  161.8980 O.co2     1 ADP501      0.0000 
      3 O2B       189.6080  239.1560  162.2770 O.co2     1 ADP501      0.0000 
      4 O3B       191.8210  238.5580  163.2980 O.co2     1 ADP501      0.0000 
      5 PA        190.8300  240.1540  165.6100 P.3       1 ADP501      0.0000 
      6 O1A       192.2710  239.7780  165.8050 O.co2     1 ADP501      0.0000 
      7 O2A       190.2790  241.2690  166.4570 O.co2     1 ADP501      0.0000 
      8 O3A       190.5640  240.5530  164.0760 O.3       1 ADP501      0.0000 
      9 O5'       189.9270  238.8650  165.9070 O.3       1 ADP501      0.0000 
     10 C5'       190.5500  237.6230  166.1900 C.3       1 ADP501      0.0000 
     11 C4'       189.6920  236.8130  167.1470 C.3       1 ADP501      0.0000 
     12 O4'       190.4380  235.6900  167.6050 O.3       1 ADP501      0.0000 
     13 C3'       189.3180  237.6270  168.3610 C.3       1 ADP501      0.0000 
     14 O3'       187.9000  237.6850  168.4370 O.3       1 ADP501      0.0000 
     15 C2'       189.8220  236.8620  169.5570 C.3       1 ADP501      0.0000 
     16 O2'       188.7180  236.5450  170.4020 O.3       1 ADP501      0.0000 
     17 C1'       190.4120  235.5790  169.0230 C.3       1 ADP501      0.0000 
     18 N9        191.8020  235.4360  169.5050 N.pl3     1 ADP501      0.0000 
     19 C8        192.9010  235.7130  168.7850 C.2       1 ADP501      0.0000 
     20 N7        194.0290  235.4750  169.4950 N.2       1 ADP501      0.0000 
     21 C5        193.6510  235.0320  170.7020 C.ar      1 ADP501      0.0000 
     22 C6        194.3420  234.6000  171.9320 C.ar      1 ADP501      0.0000 
     23 N6        195.6910  234.5990  172.0040 N.pl3     1 ADP501      0.0000 
     24 N1        193.5820  234.2110  172.9760 N.ar      1 ADP501      0.0000 
     25 C2        192.2390  234.2110  172.9060 C.ar      1 ADP501      0.0000 
     26 N3        191.5450  234.5920  171.8190 N.ar      1 ADP501      0.0000 
     27 C4        192.1840  235.0040  170.7040 C.ar      1 ADP501      0.0000 
@<TRIPOS>BOND
     1    1    2 ar   
     2    1    3 ar   
     3    1    4 ar   
     4    1    8 1    
     5    5    6 ar   
     6    5    7 ar   
     7    5    8 1    
     8    5    9 1    
     9    9   10 1    
    10   10   11 1    
    11   11   12 1    
    12   11   13 1    
    13   12   17 1    
    14   13   14 1    
    15   13   15 1    
    16   15   16 1    
    17   15   17 1    
    18   17   18 1    
    19   18   19 1    
    20   18   27 1    
    21   19   20 2    
    22   20   21 1    
    23   21   22 ar   
    24   21   27 ar   
    25   22   23 1    
    26   22   24 ar   
    27   24   25 ar   
    28   25   26 ar   
    29   26   27 ar   
@<TRIPOS>SUBSTRUCTURE
     1 ADP501      1 GROUP   
@<TRIPOS>SET
ATOM$ORANGE STATIC     ATOMS   COLORGROUP SYSTEM 
20 10 10 11 11 13 13 15 15 17 17 19 19 21 21 22 22 25 \
25 27 27 

