#    Name: 6j5j_3_ATP_CAVITY_N1_4
#    Modification time : Fri May 22 19:28:20 2020

@<TRIPOS>MOLECULE
6j5j_3_ATP_CAVITY_N1_4
   88     0     6     0     0
SMALL
NO_CHARGES


@<TRIPOS>ATOM
      1 OG        215.5400  227.8800  146.8900 O.3       1 SER1        0.0000 
      2 OG        218.6000  229.5700  145.7400 O.3       1 SER1        0.0000 
      3 OG        217.1300  229.7400  146.0000 O.3       1 SER1        0.0000 
      4 OG        215.8200  229.1800  147.5800 O.3       1 SER1        0.0000 
      5 OG        217.4000  231.0400  146.6900 O.3       1 SER1        0.0000 
      6 OG        217.5600  230.3200  148.0000 O.3       1 SER1        0.0000 
      7 OG        217.9800  230.9000  149.9900 O.3       1 SER1        0.0000 
      8 O         213.9200  228.7700  145.8500 O.2       2 ALA2        0.0000 
      9 O         212.6100  228.2100  147.4200 O.2       2 ALA2        0.0000 
     10 O         209.6400  231.2900  146.0200 O.2       2 ALA2        0.0000 
     11 O         212.7300  230.2400  146.8000 O.2       2 ALA2        0.0000 
     12 O         208.3300  230.7400  147.5900 O.2       2 ALA2        0.0000 
     13 O         214.3500  229.3500  147.8400 O.2       2 ALA2        0.0000 
     14 O         212.8800  229.5200  148.1000 O.2       2 ALA2        0.0000 
     15 N         206.8300  233.6500  145.9300 N.am      2 ALA2        0.0000 
     16 O         211.3800  232.4300  146.4400 O.2       2 ALA2        0.0000 
     17 O         209.9100  232.6000  146.7100 O.2       2 ALA2        0.0000 
     18 N         208.4500  232.7600  146.9700 N.am      2 ALA2        0.0000 
     19 N         206.9800  232.9300  147.2400 N.am      2 ALA2        0.0000 
     20 O         213.0000  231.5400  147.4900 O.2       2 ALA2        0.0000 
     21 O         208.6000  232.0400  148.2800 O.2       2 ALA2        0.0000 
     22 N         207.1300  232.2100  148.5400 N.am      2 ALA2        0.0000 
     23 O         214.6200  230.6500  148.5300 O.2       2 ALA2        0.0000 
     24 O         217.7100  229.6000  149.3100 O.2       2 ALA2        0.0000 
     25 O         214.7700  229.9300  149.8300 O.2       2 ALA2        0.0000 
     26 O         212.8100  235.0100  144.2600 O.2       2 ALA2        0.0000 
     27 N         208.7200  234.0700  147.6600 N.am      2 ALA2        0.0000 
     28 O         210.3400  233.1800  148.7000 O.2       2 ALA2        0.0000 
     29 N         208.8700  233.3500  148.9700 N.am      2 ALA2        0.0000 
     30 O         214.8900  231.9600  149.2200 O.2       2 ALA2        0.0000 
     31 N         210.3000  235.9300  146.7800 N.am      2 ALA2        0.0000 
     32 N         209.1400  234.6500  149.6600 N.am      2 ALA2        0.0000 
     33 OD1       209.2100  230.7100  144.0300 O.co2     3 ASP3        0.0000 
     34 OD1       209.3300  232.7300  143.4100 O.co2     3 ASP3        0.0000 
     35 OD1       207.8700  232.9000  143.6700 O.co2     3 ASP3        0.0000 
     36 OD1       209.4900  232.0100  144.7100 O.co2     3 ASP3        0.0000 
     37 OD1       211.1100  231.1300  145.7600 O.co2     3 ASP3        0.0000 
     38 OD1       214.2000  230.0700  146.5300 O.co2     3 ASP3        0.0000 
     39 OD1       211.0700  233.8700  143.8300 O.co2     3 ASP3        0.0000 
     40 OD1       211.2300  233.1500  145.1400 O.co2     3 ASP3        0.0000 
     41 OD1       214.3100  232.1000  145.9200 O.co2     3 ASP3        0.0000 
     42 OD1       212.8500  232.2600  146.1800 O.co2     3 ASP3        0.0000 
     43 OD1       213.1200  233.5700  146.8700 O.co2     3 ASP3        0.0000 
     44 OD1       211.6500  233.7300  147.1300 O.co2     3 ASP3        0.0000 
     45 OD1       210.1900  233.9000  147.4000 O.co2     3 ASP3        0.0000 
     46 OD1       214.7400  232.6800  147.9100 O.co2     3 ASP3        0.0000 
     47 OD1       213.2700  232.8500  148.1700 O.co2     3 ASP3        0.0000 
     48 OD1       210.4600  235.2100  148.0900 O.co2     3 ASP3        0.0000 
     49 OD1       215.1700  233.2600  149.9000 O.co2     3 ASP3        0.0000 
     50 NZ        209.0600  231.4300  142.7200 N.4       4 LYS4        0.0000 
     51 NZ        207.5900  231.6000  142.9800 N.4       4 LYS4        0.0000 
     52 NZ        206.1300  231.7600  143.2500 N.4       4 LYS4        0.0000 
     53 NZ        207.7500  230.8800  144.2900 N.4       4 LYS4        0.0000 
     54 NZ        206.2800  231.0400  144.5600 N.4       4 LYS4        0.0000 
     55 CA        214.0800  228.0500  147.1500 C.3       5 GLY6        0.0000 
     56 CA        209.1800  233.4600  142.1000 C.3       5 GLY6        0.0000 
     57 CA        206.5500  232.3500  145.2400 C.3       5 GLY6        0.0000 
     58 CA        208.1700  231.4600  146.2900 C.3       5 GLY6        0.0000 
     59 CA        206.7100  231.6300  146.5500 C.3       5 GLY6        0.0000 
     60 CA        215.6600  229.9000  146.2700 C.3       5 GLY6        0.0000 
     61 CA        210.9200  234.5900  142.5300 C.3       5 GLY6        0.0000 
     62 CA        208.1400  234.2100  144.3600 C.3       5 GLY6        0.0000 
     63 CA        215.6300  232.6500  144.3400 C.3       5 GLY6        0.0000 
     64 CA        208.2900  233.4800  145.6700 C.3       5 GLY6        0.0000 
     65 CA        215.7800  231.9300  145.6500 C.3       5 GLY6        0.0000 
     66 CA        207.2900  231.4900  149.8500 C.3       5 GLY6        0.0000 
     67 CA        211.3500  235.1800  144.5200 C.3       5 GLY6        0.0000 
     68 CA        209.8800  235.3400  144.7800 C.3       5 GLY6        0.0000 
     69 CA        214.4300  234.1200  145.3000 C.3       5 GLY6        0.0000 
     70 CA        212.9700  234.2900  145.5600 C.3       5 GLY6        0.0000 
     71 CA        210.0300  234.6200  146.0900 C.3       5 GLY6        0.0000 
     72 CA        208.5600  234.7900  146.3600 C.3       5 GLY6        0.0000 
     73 CA        216.0500  233.2300  146.3400 C.3       5 GLY6        0.0000 
     74 CA        214.5900  233.4000  146.6000 C.3       5 GLY6        0.0000 
     75 CA        209.0300  232.6300  150.2700 C.3       5 GLY6        0.0000 
     76 DU        208.0200  232.1800  144.9800 H         6 CUB7        0.0000 
     77 DU        214.5000  228.6300  149.1500 H         6 CUB7        0.0000 
     78 DU        209.6100  234.0400  144.1000 H         6 CUB7        0.0000 
     79 DU        209.7600  233.3200  145.4000 H         6 CUB7        0.0000 
     80 DU        215.9300  231.2100  146.9600 H         6 CUB7        0.0000 
     81 DU        214.4700  231.3800  147.2200 H         6 CUB7        0.0000 
     82 DU        216.0900  230.4900  148.2600 H         6 CUB7        0.0000 
     83 DU        216.2400  229.7700  149.5700 H         6 CUB7        0.0000 
     84 DU        211.5000  234.4600  145.8300 H         6 CUB7        0.0000 
     85 DU        216.2100  232.5100  147.6500 H         6 CUB7        0.0000 
     86 DU        217.8300  231.6300  148.6900 H         6 CUB7        0.0000 
     87 DU        216.3600  231.7900  148.9500 H         6 CUB7        0.0000 
     88 DU        216.5100  231.0700  150.2600 H         6 CUB7        0.0000 
@<TRIPOS>BOND
@<TRIPOS>SUBSTRUCTURE
     1 SER1        1 GROUP   
     2 ALA2        8 GROUP   
     3 ASP3       33 GROUP   
     4 LYS4       50 GROUP   
     5 GLY6       55 GROUP   
     6 CUB7       76 GROUP   
@<TRIPOS>SET

