#    Name: 6j5j_1_ATP
#    Modification time : Fri May 22 19:27:32 2020

@<TRIPOS>MOLECULE
6j5j_1_ATP
   31    33     1     0     1
SMALL
NO_CHARGES


@<TRIPOS>ATOM
      1 PG        179.2150  205.2690  119.5580 P.3       1 ATP601      0.0000 
      2 O1G       180.1120  205.3750  118.3520 O.co2     1 ATP601      0.0000 
      3 O2G       177.8590  205.9040  119.4040 O.co2     1 ATP601      0.0000 
      4 O3G       179.9210  205.5760  120.8530 O.co2     1 ATP601      0.0000 
      5 PB        177.7860  203.1540  120.6870 P.3       1 ATP601      0.0000 
      6 O1B       178.0700  203.7390  122.0410 O.co2     1 ATP601      0.0000 
      7 O2B       176.4390  203.3720  120.0650 O.co2     1 ATP601      0.0000 
      8 O3B       178.8920  203.7020  119.6630 O.3       1 ATP601      0.0000 
      9 PA        177.9700  200.5410  119.5700 P.3       1 ATP601      0.0000 
     10 O1A       178.7300  201.0790  118.3910 O.co2     1 ATP601      0.0000 
     11 O2A       176.5510  200.1000  119.3560 O.co2     1 ATP601      0.0000 
     12 O3A       178.0780  201.5760  120.7940 O.3       1 ATP601      0.0000 
     13 O5'       178.7710  199.2870  120.1590 O.3       1 ATP601      0.0000 
     14 C5'       180.1880  199.2310  120.0590 C.3       1 ATP601      0.0000 
     15 C4'       180.6410  197.7810  120.0600 C.3       1 ATP601      0.0000 
     16 O4'       179.8770  197.0230  120.9970 O.3       1 ATP601      0.0000 
     17 C3'       180.4170  197.1620  118.6950 C.3       1 ATP601      0.0000 
     18 O3'       181.6660  196.7370  118.1530 O.3       1 ATP601      0.0000 
     19 C2'       179.5610  195.9450  118.9320 C.3       1 ATP601      0.0000 
     20 O2'       180.1660  194.8260  118.2890 O.3       1 ATP601      0.0000 
     21 C1'       179.5620  195.7530  120.4340 C.3       1 ATP601      0.0000 
     22 N9        178.2460  195.2650  120.9050 N.pl3     1 ATP601      0.0000 
     23 C8        177.0730  195.9000  120.7660 C.2       1 ATP601      0.0000 
     24 N7        176.0620  195.1810  121.3070 N.2       1 ATP601      0.0000 
     25 C5        176.5900  194.0520  121.8010 C.ar      1 ATP601      0.0000 
     26 C6        176.0810  192.8570  122.5050 C.ar      1 ATP601      0.0000 
     27 N6        174.7670  192.7260  122.7910 N.pl3     1 ATP601      0.0000 
     28 N1        176.9680  191.9030  122.8520 N.ar      1 ATP601      0.0000 
     29 C2        178.2750  192.0230  122.5710 C.ar      1 ATP601      0.0000 
     30 N3        178.8030  193.0820  121.9380 N.ar      1 ATP601      0.0000 
     31 C4        178.0270  194.1120  121.5310 C.ar      1 ATP601      0.0000 
@<TRIPOS>BOND
     1    1    2 ar   
     2    1    3 ar   
     3    1    4 ar   
     4    1    8 1    
     5    5    6 ar   
     6    5    7 ar   
     7    5    8 1    
     8    5   12 1    
     9    9   10 ar   
    10    9   11 ar   
    11    9   12 1    
    12    9   13 1    
    13   13   14 1    
    14   14   15 1    
    15   15   16 1    
    16   15   17 1    
    17   16   21 1    
    18   17   18 1    
    19   17   19 1    
    20   19   20 1    
    21   19   21 1    
    22   21   22 1    
    23   22   23 1    
    24   22   31 1    
    25   23   24 2    
    26   24   25 1    
    27   25   26 ar   
    28   25   31 ar   
    29   26   27 1    
    30   26   28 ar   
    31   28   29 ar   
    32   29   30 ar   
    33   30   31 ar   
@<TRIPOS>SUBSTRUCTURE
     1 ATP601      1 GROUP   
@<TRIPOS>SET
ATOM$ORANGE STATIC     ATOMS   COLORGROUP SYSTEM 
20 14 14 15 15 17 17 19 19 21 21 23 23 25 25 26 26 29 \
29 31 31 

