#    Name: 6j5j_3_ATP
#    Modification time : Fri May 22 19:28:19 2020

@<TRIPOS>MOLECULE
6j5j_3_ATP
   31    33     1     0     1
SMALL
NO_CHARGES


@<TRIPOS>ATOM
      1 PG        210.4470  231.2630  145.8650 P.3       1 ATP601      0.0000 
      2 O1G       209.3780  230.4940  145.1360 O.co2     1 ATP601      0.0000 
      3 O2G       209.9400  232.1050  147.0050 O.co2     1 ATP601      0.0000 
      4 O3G       211.4350  231.9620  144.9670 O.co2     1 ATP601      0.0000 
      5 PB        212.1990  229.0800  145.7610 P.3       1 ATP601      0.0000 
      6 O1B       211.2570  228.2220  144.9630 O.co2     1 ATP601      0.0000 
      7 O2B       213.3260  229.8040  145.0740 O.co2     1 ATP601      0.0000 
      8 O3B       211.3090  230.1240  146.5940 O.3       1 ATP601      0.0000 
      9 PA        214.2650  228.5820  147.5280 P.3       1 ATP601      0.0000 
     10 O1A       214.2800  230.0560  147.8130 O.co2     1 ATP601      0.0000 
     11 O2A       215.3440  228.0120  146.6510 O.co2     1 ATP601      0.0000 
     12 O3A       212.8200  228.1990  146.9480 O.3       1 ATP601      0.0000 
     13 O5'       214.2970  227.8510  148.9500 O.3       1 ATP601      0.0000 
     14 C5'       215.2110  228.3620  149.9060 C.3       1 ATP601      0.0000 
     15 C4'       214.9780  227.6990  151.2500 C.3       1 ATP601      0.0000 
     16 O4'       214.8960  226.2920  151.0580 O.3       1 ATP601      0.0000 
     17 C3'       216.1390  227.9820  152.1800 C.3       1 ATP601      0.0000 
     18 O3'       215.6690  228.6430  153.3530 O.3       1 ATP601      0.0000 
     19 C2'       216.7110  226.6330  152.5510 C.3       1 ATP601      0.0000 
     20 O2'       216.6600  226.4700  153.9690 O.3       1 ATP601      0.0000 
     21 C1'       215.8350  225.5950  151.8740 C.3       1 ATP601      0.0000 
     22 N9        216.6650  224.7460  150.9900 N.pl3     1 ATP601      0.0000 
     23 C8        216.7130  224.8400  149.6500 C.2       1 ATP601      0.0000 
     24 N7        217.5620  223.9270  149.1220 N.2       1 ATP601      0.0000 
     25 C5        218.0720  223.2260  150.1460 C.ar      1 ATP601      0.0000 
     26 C6        219.0310  222.1150  150.2940 C.ar      1 ATP601      0.0000 
     27 N6        219.6220  221.5610  149.2090 N.pl3     1 ATP601      0.0000 
     28 N1        219.2960  221.6720  151.5390 N.ar      1 ATP601      0.0000 
     29 C2        218.7150  222.2160  152.6190 C.ar      1 ATP601      0.0000 
     30 N3        217.8380  223.2290  152.5610 N.ar      1 ATP601      0.0000 
     31 C4        217.4800  223.7660  151.3750 C.ar      1 ATP601      0.0000 
@<TRIPOS>BOND
     1    1    2 ar   
     2    1    3 ar   
     3    1    4 ar   
     4    1    8 1    
     5    5    6 ar   
     6    5    7 ar   
     7    5    8 1    
     8    5   12 1    
     9    9   10 ar   
    10    9   11 ar   
    11    9   12 1    
    12    9   13 1    
    13   13   14 1    
    14   14   15 1    
    15   15   16 1    
    16   15   17 1    
    17   16   21 1    
    18   17   18 1    
    19   17   19 1    
    20   19   20 1    
    21   19   21 1    
    22   21   22 1    
    23   22   23 1    
    24   22   31 1    
    25   23   24 2    
    26   24   25 1    
    27   25   26 ar   
    28   25   31 ar   
    29   26   27 1    
    30   26   28 ar   
    31   28   29 ar   
    32   29   30 ar   
    33   30   31 ar   
@<TRIPOS>SUBSTRUCTURE
     1 ATP601      1 GROUP   
@<TRIPOS>SET
ATOM$ORANGE STATIC     ATOMS   COLORGROUP SYSTEM 
20 14 14 15 15 17 17 19 19 21 21 23 23 25 25 26 26 29 \
29 31 31 

