#    Name: 6poe_1_COA
#    Modification time : Fri May 22 19:29:52 2020

@<TRIPOS>MOLECULE
6poe_1_COA
   48    50     1     0     1
SMALL
NO_CHARGES


@<TRIPOS>ATOM
      1 N1A        14.4190   18.5420  -24.4380 N.ar      1 COA1201     0.0000 
      2 C2A        14.6600   19.1910  -25.5970 C.ar      1 COA1201     0.0000 
      3 N3A        14.0900   20.3970  -25.8180 N.ar      1 COA1201     0.0000 
      4 C4A        13.2850   20.9440  -24.8890 C.ar      1 COA1201     0.0000 
      5 C5A        13.0470   20.3100  -23.7490 C.ar      1 COA1201     0.0000 
      6 C6A        13.6320   19.0790  -23.5270 C.ar      1 COA1201     0.0000 
      7 N6A        13.6560   18.0640  -22.4690 N.pl3     1 COA1201     0.0000 
      8 N7A        12.2240   21.0720  -23.0070 N.2       1 COA1201     0.0000 
      9 C8A        11.9550   22.1900  -23.7100 C.2       1 COA1201     0.0000 
     10 N9A        12.6030   22.1150  -24.8680 N.pl3     1 COA1201     0.0000 
     11 C1B        12.5750   23.1210  -25.8810 C.3       1 COA1201     0.0000 
     12 C2B        11.5190   23.0070  -26.6740 C.3       1 COA1201     0.0000 
     13 O2B        11.7700   21.9660  -27.7000 O.3       1 COA1201     0.0000 
     14 C3B        11.5090   24.3900  -27.3240 C.3       1 COA1201     0.0000 
     15 O3B        12.5590   24.4700  -28.1870 O.3       1 COA1201     0.0000 
     16 P3B        12.3000   24.8740  -29.7590 P.3       1 COA1201     0.0000 
     17 O7A        10.8440   24.6630  -30.1050 O.co2     1 COA1201     0.0000 
     18 O8A        13.1630   24.0170  -30.6460 O.co2     1 COA1201     0.0000 
     19 O9A        12.6680   26.3220  -29.9700 O.co2     1 COA1201     0.0000 
     20 C4B        11.7730   25.3350  -26.1050 C.3       1 COA1201     0.0000 
     21 O4B        12.4480   24.6120  -25.2410 O.3       1 COA1201     0.0000 
     22 C5B        10.4360   25.7900  -25.4750 C.3       1 COA1201     0.0000 
     23 O5B        10.6410   26.9850  -24.7070 O.3       1 COA1201     0.0000 
     24 P1A        10.6420   28.4440  -25.5170 P.3       1 COA1201     0.0000 
     25 O1A         9.6120   28.3810  -26.6160 O.co2     1 COA1201     0.0000 
     26 O2A        12.0160   28.6790  -26.1260 O.co2     1 COA1201     0.0000 
     27 O3A        10.2590   29.6610  -24.4830 O.3       1 COA1201     0.0000 
     28 P2A        11.0720   31.0930  -24.2990 P.3       1 COA1201     0.0000 
     29 O4A        10.7340   31.6670  -22.9380 O.co2     1 COA1201     0.0000 
     30 O5A        12.5630   30.8830  -24.3740 O.co2     1 COA1201     0.0000 
     31 O6A        10.5890   32.1820  -25.4680 O.3       1 COA1201     0.0000 
     32 CBP        10.7090   34.6020  -25.8050 C.3       1 COA1201     0.0000 
     33 CCP        10.0230   33.3870  -25.0480 C.3       1 COA1201     0.0000 
     34 CDP        12.0440   34.9710  -25.0590 C.3       1 COA1201     0.0000 
     35 CEP        11.0210   34.1550  -27.2150 C.3       1 COA1201     0.0000 
     36 CAP         9.7260   35.8230  -25.8570 C.3       1 COA1201     0.0000 
     37 OAP         8.8320   35.7450  -24.8140 O.3       1 COA1201     0.0000 
     38 C9P        10.4540   37.1880  -25.8140 C.2       1 COA1201     0.0000 
     39 O9P        10.9640   37.6250  -26.7810 O.2       1 COA1201     0.0000 
     40 N8P        10.5020   37.9800  -24.5510 N.am      1 COA1201     0.0000 
     41 C7P        11.1980   39.2910  -24.5150 C.3       1 COA1201     0.0000 
     42 C6P        12.0680   39.3730  -23.2290 C.3       1 COA1201     0.0000 
     43 C5P        12.4520   40.8580  -22.9200 C.2       1 COA1201     0.0000 
     44 O5P        12.6330   41.2040  -21.7960 O.2       1 COA1201     0.0000 
     45 N4P        12.5970   41.8210  -24.0070 N.am      1 COA1201     0.0000 
     46 C3P        12.9590   43.2110  -23.7150 C.3       1 COA1201     0.0000 
     47 C2P        12.9120   44.0260  -24.9840 C.3       1 COA1201     0.0000 
     48 S1P        13.2960   45.7530  -24.6020 S.3       1 COA1201     0.0000 
@<TRIPOS>BOND
     1    1    2 ar   
     2    1    6 ar   
     3    2    3 ar   
     4    3    4 ar   
     5    4    5 ar   
     6    4   10 1    
     7    5    6 ar   
     8    5    8 1    
     9    6    7 1    
    10    8    9 2    
    11    9   10 1    
    12   10   11 1    
    13   11   12 1    
    14   11   21 1    
    15   12   13 1    
    16   12   14 1    
    17   14   15 1    
    18   14   20 1    
    19   15   16 1    
    20   16   17 ar   
    21   16   18 ar   
    22   16   19 ar   
    23   20   21 1    
    24   20   22 1    
    25   22   23 1    
    26   23   24 1    
    27   24   25 ar   
    28   24   26 ar   
    29   24   27 1    
    30   27   28 1    
    31   28   29 ar   
    32   28   30 ar   
    33   28   31 1    
    34   31   33 1    
    35   32   33 1    
    36   32   34 1    
    37   32   35 1    
    38   32   36 1    
    39   36   37 1    
    40   36   38 1    
    41   38   39 2    
    42   38   40 am   
    43   40   41 1    
    44   41   42 1    
    45   42   43 1    
    46   43   44 2    
    47   43   45 am   
    48   45   46 1    
    49   46   47 1    
    50   47   48 1    
@<TRIPOS>SUBSTRUCTURE
     1 COA1201     1 GROUP   
@<TRIPOS>SET
ATOM$ORANGE STATIC     ATOMS   COLORGROUP SYSTEM 
42 2 2 4 4 5 5 6 6 9 9 11 11 12 12 14 14 20 \
20 22 22 32 32 33 33 34 34 35 35 36 36 38 38 41 41 42 \
42 43 43 46 46 47 47 

