#    Name: 6poe_3_COA
#    Modification time : Fri May 22 19:30:33 2020

@<TRIPOS>MOLECULE
6poe_3_COA
   48    50     1     0     1
SMALL
NO_CHARGES


@<TRIPOS>ATOM
      1 N1A       -14.5290   16.7280   25.0200 N.ar      1 COA1201     0.0000 
      2 C2A       -14.9400   17.0660   26.2590 C.ar      1 COA1201     0.0000 
      3 N3A       -14.6820   18.3030   26.7330 N.ar      1 COA1201     0.0000 
      4 C4A       -14.0200   19.1890   25.9740 C.ar      1 COA1201     0.0000 
      5 C5A       -13.6180   18.8590   24.7610 C.ar      1 COA1201     0.0000 
      6 C6A       -13.8810   17.6000   24.2800 C.ar      1 COA1201     0.0000 
      7 N6A       -13.6310   16.8460   23.0510 N.pl3     1 COA1201     0.0000 
      8 N7A       -12.9900   19.9130   24.2230 N.2       1 COA1201     0.0000 
      9 C8A       -13.0070   20.9060   25.1280 C.2       1 COA1201     0.0000 
     10 N9A       -13.6400   20.4660   26.2020 N.pl3     1 COA1201     0.0000 
     11 C1B       -13.8560   21.2460   27.3650 C.3       1 COA1201     0.0000 
     12 C2B       -12.7050   21.5190   27.9560 C.3       1 COA1201     0.0000 
     13 O2B       -12.3180   20.4130   28.8630 O.3       1 COA1201     0.0000 
     14 C3B       -13.0750   22.7650   28.7560 C.3       1 COA1201     0.0000 
     15 O3B       -13.9640   22.4480   29.7300 O.3       1 COA1201     0.0000 
     16 P3B       -13.5240   22.6140   31.2990 P.3       1 COA1201     0.0000 
     17 O7A       -14.3410   21.6560   32.1290 O.co2     1 COA1201     0.0000 
     18 O8A       -13.7920   24.0190   31.7430 O.co2     1 COA1201     0.0000 
     19 O9A       -12.0530   22.3280   31.4510 O.co2     1 COA1201     0.0000 
     20 C4B       -13.8110   23.5880   27.6620 C.3       1 COA1201     0.0000 
     21 O4B       -14.4730   22.6950   26.9710 O.3       1 COA1201     0.0000 
     22 C5B       -12.7520   24.2460   26.7590 C.3       1 COA1201     0.0000 
     23 O5B       -13.0490   25.6370   26.6360 O.3       1 COA1201     0.0000 
     24 P1A       -11.7640   26.6660   26.4160 P.3       1 COA1201     0.0000 
     25 O1A       -10.7830   26.0350   25.4600 O.co2     1 COA1201     0.0000 
     26 O2A       -11.0970   26.9380   27.7530 O.co2     1 COA1201     0.0000 
     27 O3A       -12.3150   28.0730   25.7950 O.3       1 COA1201     0.0000 
     28 P2A       -13.6390   28.8460   26.3950 P.3       1 COA1201     0.0000 
     29 O4A       -14.7590   28.8060   25.3750 O.co2     1 COA1201     0.0000 
     30 O5A       -14.0940   28.1590   27.6530 O.co2     1 COA1201     0.0000 
     31 O6A       -13.2330   30.4290   26.7240 O.3       1 COA1201     0.0000 
     32 CBP       -12.0190   32.2480   27.7480 C.3       1 COA1201     0.0000 
     33 CCP       -12.3240   30.6950   27.7450 C.3       1 COA1201     0.0000 
     34 CDP       -11.3480   32.6210   29.1110 C.3       1 COA1201     0.0000 
     35 CEP       -11.0520   32.5590   26.6320 C.3       1 COA1201     0.0000 
     36 CAP       -13.3720   33.0010   27.5480 C.3       1 COA1201     0.0000 
     37 OAP       -14.1000   32.9210   28.7100 O.3       1 COA1201     0.0000 
     38 C9P       -13.2040   34.4810   27.1470 C.2       1 COA1201     0.0000 
     39 O9P       -13.3610   34.8120   26.0280 O.2       1 COA1201     0.0000 
     40 N8P       -12.8750   35.5140   28.1700 N.am      1 COA1201     0.0000 
     41 C7P       -12.7220   36.9320   27.7620 C.3       1 COA1201     0.0000 
     42 C6P       -14.0240   37.7210   28.0620 C.3       1 COA1201     0.0000 
     43 C5P       -13.6600   39.1810   28.4890 C.2       1 COA1201     0.0000 
     44 O5P       -13.4980   39.4390   29.6370 O.2       1 COA1201     0.0000 
     45 N4P       -13.5150   40.2230   27.4780 N.am      1 COA1201     0.0000 
     46 C3P       -13.1720   41.5960   27.8680 C.3       1 COA1201     0.0000 
     47 C2P       -14.4180   42.3610   28.2450 C.3       1 COA1201     0.0000 
     48 S1P       -14.8640   43.4970   26.9070 S.3       1 COA1201     0.0000 
@<TRIPOS>BOND
     1    1    2 ar   
     2    1    6 ar   
     3    2    3 ar   
     4    3    4 ar   
     5    4    5 ar   
     6    4   10 1    
     7    5    6 ar   
     8    5    8 1    
     9    6    7 1    
    10    8    9 2    
    11    9   10 1    
    12   10   11 1    
    13   11   12 1    
    14   11   21 1    
    15   12   13 1    
    16   12   14 1    
    17   14   15 1    
    18   14   20 1    
    19   15   16 1    
    20   16   17 ar   
    21   16   18 ar   
    22   16   19 ar   
    23   20   21 1    
    24   20   22 1    
    25   22   23 1    
    26   23   24 1    
    27   24   25 ar   
    28   24   26 ar   
    29   24   27 1    
    30   27   28 1    
    31   28   29 ar   
    32   28   30 ar   
    33   28   31 1    
    34   31   33 1    
    35   32   33 1    
    36   32   34 1    
    37   32   35 1    
    38   32   36 1    
    39   36   37 1    
    40   36   38 1    
    41   38   39 2    
    42   38   40 am   
    43   40   41 1    
    44   41   42 1    
    45   42   43 1    
    46   43   44 2    
    47   43   45 am   
    48   45   46 1    
    49   46   47 1    
    50   47   48 1    
@<TRIPOS>SUBSTRUCTURE
     1 COA1201     1 GROUP   
@<TRIPOS>SET
ATOM$ORANGE STATIC     ATOMS   COLORGROUP SYSTEM 
42 2 2 4 4 5 5 6 6 9 9 11 11 12 12 14 14 20 \
20 22 22 32 32 33 33 34 34 35 35 36 36 38 38 41 41 42 \
42 43 43 46 46 47 47 

