#    Name: 6poe_4_COA
#    Modification time : Fri May 22 19:30:59 2020

@<TRIPOS>MOLECULE
6poe_4_COA
   48    50     1     0     1
SMALL
NO_CHARGES


@<TRIPOS>ATOM
      1 N1A        -8.2670  -14.7920  -23.9770 N.ar      1 COA1202     0.0000 
      2 C2A        -7.7660  -15.3950  -25.0730 C.ar      1 COA1202     0.0000 
      3 N3A        -7.0570  -16.5350  -24.9350 N.ar      1 COA1202     0.0000 
      4 C4A        -6.8530  -17.0690  -23.7180 C.ar      1 COA1202     0.0000 
      5 C5A        -7.3460  -16.4770  -22.6460 C.ar      1 COA1202     0.0000 
      6 C6A        -8.0670  -15.3140  -22.7840 C.ar      1 COA1202     0.0000 
      7 N6A        -8.7560  -14.3750  -21.8930 N.pl3     1 COA1202     0.0000 
      8 N7A        -7.0060  -17.1980  -21.5680 N.2       1 COA1202     0.0000 
      9 C8A        -6.2920  -18.2550  -21.9890 C.2       1 COA1202     0.0000 
     10 N9A        -6.1910  -18.1770  -23.3030 N.pl3     1 COA1202     0.0000 
     11 C1B        -5.5040  -19.1500  -24.0730 C.3       1 COA1202     0.0000 
     12 C2B        -4.2320  -18.8180  -24.2650 C.3       1 COA1202     0.0000 
     13 O2B        -4.0700  -17.9870  -25.4860 O.3       1 COA1202     0.0000 
     14 C3B        -3.6020  -20.1940  -24.4790 C.3       1 COA1202     0.0000 
     15 O3B        -4.0240  -20.7060  -25.6680 O.3       1 COA1202     0.0000 
     16 P3B        -3.3350  -22.0880  -26.2280 P.3       1 COA1202     0.0000 
     17 O7A        -4.1690  -23.2720  -25.8030 O.co2     1 COA1202     0.0000 
     18 O8A        -1.9490  -22.2140  -25.6640 O.co2     1 COA1202     0.0000 
     19 O9A        -3.2520  -22.0350  -27.7330 O.co2     1 COA1202     0.0000 
     20 C4B        -4.2340  -20.9830  -23.2930 C.3       1 COA1202     0.0000 
     21 O4B        -5.4690  -20.5480  -23.2420 O.3       1 COA1202     0.0000 
     22 C5B        -3.4830  -20.5910  -22.0020 C.3       1 COA1202     0.0000 
     23 O5B        -3.9690  -21.3500  -20.8930 O.3       1 COA1202     0.0000 
     24 P1A        -4.0740  -20.5770  -19.4220 P.3       1 COA1202     0.0000 
     25 O1A        -3.2760  -19.2990  -19.4230 O.co2     1 COA1202     0.0000 
     26 O2A        -3.5420  -21.5070  -18.3480 O.co2     1 COA1202     0.0000 
     27 O3A        -5.6370  -20.2200  -19.1230 O.3       1 COA1202     0.0000 
     28 P2A        -6.1350  -19.6200  -17.6800 P.3       1 COA1202     0.0000 
     29 O4A        -7.2210  -20.5270  -17.1490 O.co2     1 COA1202     0.0000 
     30 O5A        -4.9710  -19.6040  -16.7330 O.co2     1 COA1202     0.0000 
     31 O6A        -6.7110  -18.0680  -17.8680 O.3       1 COA1202     0.0000 
     32 CBP        -6.3410  -15.8930  -16.8480 C.3       1 COA1202     0.0000 
     33 CCP        -7.0040  -17.3260  -16.7270 C.3       1 COA1202     0.0000 
     34 CDP        -7.0470  -14.9370  -15.8310 C.3       1 COA1202     0.0000 
     35 CEP        -4.8770  -15.9740  -16.4900 C.3       1 COA1202     0.0000 
     36 CAP        -6.4920  -15.3960  -18.3150 C.3       1 COA1202     0.0000 
     37 OAP        -7.6440  -15.9110  -18.8500 O.3       1 COA1202     0.0000 
     38 C9P        -6.5380  -13.8640  -18.3980 C.2       1 COA1202     0.0000 
     39 O9P        -5.5530  -13.2350  -18.2690 O.2       1 COA1202     0.0000 
     40 N8P        -7.8300  -13.1740  -18.6590 N.am      1 COA1202     0.0000 
     41 C7P        -7.8730  -11.6990  -18.7430 C.3       1 COA1202     0.0000 
     42 C6P        -7.8780  -11.0870  -17.3180 C.3       1 COA1202     0.0000 
     43 C5P        -9.2070  -11.4640  -16.5980 C.2       1 COA1202     0.0000 
     44 O5P       -10.2320  -11.4230  -17.1890 O.2       1 COA1202     0.0000 
     45 N4P        -9.2080  -11.8580  -15.2010 N.am      1 COA1202     0.0000 
     46 C3P       -10.4790  -12.2070  -14.5680 C.3       1 COA1202     0.0000 
     47 C2P       -10.4500  -13.6620  -14.1790 C.3       1 COA1202     0.0000 
     48 S1P        -9.1170  -13.9250  -12.9840 S.3       1 COA1202     0.0000 
@<TRIPOS>BOND
     1    1    2 ar   
     2    1    6 ar   
     3    2    3 ar   
     4    3    4 ar   
     5    4    5 ar   
     6    4   10 1    
     7    5    6 ar   
     8    5    8 1    
     9    6    7 1    
    10    8    9 2    
    11    9   10 1    
    12   10   11 1    
    13   11   12 1    
    14   11   21 1    
    15   12   13 1    
    16   12   14 1    
    17   14   15 1    
    18   14   20 1    
    19   15   16 1    
    20   16   17 ar   
    21   16   18 ar   
    22   16   19 ar   
    23   20   21 1    
    24   20   22 1    
    25   22   23 1    
    26   23   24 1    
    27   24   25 ar   
    28   24   26 ar   
    29   24   27 1    
    30   27   28 1    
    31   28   29 ar   
    32   28   30 ar   
    33   28   31 1    
    34   31   33 1    
    35   32   33 1    
    36   32   34 1    
    37   32   35 1    
    38   32   36 1    
    39   36   37 1    
    40   36   38 1    
    41   38   39 2    
    42   38   40 am   
    43   40   41 1    
    44   41   42 1    
    45   42   43 1    
    46   43   44 2    
    47   43   45 am   
    48   45   46 1    
    49   46   47 1    
    50   47   48 1    
@<TRIPOS>SUBSTRUCTURE
     1 COA1202     1 GROUP   
@<TRIPOS>SET
ATOM$ORANGE STATIC     ATOMS   COLORGROUP SYSTEM 
42 2 2 4 4 5 5 6 6 9 9 11 11 12 12 14 14 20 \
20 22 22 32 32 33 33 34 34 35 35 36 36 38 38 41 41 42 \
42 43 43 46 46 47 47 

