#    Name: 6poe_2_COA
#    Modification time : Fri May 22 19:30:11 2020

@<TRIPOS>MOLECULE
6poe_2_COA
   48    50     1     0     1
SMALL
NO_CHARGES


@<TRIPOS>ATOM
      1 N1A        13.7800  -16.8480   24.7650 N.ar      1 COA1202     0.0000 
      2 C2A        14.0680  -17.3130   25.9960 C.ar      1 COA1202     0.0000 
      3 N3A        13.7070  -18.5680   26.3300 N.ar      1 COA1202     0.0000 
      4 C4A        13.0660  -19.3450   25.4430 C.ar      1 COA1202     0.0000 
      5 C5A        12.7830  -18.8900   24.2400 C.ar      1 COA1202     0.0000 
      6 C6A        13.1510  -17.6120   23.9010 C.ar      1 COA1202     0.0000 
      7 N6A        13.0500  -16.7320   22.7380 N.pl3     1 COA1202     0.0000 
      8 N7A        12.1530  -19.8580   23.5660 N.2       1 COA1202     0.0000 
      9 C8A        12.0450  -20.9230   24.3760 C.2       1 COA1202     0.0000 
     10 N9A        12.6070  -20.6100   25.5290 N.pl3     1 COA1202     0.0000 
     11 C1B        12.6970  -21.4870   26.6400 C.3       1 COA1202     0.0000 
     12 C2B        11.4990  -21.8790   27.0300 C.3       1 COA1202     0.0000 
     13 O2B        10.9060  -20.8560   27.9190 O.3       1 COA1202     0.0000 
     14 C3B        11.8380  -23.1170   27.8570 C.3       1 COA1202     0.0000 
     15 O3B        12.2320  -22.6830   29.0810 O.3       1 COA1202     0.0000 
     16 P3B        12.0500  -23.6530   30.3890 P.3       1 COA1202     0.0000 
     17 O7A        12.3510  -22.8590   31.6320 O.co2     1 COA1202     0.0000 
     18 O8A        13.0060  -24.8050   30.2900 O.co2     1 COA1202     0.0000 
     19 O9A        10.6350  -24.1660   30.4500 O.co2     1 COA1202     0.0000 
     20 C4B        13.0540  -23.7510   27.1010 C.3       1 COA1202     0.0000 
     21 O4B        13.4260  -22.8640   26.2100 O.3       1 COA1202     0.0000 
     22 C5B        12.6440  -25.0650   26.3980 C.3       1 COA1202     0.0000 
     23 O5B        11.2520  -25.0290   26.0710 O.3       1 COA1202     0.0000 
     24 P1A        10.7430  -25.8190   24.6990 P.3       1 COA1202     0.0000 
     25 O1A        10.9390  -24.9620   23.4750 O.co2     1 COA1202     0.0000 
     26 O2A         9.2710  -26.1650   24.8470 O.co2     1 COA1202     0.0000 
     27 O3A        11.5990  -27.2030   24.5700 O.3       1 COA1202     0.0000 
     28 P2A        11.3140  -28.4310   25.6240 P.3       1 COA1202     0.0000 
     29 O4A        10.7620  -27.8190   26.8910 O.co2     1 COA1202     0.0000 
     30 O5A        10.2900  -29.3650   25.0410 O.co2     1 COA1202     0.0000 
     31 O6A        12.7070  -29.2860   25.9450 O.3       1 COA1202     0.0000 
     32 CBP        12.4720  -31.7140   26.4270 C.3       1 COA1202     0.0000 
     33 CCP        12.6550  -30.2290   26.9710 C.3       1 COA1202     0.0000 
     34 CDP        12.6930  -31.7390   24.8710 C.3       1 COA1202     0.0000 
     35 CEP        13.5050  -32.5950   27.0950 C.3       1 COA1202     0.0000 
     36 CAP        11.0330  -32.1910   26.7950 C.3       1 COA1202     0.0000 
     37 OAP        10.1240  -31.4400   26.0980 O.3       1 COA1202     0.0000 
     38 C9P        10.7670  -33.6760   26.4930 C.2       1 COA1202     0.0000 
     39 O9P        10.8470  -34.4630   27.3570 O.2       1 COA1202     0.0000 
     40 N8P        10.3670  -34.1360   25.1320 N.am      1 COA1202     0.0000 
     41 C7P        10.1040  -35.5730   24.8750 C.3       1 COA1202     0.0000 
     42 C6P        11.4410  -36.3540   24.7320 C.3       1 COA1202     0.0000 
     43 C5P        11.6130  -37.3110   25.9590 C.2       1 COA1202     0.0000 
     44 O5P        10.7580  -37.3790   26.7770 O.2       1 COA1202     0.0000 
     45 N4P        12.8080  -38.1310   26.1130 N.am      1 COA1202     0.0000 
     46 C3P        12.9240  -39.0150   27.2760 C.3       1 COA1202     0.0000 
     47 C2P        13.7210  -40.2420   26.9110 C.3       1 COA1202     0.0000 
     48 S1P        12.7130  -41.3440   25.8890 S.3       1 COA1202     0.0000 
@<TRIPOS>BOND
     1    1    2 ar   
     2    1    6 ar   
     3    2    3 ar   
     4    3    4 ar   
     5    4    5 ar   
     6    4   10 1    
     7    5    6 ar   
     8    5    8 1    
     9    6    7 1    
    10    8    9 2    
    11    9   10 1    
    12   10   11 1    
    13   11   12 1    
    14   11   21 1    
    15   12   13 1    
    16   12   14 1    
    17   14   15 1    
    18   14   20 1    
    19   15   16 1    
    20   16   17 ar   
    21   16   18 ar   
    22   16   19 ar   
    23   20   21 1    
    24   20   22 1    
    25   22   23 1    
    26   23   24 1    
    27   24   25 ar   
    28   24   26 ar   
    29   24   27 1    
    30   27   28 1    
    31   28   29 ar   
    32   28   30 ar   
    33   28   31 1    
    34   31   33 1    
    35   32   33 1    
    36   32   34 1    
    37   32   35 1    
    38   32   36 1    
    39   36   37 1    
    40   36   38 1    
    41   38   39 2    
    42   38   40 am   
    43   40   41 1    
    44   41   42 1    
    45   42   43 1    
    46   43   44 2    
    47   43   45 am   
    48   45   46 1    
    49   46   47 1    
    50   47   48 1    
@<TRIPOS>SUBSTRUCTURE
     1 COA1202     1 GROUP   
@<TRIPOS>SET
ATOM$ORANGE STATIC     ATOMS   COLORGROUP SYSTEM 
42 2 2 4 4 5 5 6 6 9 9 11 11 12 12 14 14 20 \
20 22 22 32 32 33 33 34 34 35 35 36 36 38 38 41 41 42 \
42 43 43 46 46 47 47 

