#    Name: 6dg8_1_SRO
#    Modification time : Fri May 22 19:33:45 2020

@<TRIPOS>MOLECULE
6dg8_1_SRO
   13    14     1     0     0
SMALL
NO_CHARGES


@<TRIPOS>ATOM
      1 OH        148.3460  137.8430  194.1160 O.3       1 SRO501      0.0000 
      2 CZ3       146.9920  137.5380  193.9300 C.ar      1 SRO501      0.0000 
      3 CH2       146.6150  136.3230  193.3510 C.ar      1 SRO501      0.0000 
      4 CZ2       145.2690  136.0270  193.1690 C.ar      1 SRO501      0.0000 
      5 CE2       144.2780  136.9630  193.5740 C.ar      1 SRO501      0.0000 
      6 NE1       142.9230  136.9290  193.5140 N.pl3     1 SRO501      0.0000 
      7 CD1       142.4100  138.0370  194.0150 C.2       1 SRO501      0.0000 
      8 CG        143.4470  138.8600  194.4320 C.2       1 SRO501      0.0000 
      9 CD2       144.6500  138.1540  194.1400 C.ar      1 SRO501      0.0000 
     10 CE3       146.0210  138.4520  194.3260 C.ar      1 SRO501      0.0000 
     11 CB        143.3180  140.2400  195.0720 C.3       1 SRO501      0.0000 
     12 CA        141.9190  140.8350  194.9220 C.3       1 SRO501      0.0000 
     13 NZ        141.7960  141.5930  193.6910 N.4       1 SRO501      0.0000 
@<TRIPOS>BOND
     1    1    2 1    
     2    2    3 ar   
     3    2   10 ar   
     4    3    4 ar   
     5    4    5 ar   
     6    5    6 1    
     7    5    9 ar   
     8    6    7 1    
     9    7    8 2    
    10    8    9 1    
    11    8   11 1    
    12    9   10 ar   
    13   11   12 1    
    14   12   13 1    
@<TRIPOS>SUBSTRUCTURE
     1 SRO501      1 GROUP   
@<TRIPOS>SET

