#    Name: 6dg8_4_SRO_CAVITY_N1_4
#    Modification time : Fri May 22 19:34:11 2020

@<TRIPOS>MOLECULE
6dg8_4_SRO_CAVITY_N1_4
   51     0     7     0     0
SMALL
NO_CHARGES


@<TRIPOS>ATOM
      1 OG        187.2600  171.2600  197.4400 O.3       1 SER1        0.0000 
      2 N         184.0500  164.9700  194.9200 N.am      2 ALA2        0.0000 
      3 N         183.5800  167.2500  196.0800 N.am      2 ALA2        0.0000 
      4 OD1       183.5700  171.5100  193.5000 O.co2     3 ASP3        0.0000 
      5 OD1       185.4700  172.2100  192.9000 O.co2     3 ASP3        0.0000 
      6 OD1       184.9200  170.8900  193.3400 O.co2     3 ASP3        0.0000 
      7 OD1       185.2500  171.2200  194.7600 O.co2     3 ASP3        0.0000 
      8 OD1       187.7100  173.2400  193.7200 O.co2     3 ASP3        0.0000 
      9 OD1       187.1600  171.9200  194.1500 O.co2     3 ASP3        0.0000 
     10 OD1       186.6000  170.5900  194.5900 O.co2     3 ASP3        0.0000 
     11 OD1       187.4900  172.2500  195.5800 O.co2     3 ASP3        0.0000 
     12 NZ        188.8400  171.6300  195.4100 N.4       4 LYS4        0.0000 
     13 NZ        188.2900  170.3000  195.8500 N.4       4 LYS4        0.0000 
     14 CZ        184.0300  169.2300  192.3500 C.ar      5 PHE5        0.0000 
     15 CZ        183.4800  167.9100  192.7900 C.ar      5 PHE5        0.0000 
     16 CZ        185.9400  169.9300  191.7400 C.ar      5 PHE5        0.0000 
     17 CZ        185.3900  168.6100  192.1800 C.ar      5 PHE5        0.0000 
     18 CZ        184.8300  167.2800  192.6200 C.ar      5 PHE5        0.0000 
     19 CZ        184.2800  165.9600  193.0600 C.ar      5 PHE5        0.0000 
     20 CZ        186.7400  167.9800  192.0100 C.ar      5 PHE5        0.0000 
     21 CZ        186.1800  166.6600  192.4500 C.ar      5 PHE5        0.0000 
     22 CZ        185.6300  165.3400  192.8900 C.ar      5 PHE5        0.0000 
     23 CZ        185.0700  164.0100  193.3300 C.ar      5 PHE5        0.0000 
     24 CZ        183.0100  170.1900  193.9400 C.ar      5 PHE5        0.0000 
     25 CZ        182.4500  168.8600  194.3800 C.ar      5 PHE5        0.0000 
     26 CZ        184.3600  169.5600  193.7700 C.ar      5 PHE5        0.0000 
     27 CZ        183.8100  168.2400  194.2100 C.ar      5 PHE5        0.0000 
     28 CZ        183.2500  166.9200  194.6500 C.ar      5 PHE5        0.0000 
     29 CZ        185.7200  168.9400  193.6100 C.ar      5 PHE5        0.0000 
     30 CZ        184.6100  166.2900  194.4800 C.ar      5 PHE5        0.0000 
     31 CZ        186.5100  166.9900  193.8800 C.ar      5 PHE5        0.0000 
     32 CZ        185.9600  165.6700  194.3200 C.ar      5 PHE5        0.0000 
     33 CZ        185.4000  164.3500  194.7500 C.ar      5 PHE5        0.0000 
     34 CZ        184.6900  169.9000  195.2000 C.ar      5 PHE5        0.0000 
     35 CZ        184.1400  168.5700  195.6400 C.ar      5 PHE5        0.0000 
     36 CZ        186.0500  169.2700  195.0300 C.ar      5 PHE5        0.0000 
     37 CZ        185.4900  167.9500  195.4700 C.ar      5 PHE5        0.0000 
     38 CZ        184.9400  166.6300  195.9100 C.ar      5 PHE5        0.0000 
     39 CZ        187.4000  168.6500  194.8600 C.ar      5 PHE5        0.0000 
     40 CZ        186.9300  170.9300  196.0200 C.ar      5 PHE5        0.0000 
     41 CZ        186.3800  169.6100  196.4600 C.ar      5 PHE5        0.0000 
     42 CZ        187.7300  168.9800  196.2900 C.ar      5 PHE5        0.0000 
     43 CA        183.2400  171.1800  192.0800 C.3       6 GLY6        0.0000 
     44 CA        184.5900  170.5500  191.9100 C.3       6 GLY6        0.0000 
     45 CA        187.3800  172.9100  192.2900 C.3       6 GLY6        0.0000 
     46 CA        186.8300  171.5800  192.7300 C.3       6 GLY6        0.0000 
     47 CA        186.2700  170.2600  193.1700 C.3       6 GLY6        0.0000 
     48 CA        187.0700  168.3100  193.4400 C.3       6 GLY6        0.0000 
     49 CA        188.5100  171.2900  193.9900 C.3       6 GLY6        0.0000 
     50 CA        187.9600  169.9700  194.4300 C.3       6 GLY6        0.0000 
     51 DU        185.1600  167.6200  194.0500 H         7 CUB7        0.0000 
@<TRIPOS>BOND
@<TRIPOS>SUBSTRUCTURE
     1 SER1        1 GROUP   
     2 ALA2        2 GROUP   
     3 ASP3        4 GROUP   
     4 LYS4       12 GROUP   
     5 PHE5       14 GROUP   
     6 GLY6       43 GROUP   
     7 CUB7       51 GROUP   
@<TRIPOS>SET

