#    Name: 6dg8_1_SRO_CAVITY_N1_4
#    Modification time : Fri May 22 19:33:46 2020

@<TRIPOS>MOLECULE
6dg8_1_SRO_CAVITY_N1_4
   45     0     4     0     0
SMALL
NO_CHARGES


@<TRIPOS>ATOM
      1 N         147.9000  137.3200  193.9800 N.am      1 ALA2        0.0000 
      2 N         144.1700  139.5200  195.9100 N.am      1 ALA2        0.0000 
      3 OD1       146.1300  134.0000  192.0100 O.co2     2 ASP3        0.0000 
      4 OD1       145.5800  132.6800  192.4500 O.co2     2 ASP3        0.0000 
      5 OD1       147.4800  133.3800  191.8400 O.co2     2 ASP3        0.0000 
      6 OD1       145.1100  134.9600  193.6000 O.co2     2 ASP3        0.0000 
      7 OD1       144.5500  133.6400  194.0400 O.co2     2 ASP3        0.0000 
      8 OD1       147.0200  135.6600  192.9900 O.co2     2 ASP3        0.0000 
      9 OD1       144.8800  133.9700  195.4600 O.co2     2 ASP3        0.0000 
     10 CZ        142.6300  137.2000  192.0700 C.ar      3 PHE5        0.0000 
     11 CZ        143.9800  136.5800  191.9000 C.ar      3 PHE5        0.0000 
     12 CZ        145.3300  135.9500  191.7400 C.ar      3 PHE5        0.0000 
     13 CZ        142.7100  140.8000  192.7900 C.ar      3 PHE5        0.0000 
     14 CZ        142.1600  139.4800  193.2300 C.ar      3 PHE5        0.0000 
     15 CZ        141.6000  138.1600  193.6600 C.ar      3 PHE5        0.0000 
     16 CZ        141.0500  136.8400  194.1000 C.ar      3 PHE5        0.0000 
     17 CZ        143.5100  138.8600  193.0600 C.ar      3 PHE5        0.0000 
     18 CZ        142.9600  137.5300  193.5000 C.ar      3 PHE5        0.0000 
     19 CZ        144.8700  138.2300  192.8900 C.ar      3 PHE5        0.0000 
     20 CZ        144.3100  136.9100  193.3300 C.ar      3 PHE5        0.0000 
     21 CZ        146.2200  137.6100  192.7200 C.ar      3 PHE5        0.0000 
     22 CZ        145.6600  136.2800  193.1600 C.ar      3 PHE5        0.0000 
     23 CZ        143.0400  141.1400  194.2100 C.ar      3 PHE5        0.0000 
     24 CZ        142.4900  139.8100  194.6500 C.ar      3 PHE5        0.0000 
     25 CZ        144.4000  140.5100  194.0400 C.ar      3 PHE5        0.0000 
     26 CZ        143.8400  139.1900  194.4800 C.ar      3 PHE5        0.0000 
     27 CZ        143.2900  137.8700  194.9200 C.ar      3 PHE5        0.0000 
     28 CZ        142.7300  136.5400  195.3600 C.ar      3 PHE5        0.0000 
     29 CZ        142.1800  135.2200  195.8000 C.ar      3 PHE5        0.0000 
     30 CZ        145.2000  138.5600  194.3200 C.ar      3 PHE5        0.0000 
     31 CZ        144.6400  137.2400  194.7500 C.ar      3 PHE5        0.0000 
     32 CZ        144.0800  135.9200  195.1900 C.ar      3 PHE5        0.0000 
     33 CZ        143.5300  134.6000  195.6300 C.ar      3 PHE5        0.0000 
     34 CZ        147.1100  139.2600  193.7100 C.ar      3 PHE5        0.0000 
     35 CZ        146.5500  137.9400  194.1500 C.ar      3 PHE5        0.0000 
     36 CZ        145.9900  136.6200  194.5900 C.ar      3 PHE5        0.0000 
     37 CZ        145.4400  135.3000  195.0200 C.ar      3 PHE5        0.0000 
     38 CZ        147.3500  135.9900  194.4200 C.ar      3 PHE5        0.0000 
     39 CZ        143.6200  138.2000  196.3500 C.ar      3 PHE5        0.0000 
     40 CZ        145.5300  138.9000  195.7400 C.ar      3 PHE5        0.0000 
     41 CA        140.4900  135.5100  194.5400 C.3       4 GLY6        0.0000 
     42 CA        142.4000  136.2100  193.9300 C.3       4 GLY6        0.0000 
     43 CA        143.7500  135.5900  193.7700 C.3       4 GLY6        0.0000 
     44 CA        143.2000  134.2600  194.2100 C.3       4 GLY6        0.0000 
     45 CA        147.5700  136.9800  192.5600 C.3       4 GLY6        0.0000 
@<TRIPOS>BOND
@<TRIPOS>SUBSTRUCTURE
     1 ALA2        1 GROUP   
     2 ASP3        3 GROUP   
     3 PHE5       10 GROUP   
     4 GLY6       41 GROUP   
@<TRIPOS>SET

