#    Name: 6dg8_2_SRO
#    Modification time : Fri May 22 19:33:54 2020

@<TRIPOS>MOLECULE
6dg8_2_SRO
   13    14     1     0     0
SMALL
NO_CHARGES


@<TRIPOS>ATOM
      1 OH        156.3320  183.6550  193.8670 O.3       1 SRO501      0.0000 
      2 CZ3       157.0870  184.8310  193.9580 C.ar      1 SRO501      0.0000 
      3 CH2       156.4450  186.0460  194.2070 C.ar      1 SRO501      0.0000 
      4 CZ2       157.1880  187.2150  194.3020 C.ar      1 SRO501      0.0000 
      5 CE2       158.5980  187.1720  194.1420 C.ar      1 SRO501      0.0000 
      6 NE1       159.5370  188.1500  194.1880 N.pl3     1 SRO501      0.0000 
      7 CD1       160.7380  187.6460  193.9780 C.2       1 SRO501      0.0000 
      8 CG        160.6180  186.2750  193.7880 C.2       1 SRO501      0.0000 
      9 CD2       159.2280  185.9800  193.8970 C.ar      1 SRO501      0.0000 
     10 CE3       158.4710  184.7860  193.8010 C.ar      1 SRO501      0.0000 
     11 CB        161.7590  185.2970  193.5190 C.3       1 SRO501      0.0000 
     12 CA        162.6210  185.0640  194.7570 C.3       1 SRO501      0.0000 
     13 NZ        163.9700  184.6960  194.3680 N.4       1 SRO501      0.0000 
@<TRIPOS>BOND
     1    1    2 1    
     2    2    3 ar   
     3    2   10 ar   
     4    3    4 ar   
     5    4    5 ar   
     6    5    6 1    
     7    5    9 ar   
     8    6    7 1    
     9    7    8 2    
    10    8    9 1    
    11    8   11 1    
    12    9   10 ar   
    13   11   12 1    
    14   12   13 1    
@<TRIPOS>SUBSTRUCTURE
     1 SRO501      1 GROUP   
@<TRIPOS>SET

