#    Name: 6dg8_4_SRO
#    Modification time : Fri May 22 19:34:11 2020

@<TRIPOS>MOLECULE
6dg8_4_SRO
   13    14     1     0     0
SMALL
NO_CHARGES


@<TRIPOS>ATOM
      1 OH        181.7060  170.1070  193.9690 O.3       1 SRO501      0.0000 
      2 CZ3       183.0650  169.7710  194.0090 C.ar      1 SRO501      0.0000 
      3 CH2       184.0230  170.7640  194.2230 C.ar      1 SRO501      0.0000 
      4 CZ2       185.3700  170.4270  194.2620 C.ar      1 SRO501      0.0000 
      5 CE2       185.7700  169.0750  194.0850 C.ar      1 SRO501      0.0000 
      6 NE1       186.9940  168.4890  194.0800 N.pl3     1 SRO501      0.0000 
      7 CD1       186.8840  167.1910  193.8730 C.2       1 SRO501      0.0000 
      8 CG        185.5380  166.8750  193.7350 C.2       1 SRO501      0.0000 
      9 CD2       184.8280  168.1020  193.8760 C.ar      1 SRO501      0.0000 
     10 CE3       183.4550  168.4450  193.8350 C.ar      1 SRO501      0.0000 
     11 CB        184.9530  165.4870  193.4860 C.3       1 SRO501      0.0000 
     12 CA        184.9330  164.6330  194.7510 C.3       1 SRO501      0.0000 
     13 NZ        185.0740  163.2300  194.4070 N.4       1 SRO501      0.0000 
@<TRIPOS>BOND
     1    1    2 1    
     2    2    3 ar   
     3    2   10 ar   
     4    3    4 ar   
     5    4    5 ar   
     6    5    6 1    
     7    5    9 ar   
     8    6    7 1    
     9    7    8 2    
    10    8    9 1    
    11    8   11 1    
    12    9   10 ar   
    13   11   12 1    
    14   12   13 1    
@<TRIPOS>SUBSTRUCTURE
     1 SRO501      1 GROUP   
@<TRIPOS>SET

