#    Name: 6dg8_1_SRO_CAVITY_N1_12
#    Modification time : Fri May 22 19:33:46 2020

@<TRIPOS>MOLECULE
6dg8_1_SRO_CAVITY_N1_12
  125     0     7     0     0
SMALL
NO_CHARGES


@<TRIPOS>ATOM
      1 OG        140.4400  129.9500  187.9600 O.3       1 SER1        0.0000 
      2 OG        143.3000  133.6100  197.4900 O.3       1 SER1        0.0000 
      3 OG        144.6600  132.9800  197.3300 O.3       1 SER1        0.0000 
      4 OG        144.4300  131.9900  199.1900 O.3       1 SER1        0.0000 
      5 OG        145.7800  131.3700  199.0200 O.3       1 SER1        0.0000 
      6 OG        144.7600  132.3300  200.6100 O.3       1 SER1        0.0000 
      7 OG        146.1200  131.7000  200.4500 O.3       1 SER1        0.0000 
      8 N         143.6100  126.4200  186.4700 N.am      2 ALA2        0.0000 
      9 N         145.2900  126.1300  187.7300 N.am      2 ALA2        0.0000 
     10 N         142.1200  129.6600  189.2200 N.am      2 ALA2        0.0000 
     11 N         141.5600  128.3400  189.6500 N.am      2 ALA2        0.0000 
     12 N         142.9200  127.7100  189.4900 N.am      2 ALA2        0.0000 
     13 N         145.6200  126.4700  189.1500 N.am      2 ALA2        0.0000 
     14 N         143.2500  128.0500  190.9100 N.am      2 ALA2        0.0000 
     15 N         142.6900  126.7200  191.3500 N.am      2 ALA2        0.0000 
     16 N         147.9000  137.3200  193.9800 N.am      2 ALA2        0.0000 
     17 N         144.1700  139.5200  195.9100 N.am      2 ALA2        0.0000 
     18 O         143.8800  130.6700  199.6300 O.2       2 ALA2        0.0000 
     19 O         144.2100  131.0100  201.0500 O.2       2 ALA2        0.0000 
     20 O         143.6500  129.6800  201.4900 O.2       2 ALA2        0.0000 
     21 N         145.8900  130.7100  202.3100 N.am      2 ALA2        0.0000 
     22 OD1       145.7100  130.0700  189.8700 O.co2     3 ASP3        0.0000 
     23 OD1       145.1600  128.7500  190.3100 O.co2     3 ASP3        0.0000 
     24 OD1       144.6000  127.4200  190.7400 O.co2     3 ASP3        0.0000 
     25 OD1       145.9500  126.8000  190.5800 O.co2     3 ASP3        0.0000 
     26 OD1       146.0400  130.4000  191.2900 O.co2     3 ASP3        0.0000 
     27 OD1       145.4900  129.0800  191.7300 O.co2     3 ASP3        0.0000 
     28 OD1       144.9300  127.7600  192.1700 O.co2     3 ASP3        0.0000 
     29 OD1       146.1300  134.0000  192.0100 O.co2     3 ASP3        0.0000 
     30 OD1       145.5800  132.6800  192.4500 O.co2     3 ASP3        0.0000 
     31 OD1       147.4800  133.3800  191.8400 O.co2     3 ASP3        0.0000 
     32 OD1       146.3700  130.7300  192.7200 O.co2     3 ASP3        0.0000 
     33 OD1       145.8200  129.4100  193.1500 O.co2     3 ASP3        0.0000 
     34 OD1       145.2600  128.0900  193.5900 O.co2     3 ASP3        0.0000 
     35 OD1       145.1100  134.9600  193.6000 O.co2     3 ASP3        0.0000 
     36 OD1       144.5500  133.6400  194.0400 O.co2     3 ASP3        0.0000 
     37 OD1       147.0200  135.6600  192.9900 O.co2     3 ASP3        0.0000 
     38 OD1       144.8800  133.9700  195.4600 O.co2     3 ASP3        0.0000 
     39 OD1       144.3300  132.6500  195.9000 O.co2     3 ASP3        0.0000 
     40 NZ        142.8100  128.3700  186.2000 N.4       4 LYS4        0.0000 
     41 NZ        143.1400  128.7000  187.6200 N.4       4 LYS4        0.0000 
     42 NZ        142.5900  127.3800  188.0600 N.4       4 LYS4        0.0000 
     43 NZ        143.9400  126.7600  187.8900 N.4       4 LYS4        0.0000 
     44 NZ        144.0300  130.3600  188.6100 N.4       4 LYS4        0.0000 
     45 NZ        143.4700  129.0400  189.0500 N.4       4 LYS4        0.0000 
     46 NZ        144.8300  128.4100  188.8800 N.4       4 LYS4        0.0000 
     47 NZ        143.7200  125.7700  189.7600 N.4       4 LYS4        0.0000 
     48 NZ        146.1800  127.7900  188.7100 N.4       4 LYS4        0.0000 
     49 NZ        144.0500  126.1000  191.1800 N.4       4 LYS4        0.0000 
     50 NZ        145.4000  125.4800  191.0100 N.4       4 LYS4        0.0000 
     51 NZ        144.7900  130.3700  194.7500 N.4       4 LYS4        0.0000 
     52 NZ        145.0400  127.1000  195.4600 N.4       4 LYS4        0.0000 
     53 NZ        141.6200  133.9000  196.2400 N.4       4 LYS4        0.0000 
     54 NZ        142.9700  133.2700  196.0700 N.4       4 LYS4        0.0000 
     55 NZ        144.1000  131.6600  197.7600 N.4       4 LYS4        0.0000 
     56 CZ        142.6300  137.2000  192.0700 C.ar      5 PHE5        0.0000 
     57 CZ        143.9800  136.5800  191.9000 C.ar      5 PHE5        0.0000 
     58 CZ        145.3300  135.9500  191.7400 C.ar      5 PHE5        0.0000 
     59 CZ        142.7100  140.8000  192.7900 C.ar      5 PHE5        0.0000 
     60 CZ        142.1600  139.4800  193.2300 C.ar      5 PHE5        0.0000 
     61 CZ        141.6000  138.1600  193.6600 C.ar      5 PHE5        0.0000 
     62 CZ        141.0500  136.8400  194.1000 C.ar      5 PHE5        0.0000 
     63 CZ        143.5100  138.8600  193.0600 C.ar      5 PHE5        0.0000 
     64 CZ        142.9600  137.5300  193.5000 C.ar      5 PHE5        0.0000 
     65 CZ        144.8700  138.2300  192.8900 C.ar      5 PHE5        0.0000 
     66 CZ        144.3100  136.9100  193.3300 C.ar      5 PHE5        0.0000 
     67 CZ        146.2200  137.6100  192.7200 C.ar      5 PHE5        0.0000 
     68 CZ        145.6600  136.2800  193.1600 C.ar      5 PHE5        0.0000 
     69 CZ        145.5900  128.4200  195.0200 C.ar      5 PHE5        0.0000 
     70 CZ        146.9500  127.8000  194.8500 C.ar      5 PHE5        0.0000 
     71 CZ        146.3900  126.4800  195.2900 C.ar      5 PHE5        0.0000 
     72 CZ        143.0400  141.1400  194.2100 C.ar      5 PHE5        0.0000 
     73 CZ        142.4900  139.8100  194.6500 C.ar      5 PHE5        0.0000 
     74 CZ        144.4000  140.5100  194.0400 C.ar      5 PHE5        0.0000 
     75 CZ        143.8400  139.1900  194.4800 C.ar      5 PHE5        0.0000 
     76 CZ        143.2900  137.8700  194.9200 C.ar      5 PHE5        0.0000 
     77 CZ        142.7300  136.5400  195.3600 C.ar      5 PHE5        0.0000 
     78 CZ        142.1800  135.2200  195.8000 C.ar      5 PHE5        0.0000 
     79 CZ        145.2000  138.5600  194.3200 C.ar      5 PHE5        0.0000 
     80 CZ        144.6400  137.2400  194.7500 C.ar      5 PHE5        0.0000 
     81 CZ        144.0800  135.9200  195.1900 C.ar      5 PHE5        0.0000 
     82 CZ        143.5300  134.6000  195.6300 C.ar      5 PHE5        0.0000 
     83 CZ        147.1100  139.2600  193.7100 C.ar      5 PHE5        0.0000 
     84 CZ        146.5500  137.9400  194.1500 C.ar      5 PHE5        0.0000 
     85 CZ        145.9900  136.6200  194.5900 C.ar      5 PHE5        0.0000 
     86 CZ        145.4400  135.3000  195.0200 C.ar      5 PHE5        0.0000 
     87 CZ        147.3500  135.9900  194.4200 C.ar      5 PHE5        0.0000 
     88 CZ        143.6200  138.2000  196.3500 C.ar      5 PHE5        0.0000 
     89 CZ        145.5300  138.9000  195.7400 C.ar      5 PHE5        0.0000 
     90 CZ        143.8600  134.9300  197.0500 C.ar      5 PHE5        0.0000 
     91 CZ        145.2300  130.0500  199.4600 C.ar      5 PHE5        0.0000 
     92 CZ        146.9100  129.7600  200.7200 C.ar      5 PHE5        0.0000 
     93 CZ        146.3600  128.4300  201.1500 C.ar      5 PHE5        0.0000 
     94 CA        140.9000  127.6700  186.8000 C.3       6 GLY6        0.0000 
     95 CA        142.2600  127.0500  186.6400 C.3       6 GLY6        0.0000 
     96 CA        142.3500  130.6500  187.3500 C.3       6 GLY6        0.0000 
     97 CA        141.7900  129.3300  187.7900 C.3       6 GLY6        0.0000 
     98 CA        141.2300  128.0000  188.2300 C.3       6 GLY6        0.0000 
     99 CA        142.6800  130.9800  188.7800 C.3       6 GLY6        0.0000 
    100 CA        145.0700  125.1400  189.5900 C.3       6 GLY6        0.0000 
    101 CA        144.3600  130.6900  190.0300 C.3       6 GLY6        0.0000 
    102 CA        143.8000  129.3700  190.4700 C.3       6 GLY6        0.0000 
    103 CA        145.2500  132.3500  191.0200 C.3       6 GLY6        0.0000 
    104 CA        144.1300  129.7000  191.9000 C.3       6 GLY6        0.0000 
    105 CA        143.5800  128.3800  192.3400 C.3       6 GLY6        0.0000 
    106 CA        143.0200  127.0600  192.7700 C.3       6 GLY6        0.0000 
    107 CA        146.6000  131.7200  190.8500 C.3       6 GLY6        0.0000 
    108 CA        146.2800  127.1300  192.0000 C.3       6 GLY6        0.0000 
    109 CA        145.7300  125.8100  192.4400 C.3       6 GLY6        0.0000 
    110 CA        145.0200  131.3600  192.8800 C.3       6 GLY6        0.0000 
    111 CA        144.4600  130.0400  193.3200 C.3       6 GLY6        0.0000 
    112 CA        143.9100  128.7100  193.7600 C.3       6 GLY6        0.0000 
    113 CA        144.7100  126.7700  194.0300 C.3       6 GLY6        0.0000 
    114 CA        146.6200  127.4700  193.4300 C.3       6 GLY6        0.0000 
    115 CA        146.0600  126.1400  193.8600 C.3       6 GLY6        0.0000 
    116 CA        140.4900  135.5100  194.5400 C.3       6 GLY6        0.0000 
    117 CA        142.4000  136.2100  193.9300 C.3       6 GLY6        0.0000 
    118 CA        143.7500  135.5900  193.7700 C.3       6 GLY6        0.0000 
    119 CA        143.2000  134.2600  194.2100 C.3       6 GLY6        0.0000 
    120 CA        144.0000  132.3200  194.4800 C.3       6 GLY6        0.0000 
    121 CA        147.5700  136.9800  192.5600 C.3       6 GLY6        0.0000 
    122 DU        142.3600  126.3900  189.9200 H         7 CUB7        0.0000 
    123 DU        144.2700  127.0900  189.3200 H         7 CUB7        0.0000 
    124 DU        144.3800  126.4300  192.6100 H         7 CUB7        0.0000 
    125 DU        145.5600  130.3800  200.8800 H         7 CUB7        0.0000 
@<TRIPOS>BOND
@<TRIPOS>SUBSTRUCTURE
     1 SER1        1 GROUP   
     2 ALA2        8 GROUP   
     3 ASP3       22 GROUP   
     4 LYS4       40 GROUP   
     5 PHE5       56 GROUP   
     6 GLY6       94 GROUP   
     7 CUB7      122 GROUP   
@<TRIPOS>SET

