#    Name: 6dg8_2_SRO_CAVITY_N1_4
#    Modification time : Fri May 22 19:33:55 2020

@<TRIPOS>MOLECULE
6dg8_2_SRO_CAVITY_N1_4
   58     0     7     0     0
SMALL
NO_CHARGES


@<TRIPOS>ATOM
      1 OG        157.1400  188.9200  197.1300 O.3       1 SER1        0.0000 
      2 N         155.8300  183.3300  194.0100 N.am      2 ALA2        0.0000 
      3 N         161.6700  184.7700  195.4800 N.am      2 ALA2        0.0000 
      4 OD1       156.1500  187.9200  192.8600 O.co2     3 ASP3        0.0000 
      5 OD1       155.5900  186.6000  193.3000 O.co2     3 ASP3        0.0000 
      6 OD1       156.4800  188.2600  194.2800 O.co2     3 ASP3        0.0000 
      7 OD1       155.9200  186.9300  194.7200 O.co2     3 ASP3        0.0000 
      8 OD1       156.0100  190.5400  195.4400 O.co2     3 ASP3        0.0000 
      9 OD1       156.8100  188.5900  195.7100 O.co2     3 ASP3        0.0000 
     10 NZ        157.6900  190.2500  196.7000 N.4       4 LYS4        0.0000 
     11 CZ        157.5000  187.3000  192.6900 C.ar      5 PHE5        0.0000 
     12 CZ        156.9500  185.9800  193.1300 C.ar      5 PHE5        0.0000 
     13 CZ        158.8600  186.6700  192.5200 C.ar      5 PHE5        0.0000 
     14 CZ        158.3000  185.3500  192.9600 C.ar      5 PHE5        0.0000 
     15 CZ        159.6500  184.7300  192.7900 C.ar      5 PHE5        0.0000 
     16 CZ        157.2800  186.3100  194.5500 C.ar      5 PHE5        0.0000 
     17 CZ        156.7200  184.9900  194.9900 C.ar      5 PHE5        0.0000 
     18 CZ        158.6300  185.6800  194.3900 C.ar      5 PHE5        0.0000 
     19 CZ        158.0700  184.3600  194.8300 C.ar      5 PHE5        0.0000 
     20 CZ        161.0900  187.7100  193.3400 C.ar      5 PHE5        0.0000 
     21 CZ        160.5400  186.3800  193.7800 C.ar      5 PHE5        0.0000 
     22 CZ        159.9800  185.0600  194.2200 C.ar      5 PHE5        0.0000 
     23 CZ        159.4300  183.7400  194.6600 C.ar      5 PHE5        0.0000 
     24 CZ        161.8900  185.7600  193.6100 C.ar      5 PHE5        0.0000 
     25 CZ        161.3400  184.4400  194.0500 C.ar      5 PHE5        0.0000 
     26 CZ        158.1600  187.9600  195.5400 C.ar      5 PHE5        0.0000 
     27 CZ        160.0700  188.6600  194.9400 C.ar      5 PHE5        0.0000 
     28 CZ        159.5200  187.3400  195.3700 C.ar      5 PHE5        0.0000 
     29 CZ        158.9600  186.0200  195.8100 C.ar      5 PHE5        0.0000 
     30 CZ        160.8700  186.7200  195.2100 C.ar      5 PHE5        0.0000 
     31 CZ        160.3100  185.3900  195.6400 C.ar      5 PHE5        0.0000 
     32 CZ        162.2200  186.0900  195.0400 C.ar      5 PHE5        0.0000 
     33 CZ        159.0500  189.6200  196.5300 C.ar      5 PHE5        0.0000 
     34 CZ        158.4900  188.3000  196.9700 C.ar      5 PHE5        0.0000 
     35 CA        154.4600  188.2100  191.6000 C.3       6 GLY6        0.0000 
     36 CA        156.3700  188.9100  191.0000 C.3       6 GLY6        0.0000 
     37 CA        155.8200  187.5900  191.4300 C.3       6 GLY6        0.0000 
     38 CA        157.7300  188.2900  190.8300 C.3       6 GLY6        0.0000 
     39 CA        157.1700  186.9600  191.2700 C.3       6 GLY6        0.0000 
     40 CA        155.3500  189.8700  192.5900 C.3       6 GLY6        0.0000 
     41 CA        156.7000  189.2400  192.4200 C.3       6 GLY6        0.0000 
     42 CA        155.0400  185.2800  193.7400 C.3       6 GLY6        0.0000 
     43 CA        156.3900  184.6500  193.5700 C.3       6 GLY6        0.0000 
     44 CA        159.4100  188.0000  192.0900 C.3       6 GLY6        0.0000 
     45 CA        157.7400  184.0300  193.4000 C.3       6 GLY6        0.0000 
     46 CA        157.0300  189.5800  193.8500 C.3       6 GLY6        0.0000 
     47 CA        155.3700  185.6100  195.1600 C.3       6 GLY6        0.0000 
     48 CA        158.3900  188.9500  193.6800 C.3       6 GLY6        0.0000 
     49 CA        159.7400  188.3300  193.5100 C.3       6 GLY6        0.0000 
     50 CA        157.9200  191.2300  194.8300 C.3       6 GLY6        0.0000 
     51 CA        157.3600  189.9100  195.2700 C.3       6 GLY6        0.0000 
     52 CA        159.2700  190.6100  194.6600 C.3       6 GLY6        0.0000 
     53 CA        158.7200  189.2900  195.1000 C.3       6 GLY6        0.0000 
     54 CA        160.6300  189.9900  194.5000 C.3       6 GLY6        0.0000 
     55 CA        159.7600  184.0700  196.0800 C.3       6 GLY6        0.0000 
     56 CA        159.6000  190.9400  196.0900 C.3       6 GLY6        0.0000 
     57 DU        157.8300  187.6300  194.1200 H         7 CUB7        0.0000 
     58 DU        159.1900  187.0100  193.9500 H         7 CUB7        0.0000 
@<TRIPOS>BOND
@<TRIPOS>SUBSTRUCTURE
     1 SER1        1 GROUP   
     2 ALA2        2 GROUP   
     3 ASP3        4 GROUP   
     4 LYS4       10 GROUP   
     5 PHE5       11 GROUP   
     6 GLY6       35 GROUP   
     7 CUB7       57 GROUP   
@<TRIPOS>SET

