#    Name: 6dg8_3_SRO
#    Modification time : Fri May 22 19:34:02 2020

@<TRIPOS>MOLECULE
6dg8_3_SRO
   13    14     1     0     0
SMALL
NO_CHARGES


@<TRIPOS>ATOM
      1 OH        135.6310  163.4880  194.1100 O.3       1 SRO502      0.0000 
      2 CZ3       134.8640  164.6470  193.9540 C.ar      1 SRO502      0.0000 
      3 CH2       133.5330  164.5600  193.5370 C.ar      1 SRO502      0.0000 
      4 CZ2       132.7780  165.7170  193.3840 C.ar      1 SRO502      0.0000 
      5 CE2       133.3630  166.9850  193.6530 C.ar      1 SRO502      0.0000 
      6 NE1       132.8660  168.2470  193.5880 N.pl3     1 SRO502      0.0000 
      7 CD1       133.7870  169.1280  193.9310 C.2       1 SRO502      0.0000 
      8 CG        134.9560  168.4450  194.2470 C.2       1 SRO502      0.0000 
      9 CD2       134.6680  167.0640  194.0610 C.ar      1 SRO502      0.0000 
     10 CE3       135.4370  165.8870  194.2180 C.ar      1 SRO502      0.0000 
     11 CB        136.2850  169.0480  194.7010 C.3       1 SRO502      0.0000 
     12 CA        136.2970  170.5750  194.6580 C.3       1 SRO502      0.0000 
     13 NZ        137.2810  171.0950  193.7260 N.4       1 SRO502      0.0000 
@<TRIPOS>BOND
     1    1    2 1    
     2    2    3 ar   
     3    2   10 ar   
     4    3    4 ar   
     5    4    5 ar   
     6    5    6 1    
     7    5    9 ar   
     8    6    7 1    
     9    7    8 2    
    10    8    9 1    
    11    8   11 1    
    12    9   10 ar   
    13   11   12 1    
    14   12   13 1    
@<TRIPOS>SUBSTRUCTURE
     1 SRO502      1 GROUP   
@<TRIPOS>SET

