#    Name: 6dg8_4_SRO_CAVITY_N1_12
#    Modification time : Fri May 22 19:34:11 2020

@<TRIPOS>MOLECULE
6dg8_4_SRO_CAVITY_N1_12
   89     0     7     0     0
SMALL
NO_CHARGES


@<TRIPOS>ATOM
      1 OG        187.2600  171.2600  197.4400 O.3       1 SER1        0.0000 
      2 OG        188.6200  170.6400  197.2700 O.3       1 SER1        0.0000 
      3 OG        186.8000  173.5400  198.6000 O.3       1 SER1        0.0000 
      4 OG        188.1500  172.9200  198.4300 O.3       1 SER1        0.0000 
      5 N         192.7800  174.6700  189.0500 N.am      2 ALA2        0.0000 
      6 N         184.0500  164.9700  194.9200 N.am      2 ALA2        0.0000 
      7 N         191.7600  175.6200  190.6400 N.am      2 ALA2        0.0000 
      8 N         191.2000  174.3000  191.0800 N.am      2 ALA2        0.0000 
      9 N         193.1100  175.0000  190.4700 N.am      2 ALA2        0.0000 
     10 N         183.5800  167.2500  196.0800 N.am      2 ALA2        0.0000 
     11 N         193.4400  175.3300  191.9000 N.am      2 ALA2        0.0000 
     12 OD1       183.5700  171.5100  193.5000 O.co2     3 ASP3        0.0000 
     13 OD1       185.4700  172.2100  192.9000 O.co2     3 ASP3        0.0000 
     14 OD1       184.9200  170.8900  193.3400 O.co2     3 ASP3        0.0000 
     15 OD1       188.5000  175.5500  191.4200 O.co2     3 ASP3        0.0000 
     16 OD1       190.4000  176.2500  190.8100 O.co2     3 ASP3        0.0000 
     17 OD1       185.2500  171.2200  194.7600 O.co2     3 ASP3        0.0000 
     18 OD1       188.8300  175.8800  192.8400 O.co2     3 ASP3        0.0000 
     19 OD1       188.2700  174.5600  193.2800 O.co2     3 ASP3        0.0000 
     20 OD1       187.7100  173.2400  193.7200 O.co2     3 ASP3        0.0000 
     21 OD1       187.1600  171.9200  194.1500 O.co2     3 ASP3        0.0000 
     22 OD1       186.6000  170.5900  194.5900 O.co2     3 ASP3        0.0000 
     23 OD1       189.1600  176.2200  194.2600 O.co2     3 ASP3        0.0000 
     24 OD1       188.6000  174.9000  194.7000 O.co2     3 ASP3        0.0000 
     25 OD1       188.0400  173.5700  195.1400 O.co2     3 ASP3        0.0000 
     26 OD1       187.4900  172.2500  195.5800 O.co2     3 ASP3        0.0000 
     27 OD1       187.8200  172.5800  197.0000 O.co2     3 ASP3        0.0000 
     28 NZ        190.0700  175.9200  189.3800 N.4       4 LYS4        0.0000 
     29 NZ        191.4300  175.2900  189.2200 N.4       4 LYS4        0.0000 
     30 NZ        188.8400  171.6300  195.4100 N.4       4 LYS4        0.0000 
     31 NZ        188.2900  170.3000  195.8500 N.4       4 LYS4        0.0000 
     32 NZ        188.9300  175.2300  196.1300 N.4       4 LYS4        0.0000 
     33 NZ        188.3700  173.9100  196.5700 N.4       4 LYS4        0.0000 
     34 NZ        191.4000  177.2500  195.0800 N.4       4 LYS4        0.0000 
     35 NZ        189.1700  171.9600  196.8400 N.4       4 LYS4        0.0000 
     36 NZ        189.2600  175.5600  197.5500 N.4       4 LYS4        0.0000 
     37 NZ        188.7100  174.2400  197.9900 N.4       4 LYS4        0.0000 
     38 CZ        184.0300  169.2300  192.3500 C.ar      5 PHE5        0.0000 
     39 CZ        183.4800  167.9100  192.7900 C.ar      5 PHE5        0.0000 
     40 CZ        185.9400  169.9300  191.7400 C.ar      5 PHE5        0.0000 
     41 CZ        185.3900  168.6100  192.1800 C.ar      5 PHE5        0.0000 
     42 CZ        184.8300  167.2800  192.6200 C.ar      5 PHE5        0.0000 
     43 CZ        184.2800  165.9600  193.0600 C.ar      5 PHE5        0.0000 
     44 CZ        186.7400  167.9800  192.0100 C.ar      5 PHE5        0.0000 
     45 CZ        186.1800  166.6600  192.4500 C.ar      5 PHE5        0.0000 
     46 CZ        185.6300  165.3400  192.8900 C.ar      5 PHE5        0.0000 
     47 CZ        185.0700  164.0100  193.3300 C.ar      5 PHE5        0.0000 
     48 CZ        183.0100  170.1900  193.9400 C.ar      5 PHE5        0.0000 
     49 CZ        182.4500  168.8600  194.3800 C.ar      5 PHE5        0.0000 
     50 CZ        184.3600  169.5600  193.7700 C.ar      5 PHE5        0.0000 
     51 CZ        183.8100  168.2400  194.2100 C.ar      5 PHE5        0.0000 
     52 CZ        183.2500  166.9200  194.6500 C.ar      5 PHE5        0.0000 
     53 CZ        185.7200  168.9400  193.6100 C.ar      5 PHE5        0.0000 
     54 CZ        184.6100  166.2900  194.4800 C.ar      5 PHE5        0.0000 
     55 CZ        186.5100  166.9900  193.8800 C.ar      5 PHE5        0.0000 
     56 CZ        185.9600  165.6700  194.3200 C.ar      5 PHE5        0.0000 
     57 CZ        185.4000  164.3500  194.7500 C.ar      5 PHE5        0.0000 
     58 CZ        184.6900  169.9000  195.2000 C.ar      5 PHE5        0.0000 
     59 CZ        184.1400  168.5700  195.6400 C.ar      5 PHE5        0.0000 
     60 CZ        186.0500  169.2700  195.0300 C.ar      5 PHE5        0.0000 
     61 CZ        185.4900  167.9500  195.4700 C.ar      5 PHE5        0.0000 
     62 CZ        184.9400  166.6300  195.9100 C.ar      5 PHE5        0.0000 
     63 CZ        187.4000  168.6500  194.8600 C.ar      5 PHE5        0.0000 
     64 CZ        186.9300  170.9300  196.0200 C.ar      5 PHE5        0.0000 
     65 CZ        186.3800  169.6100  196.4600 C.ar      5 PHE5        0.0000 
     66 CZ        187.7300  168.9800  196.2900 C.ar      5 PHE5        0.0000 
     67 CZ        189.4900  176.5500  195.6900 C.ar      5 PHE5        0.0000 
     68 CA        183.2400  171.1800  192.0800 C.3       6 GLY6        0.0000 
     69 CA        184.5900  170.5500  191.9100 C.3       6 GLY6        0.0000 
     70 CA        189.5200  174.5900  189.8200 C.3       6 GLY6        0.0000 
     71 CA        190.8700  173.9700  189.6600 C.3       6 GLY6        0.0000 
     72 CA        187.9400  174.2300  191.8500 C.3       6 GLY6        0.0000 
     73 CA        187.3800  172.9100  192.2900 C.3       6 GLY6        0.0000 
     74 CA        186.8300  171.5800  192.7300 C.3       6 GLY6        0.0000 
     75 CA        186.2700  170.2600  193.1700 C.3       6 GLY6        0.0000 
     76 CA        189.8500  174.9300  191.2500 C.3       6 GLY6        0.0000 
     77 CA        187.0700  168.3100  193.4400 C.3       6 GLY6        0.0000 
     78 CA        190.1800  175.2600  192.6700 C.3       6 GLY6        0.0000 
     79 CA        189.6200  173.9400  193.1100 C.3       6 GLY6        0.0000 
     80 CA        188.5100  171.2900  193.9900 C.3       6 GLY6        0.0000 
     81 CA        187.9600  169.9700  194.4300 C.3       6 GLY6        0.0000 
     82 CA        192.0900  175.9600  192.0700 C.3       6 GLY6        0.0000 
     83 CA        191.5300  174.6400  192.5000 C.3       6 GLY6        0.0000 
     84 CA        189.7100  177.5400  193.8300 C.3       6 GLY6        0.0000 
     85 CA        191.0700  176.9200  193.6600 C.3       6 GLY6        0.0000 
     86 CA        190.5100  175.5900  194.1000 C.3       6 GLY6        0.0000 
     87 CA        192.4200  176.2900  193.4900 C.3       6 GLY6        0.0000 
     88 DU        185.1600  167.6200  194.0500 H         7 CUB7        0.0000 
     89 DU        190.7400  176.5800  192.2300 H         7 CUB7        0.0000 
@<TRIPOS>BOND
@<TRIPOS>SUBSTRUCTURE
     1 SER1        1 GROUP   
     2 ALA2        5 GROUP   
     3 ASP3       12 GROUP   
     4 LYS4       28 GROUP   
     5 PHE5       38 GROUP   
     6 GLY6       68 GROUP   
     7 CUB7       88 GROUP   
@<TRIPOS>SET

