#    Name: 6dg8_3_SRO_CAVITY_N1_6
#    Modification time : Fri May 22 19:34:03 2020

@<TRIPOS>MOLECULE
6dg8_3_SRO_CAVITY_N1_6
   58     0     6     0     0
SMALL
NO_CHARGES


@<TRIPOS>ATOM
      1 OG        130.7300  167.7100  197.1700 O.3       1 SER1        0.0000 
      2 OG        130.1800  166.3800  197.6000 O.3       1 SER1        0.0000 
      3 O         132.3600  161.8500  191.8400 O.2       2 ALA2        0.0000 
      4 N         135.9000  168.4800  195.7900 N.am      2 ALA2        0.0000 
      5 OD1       127.9700  163.3900  190.9200 O.co2     3 ASP3        0.0000 
      6 OD1       128.3000  163.7300  192.3400 O.co2     3 ASP3        0.0000 
      7 OD1       130.2100  164.4200  191.7400 O.co2     3 ASP3        0.0000 
      8 OD1       129.6500  163.1000  192.1800 O.co2     3 ASP3        0.0000 
      9 OD1       131.0100  162.4800  192.0100 O.co2     3 ASP3        0.0000 
     10 OD1       131.8900  164.1300  192.9900 O.co2     3 ASP3        0.0000 
     11 OD1       132.6900  162.1900  193.2600 O.co2     3 ASP3        0.0000 
     12 OD1       129.5200  165.7200  194.7500 O.co2     3 ASP3        0.0000 
     13 OD1       132.7800  165.7900  193.9800 O.co2     3 ASP3        0.0000 
     14 OD1       132.2200  164.4700  194.4200 O.co2     3 ASP3        0.0000 
     15 OD1       129.8500  166.0500  196.1800 O.co2     3 ASP3        0.0000 
     16 OD1       129.2900  164.7300  196.6200 O.co2     3 ASP3        0.0000 
     17 NZ        127.2800  164.6800  193.9400 N.4       4 LYS4        0.0000 
     18 NZ        129.6000  169.3200  195.4700 N.4       4 LYS4        0.0000 
     19 NZ        130.4000  167.3700  195.7400 N.4       4 LYS4        0.0000 
     20 CZ        133.0000  166.7800  192.1200 C.ar      5 PHE5        0.0000 
     21 CZ        133.8900  168.4300  193.1000 C.ar      5 PHE5        0.0000 
     22 CZ        133.3300  167.1100  193.5400 C.ar      5 PHE5        0.0000 
     23 CZ        135.2400  167.8100  192.9400 C.ar      5 PHE5        0.0000 
     24 CZ        134.6900  166.4900  193.3700 C.ar      5 PHE5        0.0000 
     25 CZ        134.1300  165.1700  193.8100 C.ar      5 PHE5        0.0000 
     26 CZ        136.0400  165.8600  193.2100 C.ar      5 PHE5        0.0000 
     27 CZ        131.5100  170.0200  194.8600 C.ar      5 PHE5        0.0000 
     28 CZ        130.9600  168.6900  195.3000 C.ar      5 PHE5        0.0000 
     29 CZ        132.8700  169.3900  194.7000 C.ar      5 PHE5        0.0000 
     30 CZ        132.3100  168.0700  195.1300 C.ar      5 PHE5        0.0000 
     31 CZ        131.7600  166.7500  195.5700 C.ar      5 PHE5        0.0000 
     32 CZ        131.2000  165.4200  196.0100 C.ar      5 PHE5        0.0000 
     33 CZ        134.7800  170.0900  194.0900 C.ar      5 PHE5        0.0000 
     34 CZ        134.2200  168.7700  194.5300 C.ar      5 PHE5        0.0000 
     35 CZ        133.6600  167.4500  194.9700 C.ar      5 PHE5        0.0000 
     36 CZ        133.1100  166.1200  195.4100 C.ar      5 PHE5        0.0000 
     37 CZ        136.1300  169.4700  193.9200 C.ar      5 PHE5        0.0000 
     38 CZ        135.5700  168.1400  194.3600 C.ar      5 PHE5        0.0000 
     39 CZ        135.0200  166.8200  194.8000 C.ar      5 PHE5        0.0000 
     40 CZ        136.3700  166.2000  194.6300 C.ar      5 PHE5        0.0000 
     41 CZ        135.8200  164.8700  195.0700 C.ar      5 PHE5        0.0000 
     42 CZ        132.0900  167.0800  197.0000 C.ar      5 PHE5        0.0000 
     43 CA        128.5300  164.7200  190.4800 C.3       6 GLY6        0.0000 
     44 CA        130.7600  165.7500  191.3000 C.3       6 GLY6        0.0000 
     45 CA        131.5600  163.8000  191.5700 C.3       6 GLY6        0.0000 
     46 CA        129.1900  165.3800  193.3300 C.3       6 GLY6        0.0000 
     47 CA        131.0900  166.0800  192.7200 C.3       6 GLY6        0.0000 
     48 CA        132.4500  165.4600  192.5600 C.3       6 GLY6        0.0000 
     49 CA        133.8000  164.8300  192.3900 C.3       6 GLY6        0.0000 
     50 CA        133.2500  163.5100  192.8300 C.3       6 GLY6        0.0000 
     51 CA        134.6000  162.8800  192.6600 C.3       6 GLY6        0.0000 
     52 CA        130.0700  167.0400  194.3200 C.3       6 GLY6        0.0000 
     53 CA        132.5400  169.0600  193.2700 C.3       6 GLY6        0.0000 
     54 CA        131.9800  167.7400  193.7100 C.3       6 GLY6        0.0000 
     55 CA        131.4300  166.4100  194.1500 C.3       6 GLY6        0.0000 
     56 CA        133.5800  163.8400  194.2500 C.3       6 GLY6        0.0000 
     57 CA        135.4900  164.5400  193.6500 C.3       6 GLY6        0.0000 
     58 CA        134.9300  163.2200  194.0800 C.3       6 GLY6        0.0000 
@<TRIPOS>BOND
@<TRIPOS>SUBSTRUCTURE
     1 SER1        1 GROUP   
     2 ALA2        3 GROUP   
     3 ASP3        5 GROUP   
     4 LYS4       17 GROUP   
     5 PHE5       20 GROUP   
     6 GLY6       43 GROUP   
@<TRIPOS>SET

