#    Name: 6bym_1_HC3
#    Modification time : Fri May 22 19:24:39 2020

@<TRIPOS>MOLECULE
6bym_1_HC3
   75    78     1     0     0
SMALL
NO_CHARGES


@<TRIPOS>ATOM
      1 C18        63.4640  -15.1150   -1.6860 C.3       1 HC3301      0.0000 
      2 C13        62.3130  -14.1300   -1.3760 C.3       1 HC3301      0.0000 
      3 C12        61.5280  -13.8260   -2.6630 C.3       1 HC3301      0.0000 
      4 C11        62.4140  -12.9770   -3.6360 C.3       1 HC3301      0.0000 
      5 C9         62.9550  -11.6810   -2.9630 C.3       1 HC3301      0.0000 
      6 C10        63.8350  -10.8400   -3.9540 C.3       1 HC3301      0.0000 
      7 C19        64.9570  -11.6930   -4.5610 C.3       1 HC3301      0.0000 
      8 C1         62.9310  -10.2500   -5.0750 C.3       1 HC3301      0.0000 
      9 C2         63.6860   -9.2380   -5.9320 C.3       1 HC3301      0.0000 
     10 C3         64.1140   -8.0840   -5.0370 C.3       1 HC3301      0.0000 
     11 O1         64.7640   -7.1360   -5.8510 O.3       1 HC3301      0.0000 
     12 C4         65.1130   -8.6270   -4.0100 C.3       1 HC3301      0.0000 
     13 C5         64.4940   -9.7260   -3.1980 C.2       1 HC3301      0.0000 
     14 C6         64.6100   -9.6780   -1.9110 C.2       1 HC3301      0.0000 
     15 C7         64.1490  -10.7270   -0.9600 C.3       1 HC3301      0.0000 
     16 C8         63.7400  -12.0050   -1.6890 C.3       1 HC3301      0.0000 
     17 C14        62.8330  -12.7800   -0.7610 C.3       1 HC3301      0.0000 
     18 C15        63.4650  -13.2410    0.5620 C.3       1 HC3301      0.0000 
     19 C16        62.4070  -14.2060    1.0960 C.3       1 HC3301      0.0000 
     20 C17        61.5130  -14.6270   -0.1450 C.3       1 HC3301      0.0000 
     21 C20        61.1900  -16.1470   -0.1440 C.3       1 HC3301      0.0000 
     22 C21        60.3320  -16.4730   -1.3280 C.3       1 HC3301      0.0000 
     23 C22        60.4640  -16.5320    1.1730 C.3       1 HC3301      0.0000 
     24 C23        60.3990  -18.0570    1.3460 C.3       1 HC3301      0.0000 
     25 C24        59.7900  -18.3680    2.7310 C.3       1 HC3301      0.0000 
     26 C25        60.1580  -19.7930    3.2340 C.3       1 HC3301      0.0000 
     27 C26        59.9160  -20.8280    2.1170 C.3       1 HC3301      0.0000 
     28 C27        61.6070  -19.8440    3.6580 C.3       1 HC3301      0.0000 
     29 O2         59.4070  -20.1180    4.3660 O.3       1 HC3301      0.0000 
     30 H181       64.1890  -14.7050   -2.1830 H         1 HC3301      0.0000 
     31 H182       63.8610  -15.4640   -0.8730 H         1 HC3301      0.0000 
     32 H183       63.1850  -15.8660   -2.2340 H         1 HC3301      0.0000 
     33 H121       60.7000  -13.3580   -2.4710 H         1 HC3301      0.0000 
     34 H122       61.2550  -14.6430   -3.1090 H         1 HC3301      0.0000 
     35 H111       61.9270  -12.7520   -4.4450 H         1 HC3301      0.0000 
     36 H112       63.1390  -13.5420   -3.9470 H         1 HC3301      0.0000 
     37 H9         62.1860  -11.1550   -2.6950 H         1 HC3301      0.0000 
     38 H191       65.6150  -11.1640   -5.0380 H         1 HC3301      0.0000 
     39 H192       65.4310  -12.2030   -3.8860 H         1 HC3301      0.0000 
     40 H193       64.5950  -12.3200   -5.2060 H         1 HC3301      0.0000 
     41 H11        62.1380   -9.8510   -4.6840 H         1 HC3301      0.0000 
     42 H12        62.5960  -10.9760   -5.6260 H         1 HC3301      0.0000 
     43 H21        63.1360   -8.9270   -6.6680 H         1 HC3301      0.0000 
     44 H22        64.4670   -9.6470   -6.3360 H         1 HC3301      0.0000 
     45 H3         63.3470   -7.6920   -4.5910 H         1 HC3301      0.0000 
     46 HO1        64.4130   -7.2090   -6.6220 H         1 HC3301      0.0000 
     47 H41        65.3830   -7.9220   -3.4000 H         1 HC3301      0.0000 
     48 H42        65.9350   -8.9420   -4.4170 H         1 HC3301      0.0000 
     49 H6         65.0100   -8.9410   -1.5080 H         1 HC3301      0.0000 
     50 H71        63.4000  -10.3650   -0.4610 H         1 HC3301      0.0000 
     51 H72        64.8540  -10.9070   -0.3180 H         1 HC3301      0.0000 
     52 H8         64.5410  -12.5080   -1.9030 H         1 HC3301      0.0000 
     53 H14        62.0840  -12.2060   -0.5370 H         1 HC3301      0.0000 
     54 H151       63.6610  -12.5140    1.1730 H         1 HC3301      0.0000 
     55 H152       64.3120  -13.6900    0.4140 H         1 HC3301      0.0000 
     56 H161       61.8690  -13.7840    1.7840 H         1 HC3301      0.0000 
     57 H162       62.8150  -14.9690    1.5320 H         1 HC3301      0.0000 
     58 H17        60.6730  -14.1440   -0.1030 H         1 HC3301      0.0000 
     59 H20        62.0120  -16.6620   -0.1840 H         1 HC3301      0.0000 
     60 H211       60.8480  -16.5680   -2.1440 H         1 HC3301      0.0000 
     61 H212       59.8610  -17.3130   -1.2130 H         1 HC3301      0.0000 
     62 H213       59.6700  -15.7840   -1.4950 H         1 HC3301      0.0000 
     63 H221       60.9160  -16.1380    1.9360 H         1 HC3301      0.0000 
     64 H222       59.5730  -16.1500    1.1840 H         1 HC3301      0.0000 
     65 H231       59.8620  -18.4410    0.6360 H         1 HC3301      0.0000 
     66 H232       61.2660  -18.4810    1.2510 H         1 HC3301      0.0000 
     67 H241       60.0540  -17.6930    3.3760 H         1 HC3301      0.0000 
     68 H242       58.8230  -18.3030    2.6910 H         1 HC3301      0.0000 
     69 H261       60.4550  -20.6230    1.3370 H         1 HC3301      0.0000 
     70 H262       60.1490  -21.7260    2.3990 H         1 HC3301      0.0000 
     71 H263       58.9910  -20.8380    1.8260 H         1 HC3301      0.0000 
     72 H271       62.2110  -19.5990    2.9400 H         1 HC3301      0.0000 
     73 H272       61.8030  -19.2700    4.4160 H         1 HC3301      0.0000 
     74 H273       61.8420  -20.7510    3.9090 H         1 HC3301      0.0000 
     75 HO2        58.7720  -19.5550    4.4140 H         1 HC3301      0.0000 
@<TRIPOS>BOND
     1   12   48 1    
     2   13   14 2    
     3   14   15 1    
     4   15   16 1    
     5   14   49 1    
     6   15   50 1    
     7   15   51 1    
     8   16   17 1    
     9   16   52 1    
    10   17   18 1    
    11   17   53 1    
    12   18   19 1    
    13   18   54 1    
    14   18   55 1    
    15   19   20 1    
    16   19   56 1    
    17   19   57 1    
    18   20   21 1    
    19   20   58 1    
    20   21   22 1    
    21   21   23 1    
    22   21   59 1    
    23   22   60 1    
    24   22   61 1    
    25   22   62 1    
    26   23   24 1    
    27   23   63 1    
    28   23   64 1    
    29   24   25 1    
    30   24   66 1    
    31   24   65 1    
    32   25   26 1    
    33   25   67 1    
    34   25   68 1    
    35   26   27 1    
    36   26   28 1    
    37   26   29 1    
    38   29   75 1    
    39   27   69 1    
    40   27   70 1    
    41   27   71 1    
    42   28   72 1    
    43   28   73 1    
    44   28   74 1    
    45    1    2 1    
    46    1   30 1    
    47    1   31 1    
    48    1   32 1    
    49    2    3 1    
    50    2   17 1    
    51    2   20 1    
    52    3    4 1    
    53    3   33 1    
    54    3   34 1    
    55    4    5 1    
    56    4   35 1    
    57    4   36 1    
    58    5    6 1    
    59    5   16 1    
    60    5   37 1    
    61    6    7 1    
    62    6    8 1    
    63    6   13 1    
    64    7   38 1    
    65    7   39 1    
    66    7   40 1    
    67    8    9 1    
    68    8   41 1    
    69    8   42 1    
    70    9   10 1    
    71    9   43 1    
    72    9   44 1    
    73   10   11 1    
    74   10   12 1    
    75   10   45 1    
    76   11   46 1    
    77   12   13 1    
    78   12   47 1    
@<TRIPOS>SUBSTRUCTURE
     1 HC3301      1 GROUP   
@<TRIPOS>SET

