#    Name: 6bym_2_HC3
#    Modification time : Fri May 22 19:24:45 2020

@<TRIPOS>MOLECULE
6bym_2_HC3
   75    78     1     0     0
SMALL
NO_CHARGES


@<TRIPOS>ATOM
      1 C18        86.4090   12.6710   12.8650 C.3       1 HC3301      0.0000 
      2 C13        84.9650   12.7260   12.3240 C.3       1 HC3301      0.0000 
      3 C12        83.9730   13.1250   13.4250 C.3       1 HC3301      0.0000 
      4 C11        83.8660   12.0070   14.4790 C.3       1 HC3301      0.0000 
      5 C9         83.4780   10.6530   13.8490 C.3       1 HC3301      0.0000 
      6 C10        83.3800    9.5090   14.9360 C.3       1 HC3301      0.0000 
      7 C19        84.6710    9.4790   15.8040 C.3       1 HC3301      0.0000 
      8 C1         82.1350    9.7100   15.8390 C.3       1 HC3301      0.0000 
      9 C2         81.9280    8.5030   16.7560 C.3       1 HC3301      0.0000 
     10 C3         81.6480    7.2740   15.8440 C.3       1 HC3301      0.0000 
     11 O1         81.3580    6.1770   16.6490 O.3       1 HC3301      0.0000 
     12 C4         82.9040    6.9830   15.0640 C.3       1 HC3301      0.0000 
     13 C5         83.2780    8.1830   14.2380 C.2       1 HC3301      0.0000 
     14 C6         83.7110    7.9590   13.0510 C.2       1 HC3301      0.0000 
     15 C7         83.9910    9.0070   12.0460 C.3       1 HC3301      0.0000 
     16 C8         84.4770   10.2430   12.7410 C.3       1 HC3301      0.0000 
     17 C14        84.5370   11.3430   11.7300 C.3       1 HC3301      0.0000 
     18 C15        85.5660   11.1670   10.6040 C.3       1 HC3301      0.0000 
     19 C16        85.5340   12.5140    9.9410 C.3       1 HC3301      0.0000 
     20 C17        84.9170   13.5170   10.9880 C.3       1 HC3301      0.0000 
     21 C20        85.6550   14.8830   10.9090 C.3       1 HC3301      0.0000 
     22 C21        85.2540   15.8150   12.0620 C.3       1 HC3301      0.0000 
     23 C22        85.2790   15.4760    9.5220 C.3       1 HC3301      0.0000 
     24 C23        85.7500   16.9080    9.2870 C.3       1 HC3301      0.0000 
     25 C24        87.1890   16.9000    8.8610 C.3       1 HC3301      0.0000 
     26 C25        87.5490   18.0080    7.8090 C.3       1 HC3301      0.0000 
     27 C26        86.8510   19.3320    8.0700 C.3       1 HC3301      0.0000 
     28 C27        89.0700   18.2020    7.8600 C.3       1 HC3301      0.0000 
     29 O2         87.2660   17.5910    6.5490 O.3       1 HC3301      0.0000 
     30 H181       86.6240   11.8220   13.2830 H         1 HC3301      0.0000 
     31 H182       87.0590   12.7890   12.1540 H         1 HC3301      0.0000 
     32 H183       86.5840   13.3340   13.5510 H         1 HC3301      0.0000 
     33 H121       83.0970   13.3210   13.0580 H         1 HC3301      0.0000 
     34 H122       84.2470   13.9470   13.8620 H         1 HC3301      0.0000 
     35 H111       83.2340   12.2420   15.1760 H         1 HC3301      0.0000 
     36 H112       84.7170   11.9510   14.9410 H         1 HC3301      0.0000 
     37 H9         82.6130   10.7690   13.4250 H         1 HC3301      0.0000 
     38 H191       84.7910    8.6370   16.2690 H         1 HC3301      0.0000 
     39 H192       85.4690    9.6330   15.2740 H         1 HC3301      0.0000 
     40 H193       84.6340   10.1640   16.4900 H         1 HC3301      0.0000 
     41 H11        81.3500    9.8730   15.2920 H         1 HC3301      0.0000 
     42 H12        82.2480   10.5190   16.3620 H         1 HC3301      0.0000 
     43 H21        81.2000    8.6550   17.3780 H         1 HC3301      0.0000 
     44 H22        82.7170    8.3420   17.2970 H         1 HC3301      0.0000 
     45 H3         80.9130    7.4610   15.2390 H         1 HC3301      0.0000 
     46 HO1        81.2220    6.4870   17.4290 H         1 HC3301      0.0000 
     47 H41        82.7620    6.2350   14.4630 H         1 HC3301      0.0000 
     48 H42        83.6480    6.7250   15.6300 H         1 HC3301      0.0000 
     49 H6         83.8710    7.0880   12.7660 H         1 HC3301      0.0000 
     50 H71        83.1730    9.1840   11.5570 H         1 HC3301      0.0000 
     51 H72        84.6460    8.6810   11.4090 H         1 HC3301      0.0000 
     52 H8         85.3510   10.0620   13.1210 H         1 HC3301      0.0000 
     53 H14        83.6620   11.4130   11.3160 H         1 HC3301      0.0000 
     54 H151       85.3580   10.4380    9.9990 H         1 HC3301      0.0000 
     55 H152       86.4470   10.9660   10.9570 H         1 HC3301      0.0000 
     56 H161       85.0040   12.4880    9.1300 H         1 HC3301      0.0000 
     57 H162       86.4200   12.7830    9.6510 H         1 HC3301      0.0000 
     58 H17        83.9880   13.6720   10.7560 H         1 HC3301      0.0000 
     59 H20        86.6150   14.7450   10.9170 H         1 HC3301      0.0000 
     60 H211       85.4870   15.4490   12.9290 H         1 HC3301      0.0000 
     61 H212       85.7050   16.6720   12.0060 H         1 HC3301      0.0000 
     62 H213       84.2990   15.9830   12.0760 H         1 HC3301      0.0000 
     63 H221       85.6360   14.9100    8.8190 H         1 HC3301      0.0000 
     64 H222       84.3180   15.4250    9.4000 H         1 HC3301      0.0000 
     65 H231       85.1920   17.3220    8.6110 H         1 HC3301      0.0000 
     66 H232       85.6300   17.4680   10.0700 H         1 HC3301      0.0000 
     67 H241       87.7670   16.9630    9.6370 H         1 HC3301      0.0000 
     68 H242       87.4090   16.0390    8.4710 H         1 HC3301      0.0000 
     69 H261       87.0900   19.6800    8.9430 H         1 HC3301      0.0000 
     70 H262       87.0980   20.0050    7.4160 H         1 HC3301      0.0000 
     71 H263       85.8860   19.2430    8.0560 H         1 HC3301      0.0000 
     72 H271       89.5530   17.3960    7.6190 H         1 HC3301      0.0000 
     73 H272       89.3830   18.9160    7.2830 H         1 HC3301      0.0000 
     74 H273       89.3410   18.4170    8.7660 H         1 HC3301      0.0000 
     75 HO2        87.8650   17.0280    6.3320 H         1 HC3301      0.0000 
@<TRIPOS>BOND
     1    1    2 1    
     2    1   30 1    
     3    1   31 1    
     4    1   32 1    
     5    2    3 1    
     6    2   17 1    
     7    2   20 1    
     8    3    4 1    
     9    3   33 1    
    10    3   34 1    
    11    4    5 1    
    12    4   35 1    
    13    4   36 1    
    14    5    6 1    
    15    5   16 1    
    16    5   37 1    
    17    6    7 1    
    18    6    8 1    
    19    6   13 1    
    20    7   38 1    
    21    7   39 1    
    22    7   40 1    
    23    8    9 1    
    24    8   41 1    
    25    8   42 1    
    26    9   10 1    
    27    9   43 1    
    28    9   44 1    
    29   10   11 1    
    30   10   12 1    
    31   10   45 1    
    32   11   46 1    
    33   12   13 1    
    34   12   47 1    
    35   12   48 1    
    36   13   14 2    
    37   14   15 1    
    38   15   16 1    
    39   14   49 1    
    40   15   50 1    
    41   15   51 1    
    42   16   17 1    
    43   16   52 1    
    44   17   18 1    
    45   17   53 1    
    46   18   19 1    
    47   18   54 1    
    48   18   55 1    
    49   19   20 1    
    50   19   56 1    
    51   19   57 1    
    52   20   21 1    
    53   20   58 1    
    54   21   22 1    
    55   21   23 1    
    56   21   59 1    
    57   22   60 1    
    58   22   61 1    
    59   22   62 1    
    60   23   24 1    
    61   23   63 1    
    62   23   64 1    
    63   24   25 1    
    64   24   66 1    
    65   24   65 1    
    66   25   26 1    
    67   25   67 1    
    68   25   68 1    
    69   26   27 1    
    70   26   28 1    
    71   26   29 1    
    72   29   75 1    
    73   27   69 1    
    74   27   70 1    
    75   27   71 1    
    76   28   72 1    
    77   28   73 1    
    78   28   74 1    
@<TRIPOS>SUBSTRUCTURE
     1 HC3301      1 GROUP   
@<TRIPOS>SET

