#    Name: 6npo_1_UNK_UNK_UNK_UNK_CAVITY_N1_4
#    Modification time : Fri May 22 19:24:43 2020

@<TRIPOS>MOLECULE
6npo_1_UNK_UNK_UNK_UNK_CAVITY_N1_4
  124     0     7     0     0
SMALL
NO_CHARGES


@<TRIPOS>ATOM
      1 OG         23.3200   25.6400   52.2800 O.3       1 SER1        0.0000 
      2 OG         21.7700   23.1800   59.0300 O.3       1 SER1        0.0000 
      3 OG         22.9700   22.5300   58.4000 O.3       1 SER1        0.0000 
      4 OG         22.4200   22.5300   60.9400 O.3       1 SER1        0.0000 
      5 OG         27.5900   29.1600   53.2100 O.3       1 SER1        0.0000 
      6 OG         28.2400   28.5000   55.1200 O.3       1 SER1        0.0000 
      7 OG         27.4700   27.2800   58.5000 O.3       1 SER1        0.0000 
      8 OG         28.8900   27.8500   57.0300 O.3       1 SER1        0.0000 
      9 OG         30.0900   27.2000   56.4000 O.3       1 SER1        0.0000 
     10 OG         30.2800   24.1000   59.9800 O.3       1 SER1        0.0000 
     11 OG         29.3100   25.9700   59.7800 O.3       1 SER1        0.0000 
     12 OG         29.5400   27.2000   58.9400 O.3       1 SER1        0.0000 
     13 OG         29.7700   28.4200   58.1100 O.3       1 SER1        0.0000 
     14 OG         29.9900   29.6500   57.2700 O.3       1 SER1        0.0000 
     15 OG         30.1900   26.5500   60.8500 O.3       1 SER1        0.0000 
     16 OG         28.2500   30.2900   60.4400 O.3       1 SER1        0.0000 
     17 OG         29.4400   29.6500   59.8100 O.3       1 SER1        0.0000 
     18 OG         29.8700   27.7700   62.5600 O.3       1 SER1        0.0000 
     19 OG         28.9000   29.6400   62.3500 O.3       1 SER1        0.0000 
     20 OG         30.0900   28.9900   61.7200 O.3       1 SER1        0.0000 
     21 O          22.3500   27.5200   52.0700 O.2       2 ALA2        0.0000 
     22 N          23.5400   26.8700   51.4500 N.am      2 ALA2        0.0000 
     23 N          22.7700   25.6400   54.8200 N.am      2 ALA2        0.0000 
     24 N          24.1600   21.8800   57.7700 N.am      2 ALA2        0.0000 
     25 N          23.1900   23.7600   57.5700 N.am      2 ALA2        0.0000 
     26 N          26.0400   24.9100   54.6400 N.am      2 ALA2        0.0000 
     27 N          26.2700   26.1400   53.8000 N.am      2 ALA2        0.0000 
     28 N          26.4900   27.3600   52.9700 N.am      2 ALA2        0.0000 
     29 N          25.0400   22.4600   58.8500 N.am      2 ALA2        0.0000 
     30 N          24.0700   24.3300   58.6400 N.am      2 ALA2        0.0000 
     31 O          25.2700   23.6800   58.0100 O.2       2 ALA2        0.0000 
     32 N          24.2900   25.5600   57.8100 N.am      2 ALA2        0.0000 
     33 N          25.4900   24.9100   57.1800 N.am      2 ALA2        0.0000 
     34 N          26.6900   24.2600   56.5500 N.am      2 ALA2        0.0000 
     35 N          25.7200   26.1300   56.3400 N.am      2 ALA2        0.0000 
     36 N          27.3700   27.9300   54.0400 N.am      2 ALA2        0.0000 
     37 N          27.5600   24.8300   57.6300 N.am      2 ALA2        0.0000 
     38 N          27.7900   26.0500   56.7900 N.am      2 ALA2        0.0000 
     39 N          28.0200   27.2800   55.9600 N.am      2 ALA2        0.0000 
     40 N          28.6600   26.6300   57.8700 N.am      2 ALA2        0.0000 
     41 N          29.8600   25.9800   57.2400 N.am      2 ALA2        0.0000 
     42 N          29.3500   32.0900   60.6800 N.am      2 ALA2        0.0000 
     43 N          30.5400   31.4400   60.0500 N.am      2 ALA2        0.0000 
     44 N          31.1900   30.7900   61.9600 N.am      2 ALA2        0.0000 
     45 N          31.4200   32.0100   61.1300 N.am      2 ALA2        0.0000 
     46 O          32.6200   31.3700   60.5000 O.2       2 ALA2        0.0000 
     47 O          34.0400   31.9400   59.0300 O.2       2 ALA2        0.0000 
     48 N          32.0700   31.3600   63.0400 N.am      2 ALA2        0.0000 
     49 O          33.4900   31.9400   61.5700 O.2       2 ALA2        0.0000 
     50 O          34.6900   31.2900   60.9500 O.2       2 ALA2        0.0000 
     51 OD1        24.5200   24.9900   51.6500 O.co2     3 ASP3        0.0000 
     52 OD1        30.4100   27.7700   60.0200 O.co2     3 ASP3        0.0000 
     53 OD1        31.6100   27.1200   59.3900 O.co2     3 ASP3        0.0000 
     54 OD1        31.0600   27.1200   61.9300 O.co2     3 ASP3        0.0000 
     55 OD1        31.2900   28.3400   61.0900 O.co2     3 ASP3        0.0000 
     56 OD1        31.5200   29.5700   60.2600 O.co2     3 ASP3        0.0000 
     57 OD1        32.7100   28.9200   59.6300 O.co2     3 ASP3        0.0000 
     58 OD1        33.9100   28.2700   59.0000 O.co2     3 ASP3        0.0000 
     59 OD1        32.1600   28.9100   62.1700 O.co2     3 ASP3        0.0000 
     60 OD1        32.3900   30.1400   61.3300 O.co2     3 ASP3        0.0000 
     61 OD1        33.8100   30.7200   59.8700 O.co2     3 ASP3        0.0000 
     62 OD1        35.0100   30.0700   59.2400 O.co2     3 ASP3        0.0000 
     63 OD1        33.2700   30.7100   62.4100 O.co2     3 ASP3        0.0000 
     64 NZ         25.6200   26.7900   51.8900 N.4       4 LYS4        0.0000 
     65 NZ         23.6200   21.8800   60.3100 N.4       4 LYS4        0.0000 
     66 NZ         28.5700   30.8600   64.0500 N.4       4 LYS4        0.0000 
     67 NZ         29.7700   30.2100   63.4300 N.4       4 LYS4        0.0000 
     68 NZ         28.8000   32.0900   63.2200 N.4       4 LYS4        0.0000 
     69 NZ         30.0000   31.4400   62.5900 N.4       4 LYS4        0.0000 
     70 NZ         30.8700   32.0100   63.6700 N.4       4 LYS4        0.0000 
     71 CZ         22.1200   26.2900   52.9100 C.ar      5 PHE5        0.0000 
     72 CZ         23.9700   24.9900   54.1900 C.ar      5 PHE5        0.0000 
     73 CZ         24.1900   26.2100   53.3600 C.ar      5 PHE5        0.0000 
     74 CZ         25.3900   25.5600   52.7300 C.ar      5 PHE5        0.0000 
     75 CZ         21.5400   21.9600   59.8700 C.ar      5 PHE5        0.0000 
     76 CZ         24.3900   23.1100   56.9400 C.ar      5 PHE5        0.0000 
     77 CZ         24.6200   24.3300   56.1000 C.ar      5 PHE5        0.0000 
     78 CZ         24.8400   25.5600   55.2700 C.ar      5 PHE5        0.0000 
     79 CZ         25.9400   27.3600   55.5100 C.ar      5 PHE5        0.0000 
     80 CZ         26.1700   28.5800   54.6700 C.ar      5 PHE5        0.0000 
     81 CZ         26.5900   26.7000   57.4200 C.ar      5 PHE5        0.0000 
     82 CZ         26.8200   27.9300   56.5800 C.ar      5 PHE5        0.0000 
     83 CZ         27.6900   28.5000   57.6600 C.ar      5 PHE5        0.0000 
     84 CZ         30.5100   25.3200   59.1500 C.ar      5 PHE5        0.0000 
     85 CZ         31.7100   24.6700   58.5200 C.ar      5 PHE5        0.0000 
     86 CZ         30.7400   26.5500   58.3100 C.ar      5 PHE5        0.0000 
     87 CZ         28.5700   29.0700   58.7400 C.ar      5 PHE5        0.0000 
     88 CZ         30.9600   27.7700   57.4800 C.ar      5 PHE5        0.0000 
     89 CZ         28.7900   30.3000   57.9000 C.ar      5 PHE5        0.0000 
     90 CZ         28.4700   31.5200   59.6000 C.ar      5 PHE5        0.0000 
     91 CZ         29.6700   30.8700   58.9800 C.ar      5 PHE5        0.0000 
     92 CZ         30.8700   30.2200   58.3500 C.ar      5 PHE5        0.0000 
     93 CZ         32.0600   29.5700   57.7200 C.ar      5 PHE5        0.0000 
     94 CZ         31.0900   31.4500   57.5100 C.ar      5 PHE5        0.0000 
     95 CZ         32.2900   30.8000   56.8800 C.ar      5 PHE5        0.0000 
     96 CZ         33.4900   30.1500   56.2500 C.ar      5 PHE5        0.0000 
     97 CZ         34.1400   29.4900   58.1700 C.ar      5 PHE5        0.0000 
     98 CZ         35.3300   28.8500   57.5400 C.ar      5 PHE5        0.0000 
     99 CZ         33.1600   31.3700   57.9600 C.ar      5 PHE5        0.0000 
    100 CZ         34.3600   30.7200   57.3300 C.ar      5 PHE5        0.0000 
    101 CA         23.0000   26.8600   53.9900 C.3       6 GLY6        0.0000 
    102 CA         24.4200   27.4400   52.5200 C.3       6 GLY6        0.0000 
    103 CA         23.8700   27.4300   55.0600 C.3       6 GLY6        0.0000 
    104 CA         25.0700   26.7800   54.4300 C.3       6 GLY6        0.0000 
    105 CA         25.2900   28.0100   53.6000 C.3       6 GLY6        0.0000 
    106 CA         22.6500   23.7600   60.1100 C.3       6 GLY6        0.0000 
    107 CA         23.8400   23.1100   59.4800 C.3       6 GLY6        0.0000 
    108 CA         24.5200   26.7800   56.9700 C.3       6 GLY6        0.0000 
    109 CA         26.3700   25.4800   58.2500 C.3       6 GLY6        0.0000 
    110 CA         29.4100   23.5300   58.9100 C.3       6 GLY6        0.0000 
    111 CA         28.4400   25.4000   58.7000 C.3       6 GLY6        0.0000 
    112 CA         29.6400   24.7500   58.0700 C.3       6 GLY6        0.0000 
    113 CA         29.0900   24.7500   60.6100 C.3       6 GLY6        0.0000 
    114 CA         27.0500   30.9400   61.0700 C.3       6 GLY6        0.0000 
    115 CA         27.7000   30.2900   62.9800 C.3       6 GLY6        0.0000 
    116 CA         27.9200   31.5200   62.1400 C.3       6 GLY6        0.0000 
    117 CA         28.1500   32.7400   61.3100 C.3       6 GLY6        0.0000 
    118 DU         30.6400   29.0000   59.1800 H         7 CUB7        0.0000 
    119 DU         29.1200   30.8700   61.5200 H         7 CUB7        0.0000 
    120 DU         30.3200   30.2200   60.8900 H         7 CUB7        0.0000 
    121 DU         31.7400   30.7900   59.4200 H         7 CUB7        0.0000 
    122 DU         32.9400   30.1400   58.7900 H         7 CUB7        0.0000 
    123 DU         30.9700   29.5600   62.8000 H         7 CUB7        0.0000 
    124 DU         35.2400   31.2900   58.4100 H         7 CUB7        0.0000 
@<TRIPOS>BOND
@<TRIPOS>SUBSTRUCTURE
     1 SER1        1 GROUP   
     2 ALA2       21 GROUP   
     3 ASP3       51 GROUP   
     4 LYS4       64 GROUP   
     5 PHE5       71 GROUP   
     6 GLY6      101 GROUP   
     7 CUB7      118 GROUP   
@<TRIPOS>SET

