#    Name: 6npo_1_UNK_UNK_UNK_UNK_CAVITY_N1_ALL
#    Modification time : Fri May 22 19:24:43 2020

@<TRIPOS>MOLECULE
6npo_1_UNK_UNK_UNK_UNK_CAVITY_N1_ALL
  167     0     7     0     0
SMALL
NO_CHARGES


@<TRIPOS>ATOM
      1 OG         23.3200   25.6400   52.2800 O.3       1 SER1        0.0000 
      2 OG         21.7700   23.1800   59.0300 O.3       1 SER1        0.0000 
      3 OG         22.9700   22.5300   58.4000 O.3       1 SER1        0.0000 
      4 OG         22.4200   22.5300   60.9400 O.3       1 SER1        0.0000 
      5 OG         27.5900   29.1600   53.2100 O.3       1 SER1        0.0000 
      6 OG         28.2400   28.5000   55.1200 O.3       1 SER1        0.0000 
      7 OG         27.4700   27.2800   58.5000 O.3       1 SER1        0.0000 
      8 OG         28.8900   27.8500   57.0300 O.3       1 SER1        0.0000 
      9 OG         30.0900   27.2000   56.4000 O.3       1 SER1        0.0000 
     10 OG         30.2800   24.1000   59.9800 O.3       1 SER1        0.0000 
     11 OG         29.3100   25.9700   59.7800 O.3       1 SER1        0.0000 
     12 OG         29.5400   27.2000   58.9400 O.3       1 SER1        0.0000 
     13 OG         29.7700   28.4200   58.1100 O.3       1 SER1        0.0000 
     14 OG         29.9900   29.6500   57.2700 O.3       1 SER1        0.0000 
     15 OG         30.1900   26.5500   60.8500 O.3       1 SER1        0.0000 
     16 OG         28.2500   30.2900   60.4400 O.3       1 SER1        0.0000 
     17 OG         29.4400   29.6500   59.8100 O.3       1 SER1        0.0000 
     18 OG         29.8700   27.7700   62.5600 O.3       1 SER1        0.0000 
     19 OG         28.9000   29.6400   62.3500 O.3       1 SER1        0.0000 
     20 OG         30.0900   28.9900   61.7200 O.3       1 SER1        0.0000 
     21 OG         35.5600   30.0700   56.7000 O.3       1 SER1        0.0000 
     22 OG         36.9500   26.3200   59.6600 O.3       1 SER1        0.0000 
     23 OG         37.1800   27.5400   58.8200 O.3       1 SER1        0.0000 
     24 OG         38.3800   26.8900   58.1900 O.3       1 SER1        0.0000 
     25 OG         37.4100   28.7700   57.9800 O.3       1 SER1        0.0000 
     26 OG         36.4300   30.6400   57.7800 O.3       1 SER1        0.0000 
     27 OG         37.6300   29.9900   57.1500 O.3       1 SER1        0.0000 
     28 OG         36.3400   33.0900   58.6500 O.3       1 SER1        0.0000 
     29 O          22.3500   27.5200   52.0700 O.2       2 ALA2        0.0000 
     30 N          23.5400   26.8700   51.4500 N.am      2 ALA2        0.0000 
     31 N          22.7700   25.6400   54.8200 N.am      2 ALA2        0.0000 
     32 N          24.1600   21.8800   57.7700 N.am      2 ALA2        0.0000 
     33 N          23.1900   23.7600   57.5700 N.am      2 ALA2        0.0000 
     34 N          26.0400   24.9100   54.6400 N.am      2 ALA2        0.0000 
     35 N          26.2700   26.1400   53.8000 N.am      2 ALA2        0.0000 
     36 N          26.4900   27.3600   52.9700 N.am      2 ALA2        0.0000 
     37 N          27.6900   26.7100   52.3400 N.am      2 ALA2        0.0000 
     38 N          25.0400   22.4600   58.8500 N.am      2 ALA2        0.0000 
     39 N          24.0700   24.3300   58.6400 N.am      2 ALA2        0.0000 
     40 O          25.2700   23.6800   58.0100 O.2       2 ALA2        0.0000 
     41 N          24.2900   25.5600   57.8100 N.am      2 ALA2        0.0000 
     42 N          25.4900   24.9100   57.1800 N.am      2 ALA2        0.0000 
     43 N          26.6900   24.2600   56.5500 N.am      2 ALA2        0.0000 
     44 N          25.7200   26.1300   56.3400 N.am      2 ALA2        0.0000 
     45 N          27.3700   27.9300   54.0400 N.am      2 ALA2        0.0000 
     46 N          27.5600   24.8300   57.6300 N.am      2 ALA2        0.0000 
     47 N          27.7900   26.0500   56.7900 N.am      2 ALA2        0.0000 
     48 N          28.0200   27.2800   55.9600 N.am      2 ALA2        0.0000 
     49 N          28.6600   26.6300   57.8700 N.am      2 ALA2        0.0000 
     50 N          29.8600   25.9800   57.2400 N.am      2 ALA2        0.0000 
     51 N          29.3500   32.0900   60.6800 N.am      2 ALA2        0.0000 
     52 N          30.5400   31.4400   60.0500 N.am      2 ALA2        0.0000 
     53 N          31.1900   30.7900   61.9600 N.am      2 ALA2        0.0000 
     54 N          31.4200   32.0100   61.1300 N.am      2 ALA2        0.0000 
     55 O          32.6200   31.3700   60.5000 O.2       2 ALA2        0.0000 
     56 O          34.0400   31.9400   59.0300 O.2       2 ALA2        0.0000 
     57 N          32.0700   31.3600   63.0400 N.am      2 ALA2        0.0000 
     58 O          33.4900   31.9400   61.5700 O.2       2 ALA2        0.0000 
     59 O          34.6900   31.2900   60.9500 O.2       2 ALA2        0.0000 
     60 O          34.9100   32.5100   60.1100 O.2       2 ALA2        0.0000 
     61 O          36.1100   31.8600   59.4800 O.2       2 ALA2        0.0000 
     62 N          38.5100   30.5600   58.2300 N.am      2 ALA2        0.0000 
     63 O          36.9900   32.4400   60.5600 O.2       2 ALA2        0.0000 
     64 OD1        24.5200   24.9900   51.6500 O.co2     3 ASP3        0.0000 
     65 OD1        24.7400   26.2200   50.8200 O.co2     3 ASP3        0.0000 
     66 OD1        26.8100   26.1400   51.2600 O.co2     3 ASP3        0.0000 
     67 OD1        27.0400   27.3600   50.4300 O.co2     3 ASP3        0.0000 
     68 OD1        30.4100   27.7700   60.0200 O.co2     3 ASP3        0.0000 
     69 OD1        31.6100   27.1200   59.3900 O.co2     3 ASP3        0.0000 
     70 OD1        31.0600   27.1200   61.9300 O.co2     3 ASP3        0.0000 
     71 OD1        31.2900   28.3400   61.0900 O.co2     3 ASP3        0.0000 
     72 OD1        31.5200   29.5700   60.2600 O.co2     3 ASP3        0.0000 
     73 OD1        32.7100   28.9200   59.6300 O.co2     3 ASP3        0.0000 
     74 OD1        33.9100   28.2700   59.0000 O.co2     3 ASP3        0.0000 
     75 OD1        31.9400   27.6900   63.0000 O.co2     3 ASP3        0.0000 
     76 OD1        32.1600   28.9100   62.1700 O.co2     3 ASP3        0.0000 
     77 OD1        32.3900   30.1400   61.3300 O.co2     3 ASP3        0.0000 
     78 OD1        33.8100   30.7200   59.8700 O.co2     3 ASP3        0.0000 
     79 OD1        35.0100   30.0700   59.2400 O.co2     3 ASP3        0.0000 
     80 OD1        36.2100   29.4200   58.6100 O.co2     3 ASP3        0.0000 
     81 OD1        32.8100   28.2600   64.0800 O.co2     3 ASP3        0.0000 
     82 OD1        33.0400   29.4900   63.2500 O.co2     3 ASP3        0.0000 
     83 OD1        37.8300   26.8900   60.7300 O.co2     3 ASP3        0.0000 
     84 OD1        33.2700   30.7100   62.4100 O.co2     3 ASP3        0.0000 
     85 OD1        38.0500   28.1100   59.9000 O.co2     3 ASP3        0.0000 
     86 OD1        35.8900   30.6400   60.3200 O.co2     3 ASP3        0.0000 
     87 OD1        37.0800   29.9900   59.6900 O.co2     3 ASP3        0.0000 
     88 OD1        36.7600   31.2100   61.3900 O.co2     3 ASP3        0.0000 
     89 NZ         25.6200   26.7900   51.8900 N.4       4 LYS4        0.0000 
     90 NZ         26.7200   28.5900   52.1300 N.4       4 LYS4        0.0000 
     91 NZ         23.6200   21.8800   60.3100 N.4       4 LYS4        0.0000 
     92 NZ         29.5400   28.9900   64.2600 N.4       4 LYS4        0.0000 
     93 NZ         30.7400   28.3400   63.6300 N.4       4 LYS4        0.0000 
     94 NZ         28.5700   30.8600   64.0500 N.4       4 LYS4        0.0000 
     95 NZ         29.7700   30.2100   63.4300 N.4       4 LYS4        0.0000 
     96 NZ         28.8000   32.0900   63.2200 N.4       4 LYS4        0.0000 
     97 NZ         30.0000   31.4400   62.5900 N.4       4 LYS4        0.0000 
     98 NZ         31.3900   27.6900   65.5400 N.4       4 LYS4        0.0000 
     99 NZ         30.4200   29.5600   65.3400 N.4       4 LYS4        0.0000 
    100 NZ         39.0300   26.2400   60.1000 N.4       4 LYS4        0.0000 
    101 NZ         30.8700   32.0100   63.6700 N.4       4 LYS4        0.0000 
    102 NZ         39.2500   27.4700   59.2700 N.4       4 LYS4        0.0000 
    103 CZ         22.1200   26.2900   52.9100 C.ar      5 PHE5        0.0000 
    104 CZ         23.9700   24.9900   54.1900 C.ar      5 PHE5        0.0000 
    105 CZ         24.1900   26.2100   53.3600 C.ar      5 PHE5        0.0000 
    106 CZ         25.3900   25.5600   52.7300 C.ar      5 PHE5        0.0000 
    107 CZ         21.5400   21.9600   59.8700 C.ar      5 PHE5        0.0000 
    108 CZ         24.3900   23.1100   56.9400 C.ar      5 PHE5        0.0000 
    109 CZ         24.6200   24.3300   56.1000 C.ar      5 PHE5        0.0000 
    110 CZ         24.8400   25.5600   55.2700 C.ar      5 PHE5        0.0000 
    111 CZ         25.9400   27.3600   55.5100 C.ar      5 PHE5        0.0000 
    112 CZ         26.1700   28.5800   54.6700 C.ar      5 PHE5        0.0000 
    113 CZ         26.5900   26.7000   57.4200 C.ar      5 PHE5        0.0000 
    114 CZ         26.8200   27.9300   56.5800 C.ar      5 PHE5        0.0000 
    115 CZ         27.6900   28.5000   57.6600 C.ar      5 PHE5        0.0000 
    116 CZ         30.5100   25.3200   59.1500 C.ar      5 PHE5        0.0000 
    117 CZ         31.7100   24.6700   58.5200 C.ar      5 PHE5        0.0000 
    118 CZ         30.7400   26.5500   58.3100 C.ar      5 PHE5        0.0000 
    119 CZ         28.5700   29.0700   58.7400 C.ar      5 PHE5        0.0000 
    120 CZ         30.9600   27.7700   57.4800 C.ar      5 PHE5        0.0000 
    121 CZ         28.7900   30.3000   57.9000 C.ar      5 PHE5        0.0000 
    122 CZ         28.4700   31.5200   59.6000 C.ar      5 PHE5        0.0000 
    123 CZ         29.6700   30.8700   58.9800 C.ar      5 PHE5        0.0000 
    124 CZ         30.8700   30.2200   58.3500 C.ar      5 PHE5        0.0000 
    125 CZ         32.0600   29.5700   57.7200 C.ar      5 PHE5        0.0000 
    126 CZ         31.0900   31.4500   57.5100 C.ar      5 PHE5        0.0000 
    127 CZ         32.2900   30.8000   56.8800 C.ar      5 PHE5        0.0000 
    128 CZ         33.4900   30.1500   56.2500 C.ar      5 PHE5        0.0000 
    129 CZ         34.1400   29.4900   58.1700 C.ar      5 PHE5        0.0000 
    130 CZ         35.3300   28.8500   57.5400 C.ar      5 PHE5        0.0000 
    131 CZ         33.1600   31.3700   57.9600 C.ar      5 PHE5        0.0000 
    132 CZ         34.3600   30.7200   57.3300 C.ar      5 PHE5        0.0000 
    133 CZ         38.1500   25.6700   59.0300 C.ar      5 PHE5        0.0000 
    134 CZ         30.1900   28.3400   66.1700 C.ar      5 PHE5        0.0000 
    135 CA         23.0000   26.8600   53.9900 C.3       6 GLY6        0.0000 
    136 CA         24.4200   27.4400   52.5200 C.3       6 GLY6        0.0000 
    137 CA         23.8700   27.4300   55.0600 C.3       6 GLY6        0.0000 
    138 CA         25.0700   26.7800   54.4300 C.3       6 GLY6        0.0000 
    139 CA         25.2900   28.0100   53.6000 C.3       6 GLY6        0.0000 
    140 CA         27.9100   27.9400   51.5000 C.3       6 GLY6        0.0000 
    141 CA         22.6500   23.7600   60.1100 C.3       6 GLY6        0.0000 
    142 CA         23.8400   23.1100   59.4800 C.3       6 GLY6        0.0000 
    143 CA         24.5200   26.7800   56.9700 C.3       6 GLY6        0.0000 
    144 CA         26.3700   25.4800   58.2500 C.3       6 GLY6        0.0000 
    145 CA         29.4100   23.5300   58.9100 C.3       6 GLY6        0.0000 
    146 CA         28.4400   25.4000   58.7000 C.3       6 GLY6        0.0000 
    147 CA         29.6400   24.7500   58.0700 C.3       6 GLY6        0.0000 
    148 CA         29.0900   24.7500   60.6100 C.3       6 GLY6        0.0000 
    149 CA         27.0500   30.9400   61.0700 C.3       6 GLY6        0.0000 
    150 CA         27.7000   30.2900   62.9800 C.3       6 GLY6        0.0000 
    151 CA         27.9200   31.5200   62.1400 C.3       6 GLY6        0.0000 
    152 CA         28.1500   32.7400   61.3100 C.3       6 GLY6        0.0000 
    153 CA         35.4600   32.5200   57.5700 C.3       6 GLY6        0.0000 
    154 CA         31.6200   28.9100   64.7100 C.3       6 GLY6        0.0000 
    155 CA         31.8400   30.1400   63.8700 C.3       6 GLY6        0.0000 
    156 CA         38.2800   29.3400   59.0600 C.3       6 GLY6        0.0000 
    157 CA         37.5400   32.4400   58.0200 C.3       6 GLY6        0.0000 
    158 CA         37.9600   30.5600   60.7600 C.3       6 GLY6        0.0000 
    159 CA         38.1800   31.7900   59.9300 C.3       6 GLY6        0.0000 
    160 DU         30.6400   29.0000   59.1800 H         7 CUB7        0.0000 
    161 DU         29.1200   30.8700   61.5200 H         7 CUB7        0.0000 
    162 DU         30.3200   30.2200   60.8900 H         7 CUB7        0.0000 
    163 DU         31.7400   30.7900   59.4200 H         7 CUB7        0.0000 
    164 DU         32.9400   30.1400   58.7900 H         7 CUB7        0.0000 
    165 DU         30.9700   29.5600   62.8000 H         7 CUB7        0.0000 
    166 DU         35.2400   31.2900   58.4100 H         7 CUB7        0.0000 
    167 DU         37.3100   31.2100   58.8500 H         7 CUB7        0.0000 
@<TRIPOS>BOND
@<TRIPOS>SUBSTRUCTURE
     1 SER1        1 GROUP   
     2 ALA2       29 GROUP   
     3 ASP3       64 GROUP   
     4 LYS4       89 GROUP   
     5 PHE5      103 GROUP   
     6 GLY6      135 GROUP   
     7 CUB7      160 GROUP   
@<TRIPOS>SET

