#    Name: 6npo_1_UNK_UNK_UNK_UNK
#    Modification time : Fri May 22 19:24:42 2020

@<TRIPOS>MOLECULE
6npo_1_UNK_UNK_UNK_UNK
   20    19     4     0     0
SMALL
NO_CHARGES


@<TRIPOS>ATOM
      1 N          23.7560   21.4280   57.6790 N.4       1 UNK67       0.0000 
      2 CA         23.5520   22.8560   58.0060 C.3       1 UNK67       0.0000 
      3 C          24.6660   23.6630   57.3340 C.2       1 UNK67       0.0000 
      4 O          25.7900   23.1680   57.2920 O.2       1 UNK67       0.0000 
      5 CB         23.5420   23.0620   59.5300 C.3       1 UNK67       0.0000 
      6 N          24.3440   24.8310   56.7730 N.am      2 UNK68       0.0000 
      7 CA         25.3190   25.7060   56.0790 C.3       2 UNK68       0.0000 
      8 C          26.2110   26.3540   57.1630 C.2       2 UNK68       0.0000 
      9 O          25.6670   26.8200   58.1800 O.2       2 UNK68       0.0000 
     10 CB         24.5740   26.7130   55.1910 C.3       2 UNK68       0.0000 
     11 N          27.5450   26.3520   56.9800 N.am      3 UNK69       0.0000 
     12 CA         28.5650   26.6880   58.0380 C.3       3 UNK69       0.0000 
     13 C          29.1100   28.1120   57.8160 C.2       3 UNK69       0.0000 
     14 O          29.0650   28.5520   56.6700 O.2       3 UNK69       0.0000 
     15 CB         29.6740   25.6200   58.0520 C.3       3 UNK69       0.0000 
     16 N          29.5590   28.8060   58.8800 N.am      4 UNK70       0.0000 
     17 CA         29.8700   30.2750   58.9440 C.3       4 UNK70       0.0000 
     18 C          31.3760   30.5070   58.7620 C.2       4 UNK70       0.0000 
     19 O          32.1150   29.6440   59.2390 O.2       4 UNK70       0.0000 
     20 CB         29.4170   30.8670   60.2880 C.3       4 UNK70       0.0000 
@<TRIPOS>BOND
     1    1    2 1    
     2    2    3 1    
     3    2    5 1    
     4    3    4 2    
     5    3    6 du   
     6    6    7 1    
     7    7    8 1    
     8    7   10 1    
     9    8    9 2    
    10    8   11 du   
    11   11   12 1    
    12   12   13 1    
    13   12   15 1    
    14   13   14 2    
    15   13   16 du   
    16   16   17 1    
    17   17   18 1    
    18   17   20 1    
    19   18   19 2    
@<TRIPOS>SUBSTRUCTURE
     1 UNK67       1 RESIDUE 
     2 UNK68       6 RESIDUE 
     3 UNK69      11 RESIDUE 
     4 UNK70      16 RESIDUE 
@<TRIPOS>SET

