#    Name: 6ach_4_NAD
#    Modification time : Fri May 22 19:27:20 2020

@<TRIPOS>MOLECULE
6ach_4_NAD
   44    48     1     0     1
SMALL
NO_CHARGES


@<TRIPOS>ATOM
      1 PA        140.7730   91.1950  151.6470 P.3       1 NAD400      0.0000 
      2 O1A       141.8130   90.8350  150.6170 O.co2     1 NAD400      0.0000 
      3 O2A       141.3360   92.2360  152.5840 O.co2     1 NAD400      0.0000 
      4 O5B       140.3680   89.8450  152.4930 O.3       1 NAD400      0.0000 
      5 C5B       141.2630   88.7780  152.4640 C.3       1 NAD400      0.0000 
      6 C4B       141.8100   88.5400  153.8540 C.3       1 NAD400      0.0000 
      7 O4B       141.8830   86.9510  154.1160 O.3       1 NAD400      0.0000 
      8 C3B       143.0430   88.9290  153.8940 C.3       1 NAD400      0.0000 
      9 O3B       143.1250   90.3820  154.2330 O.3       1 NAD400      0.0000 
     10 C2B       143.6170   88.0850  155.0320 C.3       1 NAD400      0.0000 
     11 O2B       143.2240   88.6160  156.2100 O.3       1 NAD400      0.0000 
     12 C1B       142.9360   86.7230  154.8500 C.3       1 NAD400      0.0000 
     13 N9A       143.8650   85.7870  154.1880 N.pl3     1 NAD400      0.0000 
     14 C8A       144.8510   85.8120  153.2940 C.2       1 NAD400      0.0000 
     15 N7A       145.2780   84.5530  153.1650 N.2       1 NAD400      0.0000 
     16 C5A       144.5490   83.7730  153.9790 C.ar      1 NAD400      0.0000 
     17 C6A       144.5700   82.4220  154.2320 C.ar      1 NAD400      0.0000 
     18 N6A       145.3250   81.2710  153.7850 N.pl3     1 NAD400      0.0000 
     19 N1A       143.7310   81.8930  155.1040 N.ar      1 NAD400      0.0000 
     20 C2A       142.8430   82.6790  155.7500 C.ar      1 NAD400      0.0000 
     21 N3A       142.8170   84.0040  155.5000 N.ar      1 NAD400      0.0000 
     22 C4A       143.6720   84.5420  154.6200 C.ar      1 NAD400      0.0000 
     23 O3        139.4150   91.7960  150.9450 O.3       1 NAD400      0.0000 
     24 PN        138.7750   91.2810  149.5240 P.3       1 NAD400      0.0000 
     25 O1N       139.8570   91.0070  148.5130 O.co2     1 NAD400      0.0000 
     26 O2N       137.8710   92.3630  148.9960 O.co2     1 NAD400      0.0000 
     27 O5D       137.9030   89.9110  149.7690 O.3       1 NAD400      0.0000 
     28 C5D       138.5500   88.6830  149.9200 C.3       1 NAD400      0.0000 
     29 C4D       138.0880   87.7180  148.8440 C.3       1 NAD400      0.0000 
     30 O4D       136.6260   88.1510  148.3110 O.3       1 NAD400      0.0000 
     31 C3D       138.9050   87.7760  147.8210 C.3       1 NAD400      0.0000 
     32 O3D       139.2180   86.4020  147.3270 O.3       1 NAD400      0.0000 
     33 C2D       138.1380   88.5310  146.7290 C.3       1 NAD400      0.0000 
     34 O2D       138.5380   88.1060  145.5080 O.3       1 NAD400      0.0000 
     35 C1D       136.7120   88.0540  147.0170 C.3       1 NAD400      0.0000 
     36 N1N       135.7210   88.9000  146.3320 N.pl3     1 NAD400      0.0000 
     37 C2N       135.3710   90.0930  146.8490 C.ar      1 NAD400      0.0000 
     38 C3N       134.4360   90.8680  146.1880 C.ar      1 NAD400      0.0000 
     39 C7N       134.0330   92.2180  146.7640 C.2       1 NAD400      0.0000 
     40 O7N       133.0300   92.7300  146.4130 O.2       1 NAD400      0.0000 
     41 N7N       134.8830   92.8710  147.7420 N.am      1 NAD400      0.0000 
     42 C4N       133.8930   90.4380  145.0250 C.ar      1 NAD400      0.0000 
     43 C5N       134.2510   89.2410  144.5040 C.ar      1 NAD400      0.0000 
     44 C6N       135.1820   88.4700  145.1750 C.ar      1 NAD400      0.0000 
@<TRIPOS>BOND
     1    1    2 ar   
     2    1    3 ar   
     3    1    4 1    
     4    1   23 1    
     5    4    5 1    
     6    5    6 1    
     7    6    7 1    
     8    6    8 1    
     9    7   12 1    
    10    8    9 1    
    11    8   10 1    
    12   10   11 1    
    13   10   12 1    
    14   12   13 1    
    15   13   14 1    
    16   13   22 1    
    17   14   15 2    
    18   15   16 1    
    19   16   17 ar   
    20   16   22 ar   
    21   17   18 1    
    22   17   19 ar   
    23   19   20 ar   
    24   20   21 ar   
    25   21   22 ar   
    26   23   24 1    
    27   24   25 ar   
    28   24   26 ar   
    29   24   27 1    
    30   27   28 1    
    31   28   29 1    
    32   29   30 1    
    33   29   31 1    
    34   30   35 1    
    35   31   32 1    
    36   31   33 1    
    37   33   34 1    
    38   33   35 1    
    39   35   36 1    
    40   36   37 ar   
    41   36   44 ar   
    42   37   38 ar   
    43   38   39 1    
    44   38   42 ar   
    45   39   40 2    
    46   39   41 am   
    47   42   43 ar   
    48   43   44 ar   
@<TRIPOS>SUBSTRUCTURE
     1 NAD400      1 GROUP   
@<TRIPOS>SET
ATOM$ORANGE STATIC     ATOMS   COLORGROUP SYSTEM 
42 5 5 6 6 8 8 10 10 12 12 14 14 16 16 17 17 20 \
20 22 22 28 28 29 29 31 31 33 33 35 35 37 37 38 38 39 \
39 42 42 43 43 44 44 

