#    Name: 6ach_6_NAD_CAVITY_N1_ALL
#    Modification time : Fri May 22 19:27:35 2020

@<TRIPOS>MOLECULE
6ach_6_NAD_CAVITY_N1_ALL
   73     0     6     0     0
SMALL
NO_CHARGES


@<TRIPOS>ATOM
      1 N         150.8200  132.8400  136.6600 N.am      1 ALA2        0.0000 
      2 N         151.9500  131.8600  136.5100 N.am      1 ALA2        0.0000 
      3 O         146.1500  136.0600  140.5500 O.2       1 ALA2        0.0000 
      4 O         147.2800  135.0800  140.4000 O.2       1 ALA2        0.0000 
      5 O         146.6400  136.8200  139.3600 O.2       1 ALA2        0.0000 
      6 O         147.7800  135.8400  139.2000 O.2       1 ALA2        0.0000 
      7 N         148.9100  134.8700  139.0500 N.am      1 ALA2        0.0000 
      8 N         150.0400  133.9000  138.9000 N.am      1 ALA2        0.0000 
      9 O         147.5000  137.6700  140.2500 O.2       1 ALA2        0.0000 
     10 O         148.6300  136.7000  140.1000 O.2       1 ALA2        0.0000 
     11 N         150.8900  134.7500  139.8000 N.am      1 ALA2        0.0000 
     12 N         152.0200  133.7800  139.6500 N.am      1 ALA2        0.0000 
     13 O         150.2500  136.4800  138.7600 O.2       1 ALA2        0.0000 
     14 N         151.3900  135.5100  138.6100 N.am      1 ALA2        0.0000 
     15 N         152.5200  134.5400  138.4600 N.am      1 ALA2        0.0000 
     16 N         153.6500  133.5600  138.3000 N.am      1 ALA2        0.0000 
     17 O         150.7500  137.2400  137.5600 O.2       1 ALA2        0.0000 
     18 N         151.8800  136.2700  137.4100 N.am      1 ALA2        0.0000 
     19 N         153.0100  135.3000  137.2600 N.am      1 ALA2        0.0000 
     20 N         154.1400  134.3300  137.1100 N.am      1 ALA2        0.0000 
     21 O         149.9700  138.3100  139.8000 O.2       1 ALA2        0.0000 
     22 O         150.4700  139.0700  138.6100 O.2       1 ALA2        0.0000 
     23 OD1       143.9500  133.5900  139.9500 O.co2     2 ASP3        0.0000 
     24 OD1       145.5800  133.3800  138.6100 O.co2     2 ASP3        0.0000 
     25 OD1       144.9400  135.1200  137.5600 O.co2     2 ASP3        0.0000 
     26 OD1       145.9300  133.4700  140.7000 O.co2     2 ASP3        0.0000 
     27 OD1       146.4300  134.2300  139.5000 O.co2     2 ASP3        0.0000 
     28 OD1       145.7900  135.9700  138.4600 O.co2     2 ASP3        0.0000 
     29 OD1       148.0600  134.0200  138.1600 O.co2     2 ASP3        0.0000 
     30 OD1       146.0100  138.5500  138.3100 O.co2     2 ASP3        0.0000 
     31 OD1       146.8600  139.4000  139.2100 O.co2     2 ASP3        0.0000 
     32 NZ        142.8200  134.5700  140.1000 N.4       3 LYS4        0.0000 
     33 NZ        143.6700  135.4200  141.0000 N.4       3 LYS4        0.0000 
     34 NZ        144.1700  136.1800  139.8000 N.4       3 LYS4        0.0000 
     35 NZ        145.0200  137.0300  140.7000 N.4       3 LYS4        0.0000 
     36 NZ        145.5100  137.7900  139.5100 N.4       3 LYS4        0.0000 
     37 NZ        153.1500  132.8000  139.5000 N.4       3 LYS4        0.0000 
     38 CZ        152.8000  132.7100  137.4100 C.ar      4 PHE5        0.0000 
     39 CA        146.0700  134.1400  137.4100 C.3       5 GLY6        0.0000 
     40 CA        147.2100  133.1700  137.2600 C.3       5 GLY6        0.0000 
     41 CA        148.3400  132.2000  137.1100 C.3       5 GLY6        0.0000 
     42 CA        146.5700  134.9000  136.2200 C.3       5 GLY6        0.0000 
     43 CA        147.7000  133.9300  136.0700 C.3       5 GLY6        0.0000 
     44 CA        148.8300  132.9600  135.9200 C.3       5 GLY6        0.0000 
     45 CA        149.1900  133.0500  138.0100 C.3       5 GLY6        0.0000 
     46 CA        150.3200  132.0700  137.8600 C.3       5 GLY6        0.0000 
     47 CA        146.2900  136.7300  137.2700 C.3       5 GLY6        0.0000 
     48 CA        147.4200  135.7500  137.1200 C.3       5 GLY6        0.0000 
     49 CA        148.5500  134.7800  136.9600 C.3       5 GLY6        0.0000 
     50 CA        149.6800  133.8100  136.8100 C.3       5 GLY6        0.0000 
     51 CA        150.1800  134.5700  135.6200 C.3       5 GLY6        0.0000 
     52 CA        150.6800  132.1600  139.9500 C.3       5 GLY6        0.0000 
     53 CA        151.1700  132.9300  138.7500 C.3       5 GLY6        0.0000 
     54 CA        152.3000  131.9500  138.6000 C.3       5 GLY6        0.0000 
     55 CA        147.1400  137.5800  138.1600 C.3       5 GLY6        0.0000 
     56 CA        148.2700  136.6100  138.0100 C.3       5 GLY6        0.0000 
     57 CA        149.4000  135.6300  137.8600 C.3       5 GLY6        0.0000 
     58 CA        151.0300  135.4200  136.5200 C.3       5 GLY6        0.0000 
     59 CA        152.1600  134.4500  136.3700 C.3       5 GLY6        0.0000 
     60 CA        153.2900  133.4700  136.2200 C.3       5 GLY6        0.0000 
     61 CA        146.3600  138.6400  140.4000 C.3       5 GLY6        0.0000 
     62 CA        149.7600  135.7200  139.9500 C.3       5 GLY6        0.0000 
     63 CA        147.9900  138.4300  139.0600 C.3       5 GLY6        0.0000 
     64 CA        149.1200  137.4600  138.9100 C.3       5 GLY6        0.0000 
     65 CA        148.4900  139.1900  137.8600 C.3       5 GLY6        0.0000 
     66 CA        149.6200  138.2200  137.7100 C.3       5 GLY6        0.0000 
     67 DU        144.4500  134.3500  138.7600 H         6 CUB7        0.0000 
     68 DU        143.1800  134.6600  142.1900 H         6 CUB7        0.0000 
     69 DU        144.8000  134.4400  140.8500 H         6 CUB7        0.0000 
     70 DU        145.3000  135.2100  139.6500 H         6 CUB7        0.0000 
     71 DU        146.9300  134.9900  138.3100 H         6 CUB7        0.0000 
     72 DU        150.5400  134.6600  137.7100 H         6 CUB7        0.0000 
     73 DU        151.6700  133.6900  137.5600 H         6 CUB7        0.0000 
@<TRIPOS>BOND
@<TRIPOS>SUBSTRUCTURE
     1 ALA2        1 GROUP   
     2 ASP3       23 GROUP   
     3 LYS4       32 GROUP   
     4 PHE5       38 GROUP   
     5 GLY6       39 GROUP   
     6 CUB7       67 GROUP   
@<TRIPOS>SET

