#    Name: 6ach_3_NAD_CAVITY_N1_4
#    Modification time : Fri May 22 19:27:15 2020

@<TRIPOS>MOLECULE
6ach_3_NAD_CAVITY_N1_4
   49     0     5     0     0
SMALL
NO_CHARGES


@<TRIPOS>ATOM
      1 OG        141.7000   99.5400   89.0300 O.3       1 SER1        0.0000 
      2 OG        143.0400  101.1500   88.7400 O.3       1 SER1        0.0000 
      3 OG        142.2700  102.2100   90.9800 O.3       1 SER1        0.0000 
      4 OG        143.4000  101.2400   90.8200 O.3       1 SER1        0.0000 
      5 OG        143.9000  102.0000   89.6300 O.3       1 SER1        0.0000 
      6 OG        146.6500  100.8200   88.1400 O.3       1 SER1        0.0000 
      7 OG        143.1200  103.0600   91.8700 O.3       1 SER1        0.0000 
      8 OG        144.2500  102.0900   91.7200 O.3       1 SER1        0.0000 
      9 N         146.1600  100.0600   89.3300 N.am      2 ALA2        0.0000 
     10 N         147.2900   99.0800   89.1800 N.am      2 ALA2        0.0000 
     11 O         146.5100  100.1500   91.4200 O.2       2 ALA2        0.0000 
     12 O         147.6500   99.1700   91.2700 O.2       2 ALA2        0.0000 
     13 N         147.0100  100.9100   90.2300 N.am      2 ALA2        0.0000 
     14 O         143.4700  103.1500   93.9600 O.2       2 ALA2        0.0000 
     15 O         143.9700  103.9200   92.7700 O.2       2 ALA2        0.0000 
     16 N         145.1000  102.9400   92.6200 N.am      2 ALA2        0.0000 
     17 N         146.2300  101.9700   92.4700 N.am      2 ALA2        0.0000 
     18 O         147.3600  101.0000   92.3100 O.2       2 ALA2        0.0000 
     19 OD1       144.1100  101.4200   95.0000 O.co2     3 ASP3        0.0000 
     20 OD1       145.2400  100.4500   94.8500 O.co2     3 ASP3        0.0000 
     21 OD1       144.6100  102.1800   93.8100 O.co2     3 ASP3        0.0000 
     22 OD1       145.7400  101.2100   93.6600 O.co2     3 ASP3        0.0000 
     23 OD1       145.4600  103.0300   94.7100 O.co2     3 ASP3        0.0000 
     24 CA        140.0700   99.7500   90.3800 C.3       4 GLY6        0.0000 
     25 CA        140.5700  100.5100   89.1800 C.3       4 GLY6        0.0000 
     26 CA        143.3300   99.3300   87.6900 C.3       4 GLY6        0.0000 
     27 CA        140.9200  100.6000   91.2700 C.3       4 GLY6        0.0000 
     28 CA        141.4200  101.3600   90.0800 C.3       4 GLY6        0.0000 
     29 CA        144.1800  100.1800   88.5800 C.3       4 GLY6        0.0000 
     30 CA        146.9300   98.9900   87.0900 C.3       4 GLY6        0.0000 
     31 CA        140.6400  102.4300   92.3200 C.3       4 GLY6        0.0000 
     32 CA        141.7700  101.4500   92.1700 C.3       4 GLY6        0.0000 
     33 CA        145.0300  101.0300   89.4800 C.3       4 GLY6        0.0000 
     34 CA        145.5200  101.7900   88.2900 C.3       4 GLY6        0.0000 
     35 CA        141.4900  103.2800   93.2100 C.3       4 GLY6        0.0000 
     36 CA        142.6200  102.3000   93.0600 C.3       4 GLY6        0.0000 
     37 CA        145.8800  101.8800   90.3800 C.3       4 GLY6        0.0000 
     38 DU        142.0500   99.6300   91.1200 H         5 CUB7        0.0000 
     39 DU        142.5500  100.3900   89.9300 H         5 CUB7        0.0000 
     40 DU        141.2800  100.6900   93.3600 H         5 CUB7        0.0000 
     41 DU        142.9000  100.4800   92.0200 H         5 CUB7        0.0000 
     42 DU        144.0400   99.5100   91.8700 H         5 CUB7        0.0000 
     43 DU        144.5300  100.2700   90.6700 H         5 CUB7        0.0000 
     44 DU        145.6600   99.2900   90.5200 H         5 CUB7        0.0000 
     45 DU        142.1300  101.5400   94.2600 H         5 CUB7        0.0000 
     46 DU        144.3900   99.6000   93.9600 H         5 CUB7        0.0000 
     47 DU        143.7500  101.3300   92.9100 H         5 CUB7        0.0000 
     48 DU        144.8900  100.3600   92.7600 H         5 CUB7        0.0000 
     49 DU        145.3800  101.1200   91.5700 H         5 CUB7        0.0000 
@<TRIPOS>BOND
@<TRIPOS>SUBSTRUCTURE
     1 SER1        1 GROUP   
     2 ALA2        9 GROUP   
     3 ASP3       19 GROUP   
     4 GLY6       24 GROUP   
     5 CUB7       38 GROUP   
@<TRIPOS>SET

