#    Name: 6ach_7_NAD_CAVITY_N1_4
#    Modification time : Fri May 22 19:27:43 2020

@<TRIPOS>MOLECULE
6ach_7_NAD_CAVITY_N1_4
   56     0     5     0     0
SMALL
NO_CHARGES


@<TRIPOS>ATOM
      1 OG         91.9600  131.6200   90.7200 O.3       1 SER1        0.0000 
      2 OG         92.4600  132.3800   89.5300 O.3       1 SER1        0.0000 
      3 OG         94.0900  132.1700   88.1900 O.3       1 SER1        0.0000 
      4 OG         92.8100  132.4700   91.6200 O.3       1 SER1        0.0000 
      5 OG         93.9500  131.5000   91.4700 O.3       1 SER1        0.0000 
      6 OG         93.3100  133.2300   90.4300 O.3       1 SER1        0.0000 
      7 OG         94.4400  132.2600   90.2800 O.3       1 SER1        0.0000 
      8 OG         94.9400  133.0200   89.0800 O.3       1 SER1        0.0000 
      9 OG         96.2800  134.6300   88.7800 O.3       1 SER1        0.0000 
     10 O          89.2100  132.8000   92.2200 O.2       2 ALA2        0.0000 
     11 N          90.3400  131.8300   92.0700 N.am      2 ALA2        0.0000 
     12 N          91.4700  130.8600   91.9200 N.am      2 ALA2        0.0000 
     13 N          88.5700  134.5400   91.1800 N.am      2 ALA2        0.0000 
     14 N          89.7000  133.5700   91.0200 N.am      2 ALA2        0.0000 
     15 N          90.2000  134.3300   89.8300 N.am      2 ALA2        0.0000 
     16 N          91.8200  130.9500   94.0100 N.am      2 ALA2        0.0000 
     17 O          90.0600  133.6600   93.1100 O.2       2 ALA2        0.0000 
     18 N          91.1900  132.6800   92.9600 N.am      2 ALA2        0.0000 
     19 N          92.3200  131.7100   92.8100 N.am      2 ALA2        0.0000 
     20 O          90.5500  134.4200   91.9200 O.2       2 ALA2        0.0000 
     21 O          90.9100  134.5100   94.0100 O.2       2 ALA2        0.0000 
     22 O          91.7600  135.3600   94.9100 O.2       2 ALA2        0.0000 
     23 OD1        89.5600  132.8900   94.3100 O.co2     3 ASP3        0.0000 
     24 OD1        90.6900  131.9200   94.1600 O.co2     3 ASP3        0.0000 
     25 OD1        90.4100  133.7500   95.2000 O.co2     3 ASP3        0.0000 
     26 OD1        91.5400  132.7700   95.0500 O.co2     3 ASP3        0.0000 
     27 CA         89.9800  131.7400   89.9800 C.3       4 GLY6        0.0000 
     28 CA         90.4800  132.5000   88.7800 C.3       4 GLY6        0.0000 
     29 CA         90.8300  132.5900   90.8700 C.3       4 GLY6        0.0000 
     30 CA         91.3300  133.3500   89.6800 C.3       4 GLY6        0.0000 
     31 CA         91.8200  134.1100   88.4900 C.3       4 GLY6        0.0000 
     32 CA         92.9600  133.1400   88.3400 C.3       4 GLY6        0.0000 
     33 CA         93.4500  133.9000   87.1400 C.3       4 GLY6        0.0000 
     34 CA         93.4500  130.7400   92.6600 C.3       4 GLY6        0.0000 
     35 CA         92.6700  131.8000   94.9000 C.3       4 GLY6        0.0000 
     36 CA         94.3000  131.5900   93.5600 C.3       4 GLY6        0.0000 
     37 CA         94.8000  132.3500   92.3600 C.3       4 GLY6        0.0000 
     38 CA         95.2900  133.1100   91.1700 C.3       4 GLY6        0.0000 
     39 CA         95.7900  133.8700   89.9800 C.3       4 GLY6        0.0000 
     40 CA         95.6500  133.2000   93.2600 C.3       4 GLY6        0.0000 
     41 CA         96.1400  133.9600   92.0700 C.3       4 GLY6        0.0000 
     42 DU         91.6800  133.4400   91.7700 H         5 CUB7        0.0000 
     43 DU         91.0500  135.1800   90.7300 H         5 CUB7        0.0000 
     44 DU         92.1800  134.2000   90.5800 H         5 CUB7        0.0000 
     45 DU         93.8100  133.9900   89.2300 H         5 CUB7        0.0000 
     46 DU         92.0400  133.5300   93.8600 H         5 CUB7        0.0000 
     47 DU         93.1700  132.5600   93.7100 H         5 CUB7        0.0000 
     48 DU         92.5300  134.2900   92.6700 H         5 CUB7        0.0000 
     49 DU         93.6700  133.3200   92.5200 H         5 CUB7        0.0000 
     50 DU         94.1600  134.0800   91.3200 H         5 CUB7        0.0000 
     51 DU         94.6600  134.8400   90.1300 H         5 CUB7        0.0000 
     52 DU         92.8900  134.3800   94.7600 H         5 CUB7        0.0000 
     53 DU         94.0200  133.4100   94.6000 H         5 CUB7        0.0000 
     54 DU         93.3800  135.1500   93.5600 H         5 CUB7        0.0000 
     55 DU         94.5200  134.1700   93.4100 H         5 CUB7        0.0000 
     56 DU         95.0100  134.9300   92.2200 H         5 CUB7        0.0000 
@<TRIPOS>BOND
@<TRIPOS>SUBSTRUCTURE
     1 SER1        1 GROUP   
     2 ALA2       10 GROUP   
     3 ASP3       23 GROUP   
     4 GLY6       27 GROUP   
     5 CUB7       42 GROUP   
@<TRIPOS>SET

