#    Name: 6ach_4_NAD_CAVITY_N1_6
#    Modification time : Fri May 22 19:27:21 2020

@<TRIPOS>MOLECULE
6ach_4_NAD_CAVITY_N1_6
   92     0     6     0     0
SMALL
NO_CHARGES


@<TRIPOS>ATOM
      1 OG        132.8000   92.1400  144.7100 O.3       1 SER1        0.0000 
      2 OG        134.2900   91.2600  146.6400 O.3       1 SER1        0.0000 
      3 OG        133.6500   92.9900  145.6000 O.3       1 SER1        0.0000 
      4 OG        134.0100   93.0800  147.6900 O.3       1 SER1        0.0000 
      5 OG        135.9900   92.9600  148.4400 O.3       1 SER1        0.0000 
      6 OG        135.3500   94.6900  147.3900 O.3       1 SER1        0.0000 
      7 O         136.6200   88.0700  139.9200 O.2       2 ALA2        0.0000 
      8 O         137.7500   87.1000  139.7700 O.2       2 ALA2        0.0000 
      9 N         132.5900   89.5600  144.8500 N.am      2 ALA2        0.0000 
     10 O         133.7200   88.5800  144.7000 O.2       2 ALA2        0.0000 
     11 O         134.8500   87.6100  144.5500 O.2       2 ALA2        0.0000 
     12 N         131.9500   91.2900  143.8100 N.am      2 ALA2        0.0000 
     13 N         133.0800   90.3200  143.6600 N.am      2 ALA2        0.0000 
     14 O         134.2100   89.3400  143.5100 O.2       2 ALA2        0.0000 
     15 O         132.4500   92.0500  142.6200 O.2       2 ALA2        0.0000 
     16 O         139.2400   86.2100  141.7100 O.2       2 ALA2        0.0000 
     17 O         136.3400   89.8900  140.9700 O.2       2 ALA2        0.0000 
     18 O         137.4700   88.9200  140.8200 O.2       2 ALA2        0.0000 
     19 O         138.6000   87.9500  140.6700 O.2       2 ALA2        0.0000 
     20 O         139.7300   86.9700  140.5200 O.2       2 ALA2        0.0000 
     21 N         134.0700   88.6700  146.7900 N.am      2 ALA2        0.0000 
     22 N         134.5700   89.4300  145.6000 N.am      2 ALA2        0.0000 
     23 O         135.7000   88.4600  145.4500 O.2       2 ALA2        0.0000 
     24 O         136.2000   89.2200  144.2500 O.2       2 ALA2        0.0000 
     25 O         137.1900   90.7400  141.8700 O.2       2 ALA2        0.0000 
     26 N         136.0600   88.5500  147.5400 N.am      2 ALA2        0.0000 
     27 N         135.1400   95.2800  142.0200 N.am      2 ALA2        0.0000 
     28 N         136.2700   94.3000  141.8700 N.am      2 ALA2        0.0000 
     29 N         137.1200   95.1500  142.7600 N.am      2 ALA2        0.0000 
     30 OD1       133.3600   88.4900  142.6100 O.co2     3 ASP3        0.0000 
     31 OD1       132.7300   90.2300  141.5700 O.co2     3 ASP3        0.0000 
     32 OD1       134.3500   90.0200  140.2300 O.co2     3 ASP3        0.0000 
     33 OD1       135.4900   89.0400  140.0700 O.co2     3 ASP3        0.0000 
     34 OD1       134.8500   90.7800  139.0300 O.co2     3 ASP3        0.0000 
     35 OD1       135.9800   89.8000  138.8800 O.co2     3 ASP3        0.0000 
     36 OD1       134.7100   90.1100  142.3100 O.co2     3 ASP3        0.0000 
     37 OD1       141.0800   88.5900  140.2200 O.co2     3 ASP3        0.0000 
     38 NZ        135.7000   91.6300  139.9300 N.4       4 LYS4        0.0000 
     39 NZ        136.8300   90.6500  139.7800 N.4       4 LYS4        0.0000 
     40 NZ        136.5500   92.4800  140.8200 N.4       4 LYS4        0.0000 
     41 NZ        137.6800   91.5100  140.6700 N.4       4 LYS4        0.0000 
     42 NZ        137.4000   93.3300  141.7200 N.4       4 LYS4        0.0000 
     43 NZ        138.5300   92.3600  141.5700 N.4       4 LYS4        0.0000 
     44 NZ        135.9900   96.1300  142.9200 N.4       4 LYS4        0.0000 
     45 CA        133.2200   90.9900  140.3800 C.3       5 GLY6        0.0000 
     46 CA        133.7200   91.7500  139.1800 C.3       5 GLY6        0.0000 
     47 CA        140.3700   85.2400  141.5600 C.3       5 GLY6        0.0000 
     48 CA        131.8100   93.7900  141.5700 C.3       5 GLY6        0.0000 
     49 CA        132.9400   92.8100  141.4200 C.3       5 GLY6        0.0000 
     50 CA        134.0700   91.8400  141.2700 C.3       5 GLY6        0.0000 
     51 CA        133.4400   93.5700  140.2300 C.3       5 GLY6        0.0000 
     52 CA        133.4400   90.4100  145.7500 C.3       5 GLY6        0.0000 
     53 CA        132.1700   93.8800  143.6600 C.3       5 GLY6        0.0000 
     54 CA        133.3000   92.9000  143.5100 C.3       5 GLY6        0.0000 
     55 CA        132.6600   94.6400  142.4700 C.3       5 GLY6        0.0000 
     56 CA        133.1600   95.4000  141.2700 C.3       5 GLY6        0.0000 
     57 CA        133.7900   90.5000  147.8400 C.3       5 GLY6        0.0000 
     58 CA        134.9200   89.5200  147.6900 C.3       5 GLY6        0.0000 
     59 CA        132.5200   93.9600  145.7500 C.3       5 GLY6        0.0000 
     60 CA        134.1500   93.7500  144.4100 C.3       5 GLY6        0.0000 
     61 CA        133.5100   95.4900  143.3600 C.3       5 GLY6        0.0000 
     62 CA        134.6400   94.5100  143.2100 C.3       5 GLY6        0.0000 
     63 CA        134.0100   96.2500  142.1700 C.3       5 GLY6        0.0000 
     64 CA        134.6400   91.3500  148.7300 C.3       5 GLY6        0.0000 
     65 CA        134.5000   93.8400  146.5000 C.3       5 GLY6        0.0000 
     66 CA        135.0000   94.6000  145.3000 C.3       5 GLY6        0.0000 
     67 CA        135.4900   95.3600  144.1100 C.3       5 GLY6        0.0000 
     68 CA        134.8600   97.1000  143.0700 C.3       5 GLY6        0.0000 
     69 CA        135.4900   92.2000  149.6300 C.3       5 GLY6        0.0000 
     70 CA        136.6300   91.2300  149.4800 C.3       5 GLY6        0.0000 
     71 CA        135.8500   95.4500  146.2000 C.3       5 GLY6        0.0000 
     72 DU        133.5800   91.0800  142.4700 H         6 CUB7        0.0000 
     73 DU        135.2100   90.8700  141.1200 H         6 CUB7        0.0000 
     74 DU        134.5700   92.6000  140.0800 H         6 CUB7        0.0000 
     75 DU        133.9300   91.1700  144.5500 H         6 CUB7        0.0000 
     76 DU        135.0600   90.1900  144.4000 H         6 CUB7        0.0000 
     77 DU        135.5600   90.9600  143.2100 H         6 CUB7        0.0000 
     78 DU        133.7900   93.6600  142.3200 H         6 CUB7        0.0000 
     79 DU        136.0600   91.7200  142.0200 H         6 CUB7        0.0000 
     80 DU        134.2900   94.4200  141.1200 H         6 CUB7        0.0000 
     81 DU        135.4200   93.4500  140.9700 H         6 CUB7        0.0000 
     82 DU        135.4200   90.2800  146.4900 H         6 CUB7        0.0000 
     83 DU        136.5500   89.3100  146.3400 H         6 CUB7        0.0000 
     84 DU        134.7800   92.0200  145.4500 H         6 CUB7        0.0000 
     85 DU        135.9200   91.0500  145.3000 H         6 CUB7        0.0000 
     86 DU        135.2800   92.7800  144.2600 H         6 CUB7        0.0000 
     87 DU        136.9100   92.5700  142.9100 H         6 CUB7        0.0000 
     88 DU        135.1400   92.1100  147.5400 H         6 CUB7        0.0000 
     89 DU        136.2700   91.1400  147.3900 H         6 CUB7        0.0000 
     90 DU        135.6300   92.8700  146.3500 H         6 CUB7        0.0000 
     91 DU        136.1300   93.6300  145.1500 H         6 CUB7        0.0000 
     92 DU        136.6300   94.3900  143.9600 H         6 CUB7        0.0000 
@<TRIPOS>BOND
@<TRIPOS>SUBSTRUCTURE
     1 SER1        1 GROUP   
     2 ALA2        7 GROUP   
     3 ASP3       30 GROUP   
     4 LYS4       38 GROUP   
     5 GLY6       45 GROUP   
     6 CUB7       72 GROUP   
@<TRIPOS>SET

