#    Name: 6ach_6_NAD_CAVITY_N1_6
#    Modification time : Fri May 22 19:27:35 2020

@<TRIPOS>MOLECULE
6ach_6_NAD_CAVITY_N1_6
   16     0     5     0     0
SMALL
NO_CHARGES


@<TRIPOS>ATOM
      1 O         146.1500  136.0600  140.5500 O.2       1 ALA2        0.0000 
      2 O         147.2800  135.0800  140.4000 O.2       1 ALA2        0.0000 
      3 O         147.5000  137.6700  140.2500 O.2       1 ALA2        0.0000 
      4 O         148.6300  136.7000  140.1000 O.2       1 ALA2        0.0000 
      5 OD1       143.9500  133.5900  139.9500 O.co2     2 ASP3        0.0000 
      6 OD1       145.5800  133.3800  138.6100 O.co2     2 ASP3        0.0000 
      7 OD1       145.9300  133.4700  140.7000 O.co2     2 ASP3        0.0000 
      8 OD1       146.4300  134.2300  139.5000 O.co2     2 ASP3        0.0000 
      9 NZ        142.8200  134.5700  140.1000 N.4       3 LYS4        0.0000 
     10 NZ        143.6700  135.4200  141.0000 N.4       3 LYS4        0.0000 
     11 NZ        144.1700  136.1800  139.8000 N.4       3 LYS4        0.0000 
     12 NZ        145.0200  137.0300  140.7000 N.4       3 LYS4        0.0000 
     13 CA        146.3600  138.6400  140.4000 C.3       4 GLY6        0.0000 
     14 DU        143.1800  134.6600  142.1900 H         5 CUB7        0.0000 
     15 DU        144.8000  134.4400  140.8500 H         5 CUB7        0.0000 
     16 DU        145.3000  135.2100  139.6500 H         5 CUB7        0.0000 
@<TRIPOS>BOND
@<TRIPOS>SUBSTRUCTURE
     1 ALA2        1 GROUP   
     2 ASP3        5 GROUP   
     3 LYS4        9 GROUP   
     4 GLY6       13 GROUP   
     5 CUB7       14 GROUP   
@<TRIPOS>SET

