#    Name: 6ach_6_NAD
#    Modification time : Fri May 22 19:27:34 2020

@<TRIPOS>MOLECULE
6ach_6_NAD
   44    48     1     0     1
SMALL
NO_CHARGES


@<TRIPOS>ATOM
      1 PA        144.1170  139.5410  151.6470 P.3       1 NAD400      0.0000 
      2 O1A       144.4770  140.5810  150.6170 O.co2     1 NAD400      0.0000 
      3 O2A       143.0760  140.1040  152.5850 O.co2     1 NAD400      0.0000 
      4 O5B       145.4670  139.1360  152.4930 O.3       1 NAD400      0.0000 
      5 C5B       146.5340  140.0310  152.4640 C.3       1 NAD400      0.0000 
      6 C4B       146.7720  140.5780  153.8540 C.3       1 NAD400      0.0000 
      7 O4B       148.3610  140.6510  154.1160 O.3       1 NAD400      0.0000 
      8 C3B       146.3830  141.8110  153.8930 C.3       1 NAD400      0.0000 
      9 O3B       144.9300  141.8930  154.2330 O.3       1 NAD400      0.0000 
     10 C2B       147.2270  142.3850  155.0320 C.3       1 NAD400      0.0000 
     11 O2B       146.6960  141.9910  156.2100 O.3       1 NAD400      0.0000 
     12 C1B       148.5890  141.7040  154.8500 C.3       1 NAD400      0.0000 
     13 N9A       149.5250  142.6330  154.1880 N.pl3     1 NAD400      0.0000 
     14 C8A       149.5000  143.6190  153.2940 C.2       1 NAD400      0.0000 
     15 N7A       150.7590  144.0460  153.1650 N.2       1 NAD400      0.0000 
     16 C5A       151.5390  143.3170  153.9790 C.ar      1 NAD400      0.0000 
     17 C6A       152.8900  143.3380  154.2320 C.ar      1 NAD400      0.0000 
     18 N6A       154.0400  144.0930  153.7850 N.pl3     1 NAD400      0.0000 
     19 N1A       153.4190  142.4990  155.1040 N.ar      1 NAD400      0.0000 
     20 C2A       152.6330  141.6110  155.7500 C.ar      1 NAD400      0.0000 
     21 N3A       151.3080  141.5850  155.5000 N.ar      1 NAD400      0.0000 
     22 C4A       150.7700  142.4400  154.6200 C.ar      1 NAD400      0.0000 
     23 O3        143.5160  138.1830  150.9450 O.3       1 NAD400      0.0000 
     24 PN        144.0310  137.5430  149.5240 P.3       1 NAD400      0.0000 
     25 O1N       144.3050  138.6250  148.5130 O.co2     1 NAD400      0.0000 
     26 O2N       142.9490  136.6390  148.9960 O.co2     1 NAD400      0.0000 
     27 O5D       145.4010  136.6710  149.7690 O.3       1 NAD400      0.0000 
     28 C5D       146.6290  137.3180  149.9200 C.3       1 NAD400      0.0000 
     29 C4D       147.5940  136.8560  148.8440 C.3       1 NAD400      0.0000 
     30 O4D       147.1610  135.3940  148.3110 O.3       1 NAD400      0.0000 
     31 C3D       147.5360  137.6730  147.8210 C.3       1 NAD400      0.0000 
     32 O3D       148.9110  137.9850  147.3270 O.3       1 NAD400      0.0000 
     33 C2D       146.7810  136.9060  146.7290 C.3       1 NAD400      0.0000 
     34 O2D       147.2060  137.3060  145.5080 O.3       1 NAD400      0.0000 
     35 C1D       147.2580  135.4800  147.0170 C.3       1 NAD400      0.0000 
     36 N1N       146.4120  134.4890  146.3320 N.pl3     1 NAD400      0.0000 
     37 C2N       145.2190  134.1390  146.8490 C.ar      1 NAD400      0.0000 
     38 C3N       144.4440  133.2040  146.1880 C.ar      1 NAD400      0.0000 
     39 C7N       143.0940  132.8010  146.7640 C.2       1 NAD400      0.0000 
     40 O7N       142.5820  131.7980  146.4130 O.2       1 NAD400      0.0000 
     41 N7N       142.4410  133.6510  147.7420 N.am      1 NAD400      0.0000 
     42 C4N       144.8740  132.6610  145.0250 C.ar      1 NAD400      0.0000 
     43 C5N       146.0710  133.0190  144.5040 C.ar      1 NAD400      0.0000 
     44 C6N       146.8420  133.9500  145.1750 C.ar      1 NAD400      0.0000 
@<TRIPOS>BOND
     1    1    2 ar   
     2    1    3 ar   
     3    1    4 1    
     4    1   23 1    
     5    4    5 1    
     6    5    6 1    
     7    6    7 1    
     8    6    8 1    
     9    7   12 1    
    10    8    9 1    
    11    8   10 1    
    12   10   11 1    
    13   10   12 1    
    14   12   13 1    
    15   13   14 1    
    16   13   22 1    
    17   14   15 2    
    18   15   16 1    
    19   16   17 ar   
    20   16   22 ar   
    21   17   18 1    
    22   17   19 ar   
    23   19   20 ar   
    24   20   21 ar   
    25   21   22 ar   
    26   23   24 1    
    27   24   25 ar   
    28   24   26 ar   
    29   24   27 1    
    30   27   28 1    
    31   28   29 1    
    32   29   30 1    
    33   29   31 1    
    34   30   35 1    
    35   31   32 1    
    36   31   33 1    
    37   33   34 1    
    38   33   35 1    
    39   35   36 1    
    40   36   37 ar   
    41   36   44 ar   
    42   37   38 ar   
    43   38   39 1    
    44   38   42 ar   
    45   39   40 2    
    46   39   41 am   
    47   42   43 ar   
    48   43   44 ar   
@<TRIPOS>SUBSTRUCTURE
     1 NAD400      1 GROUP   
@<TRIPOS>SET
ATOM$ORANGE STATIC     ATOMS   COLORGROUP SYSTEM 
42 5 5 6 6 8 8 10 10 12 12 14 14 16 16 17 17 20 \
20 22 22 28 28 29 29 31 31 33 33 35 35 37 37 38 38 39 \
39 42 42 43 43 44 44 

