#    Name: 6ach_5_NAD
#    Modification time : Fri May 22 19:27:27 2020

@<TRIPOS>MOLECULE
6ach_5_NAD
   44    48     1     0     1
SMALL
NO_CHARGES


@<TRIPOS>ATOM
      1 PA        140.7720  142.8850   84.8970 P.3       1 NAD400      0.0000 
      2 O1A       141.8130  143.2450   85.9270 O.co2     1 NAD400      0.0000 
      3 O2A       141.3350  141.8440   83.9590 O.co2     1 NAD400      0.0000 
      4 O5B       140.3680  144.2350   84.0510 O.3       1 NAD400      0.0000 
      5 C5B       141.2630  145.3020   84.0800 C.3       1 NAD400      0.0000 
      6 C4B       141.8100  145.5400   82.6900 C.3       1 NAD400      0.0000 
      7 O4B       141.8830  147.1290   82.4280 O.3       1 NAD400      0.0000 
      8 C3B       143.0430  145.1510   82.6510 C.3       1 NAD400      0.0000 
      9 O3B       143.1250  143.6980   82.3110 O.3       1 NAD400      0.0000 
     10 C2B       143.6170  145.9950   81.5120 C.3       1 NAD400      0.0000 
     11 O2B       143.2240  145.4640   80.3340 O.3       1 NAD400      0.0000 
     12 C1B       142.9360  147.3570   81.6940 C.3       1 NAD400      0.0000 
     13 N9A       143.8650  148.2930   82.3560 N.pl3     1 NAD400      0.0000 
     14 C8A       144.8500  148.2680   83.2500 C.2       1 NAD400      0.0000 
     15 N7A       145.2780  149.5270   83.3790 N.2       1 NAD400      0.0000 
     16 C5A       144.5490  150.3070   82.5650 C.ar      1 NAD400      0.0000 
     17 C6A       144.5700  151.6580   82.3120 C.ar      1 NAD400      0.0000 
     18 N6A       145.3250  152.8080   82.7590 N.pl3     1 NAD400      0.0000 
     19 N1A       143.7310  152.1870   81.4400 N.ar      1 NAD400      0.0000 
     20 C2A       142.8420  151.4010   80.7940 C.ar      1 NAD400      0.0000 
     21 N3A       142.8170  150.0760   81.0440 N.ar      1 NAD400      0.0000 
     22 C4A       143.6720  149.5380   81.9240 C.ar      1 NAD400      0.0000 
     23 O3        139.4150  142.2840   85.5990 O.3       1 NAD400      0.0000 
     24 PN        138.7750  142.7990   87.0200 P.3       1 NAD400      0.0000 
     25 O1N       139.8580  143.0730   88.0310 O.co2     1 NAD400      0.0000 
     26 O2N       137.8710  141.7170   87.5480 O.co2     1 NAD400      0.0000 
     27 O5D       137.9030  144.1690   86.7750 O.3       1 NAD400      0.0000 
     28 C5D       138.5500  145.3970   86.6240 C.3       1 NAD400      0.0000 
     29 C4D       138.0880  146.3630   87.7010 C.3       1 NAD400      0.0000 
     30 O4D       136.6260  145.9290   88.2330 O.3       1 NAD400      0.0000 
     31 C3D       138.9050  146.3040   88.7240 C.3       1 NAD400      0.0000 
     32 O3D       139.2170  147.6790   89.2180 O.3       1 NAD400      0.0000 
     33 C2D       138.1380  145.5500   89.8150 C.3       1 NAD400      0.0000 
     34 O2D       138.5370  145.9750   91.0360 O.3       1 NAD400      0.0000 
     35 C1D       136.7120  146.0260   89.5280 C.3       1 NAD400      0.0000 
     36 N1N       135.7210  145.1800   90.2120 N.pl3     1 NAD400      0.0000 
     37 C2N       135.3710  143.9870   89.6950 C.ar      1 NAD400      0.0000 
     38 C3N       134.4370  143.2110   90.3560 C.ar      1 NAD400      0.0000 
     39 C7N       134.0340  141.8620   89.7800 C.2       1 NAD400      0.0000 
     40 O7N       133.0300  141.3500   90.1310 O.2       1 NAD400      0.0000 
     41 N7N       134.8840  141.2080   88.8020 N.am      1 NAD400      0.0000 
     42 C4N       133.8930  143.6420   91.5190 C.ar      1 NAD400      0.0000 
     43 C5N       134.2500  144.8390   92.0400 C.ar      1 NAD400      0.0000 
     44 C6N       135.1820  145.6100   91.3690 C.ar      1 NAD400      0.0000 
@<TRIPOS>BOND
     1    1    2 ar   
     2    1    3 ar   
     3    1    4 1    
     4    1   23 1    
     5    4    5 1    
     6    5    6 1    
     7    6    7 1    
     8    6    8 1    
     9    7   12 1    
    10    8    9 1    
    11    8   10 1    
    12   10   11 1    
    13   10   12 1    
    14   12   13 1    
    15   13   14 1    
    16   13   22 1    
    17   14   15 2    
    18   15   16 1    
    19   16   17 ar   
    20   16   22 ar   
    21   17   18 1    
    22   17   19 ar   
    23   19   20 ar   
    24   20   21 ar   
    25   21   22 ar   
    26   23   24 1    
    27   24   25 ar   
    28   24   26 ar   
    29   24   27 1    
    30   27   28 1    
    31   28   29 1    
    32   29   30 1    
    33   29   31 1    
    34   30   35 1    
    35   31   32 1    
    36   31   33 1    
    37   33   34 1    
    38   33   35 1    
    39   35   36 1    
    40   36   37 ar   
    41   36   44 ar   
    42   37   38 ar   
    43   38   39 1    
    44   38   42 ar   
    45   39   40 2    
    46   39   41 am   
    47   42   43 ar   
    48   43   44 ar   
@<TRIPOS>SUBSTRUCTURE
     1 NAD400      1 GROUP   
@<TRIPOS>SET
ATOM$ORANGE STATIC     ATOMS   COLORGROUP SYSTEM 
42 5 5 6 6 8 8 10 10 12 12 14 14 16 16 17 17 20 \
20 22 22 28 28 29 29 31 31 33 33 35 35 37 37 38 38 39 \
39 42 42 43 43 44 44 

