#    Name: 6ach_8_NAD
#    Modification time : Fri May 22 19:27:48 2020

@<TRIPOS>MOLECULE
6ach_8_NAD
   44    48     1     0     1
SMALL
NO_CHARGES


@<TRIPOS>ATOM
      1 PA         95.7710  142.8850  151.6470 P.3       1 NAD400      0.0000 
      2 O1A        94.7310  143.2450  150.6170 O.co2     1 NAD400      0.0000 
      3 O2A        95.2080  141.8440  152.5840 O.co2     1 NAD400      0.0000 
      4 O5B        96.1760  144.2350  152.4930 O.3       1 NAD400      0.0000 
      5 C5B        95.2810  145.3020  152.4640 C.3       1 NAD400      0.0000 
      6 C4B        94.7340  145.5400  153.8540 C.3       1 NAD400      0.0000 
      7 O4B        94.6610  147.1290  154.1160 O.3       1 NAD400      0.0000 
      8 C3B        93.5010  145.1510  153.8930 C.3       1 NAD400      0.0000 
      9 O3B        93.4190  143.6980  154.2330 O.3       1 NAD400      0.0000 
     10 C2B        92.9270  145.9950  155.0320 C.3       1 NAD400      0.0000 
     11 O2B        93.3210  145.4640  156.2100 O.3       1 NAD400      0.0000 
     12 C1B        93.6080  147.3570  154.8500 C.3       1 NAD400      0.0000 
     13 N9A        92.6790  148.2920  154.1880 N.pl3     1 NAD400      0.0000 
     14 C8A        91.6930  148.2680  153.2940 C.2       1 NAD400      0.0000 
     15 N7A        91.2660  149.5270  153.1650 N.2       1 NAD400      0.0000 
     16 C5A        91.9950  150.3070  153.9790 C.ar      1 NAD400      0.0000 
     17 C6A        91.9740  151.6580  154.2320 C.ar      1 NAD400      0.0000 
     18 N6A        91.2190  152.8080  153.7850 N.pl3     1 NAD400      0.0000 
     19 N1A        92.8130  152.1870  155.1040 N.ar      1 NAD400      0.0000 
     20 C2A        93.7010  151.4010  155.7490 C.ar      1 NAD400      0.0000 
     21 N3A        93.7270  150.0760  155.5000 N.ar      1 NAD400      0.0000 
     22 C4A        92.8720  149.5380  154.6200 C.ar      1 NAD400      0.0000 
     23 O3         97.1290  142.2840  150.9450 O.3       1 NAD400      0.0000 
     24 PN         97.7690  142.7990  149.5240 P.3       1 NAD400      0.0000 
     25 O1N        96.6870  143.0730  148.5130 O.co2     1 NAD400      0.0000 
     26 O2N        98.6730  141.7170  148.9960 O.co2     1 NAD400      0.0000 
     27 O5D        98.6410  144.1690  149.7690 O.3       1 NAD400      0.0000 
     28 C5D        97.9940  145.3970  149.9200 C.3       1 NAD400      0.0000 
     29 C4D        98.4560  146.3620  148.8440 C.3       1 NAD400      0.0000 
     30 O4D        99.9180  145.9290  148.3110 O.3       1 NAD400      0.0000 
     31 C3D        97.6390  146.3040  147.8200 C.3       1 NAD400      0.0000 
     32 O3D        97.3270  147.6790  147.3270 O.3       1 NAD400      0.0000 
     33 C2D        98.4060  145.5490  146.7290 C.3       1 NAD400      0.0000 
     34 O2D        98.0070  145.9750  145.5080 O.3       1 NAD400      0.0000 
     35 C1D        99.8320  146.0260  147.0170 C.3       1 NAD400      0.0000 
     36 N1N       100.8230  145.1800  146.3320 N.pl3     1 NAD400      0.0000 
     37 C2N       101.1730  143.9870  146.8490 C.ar      1 NAD400      0.0000 
     38 C3N       102.1070  143.2110  146.1880 C.ar      1 NAD400      0.0000 
     39 C7N       102.5110  141.8620  146.7640 C.2       1 NAD400      0.0000 
     40 O7N       103.5140  141.3500  146.4130 O.2       1 NAD400      0.0000 
     41 N7N       101.6610  141.2090  147.7420 N.am      1 NAD400      0.0000 
     42 C4N       102.6510  143.6420  145.0250 C.ar      1 NAD400      0.0000 
     43 C5N       102.2940  144.8390  144.5040 C.ar      1 NAD400      0.0000 
     44 C6N       101.3620  145.6100  145.1750 C.ar      1 NAD400      0.0000 
@<TRIPOS>BOND
     1    1    2 ar   
     2    1    3 ar   
     3    1    4 1    
     4    1   23 1    
     5    4    5 1    
     6    5    6 1    
     7    6    7 1    
     8    6    8 1    
     9    7   12 1    
    10    8    9 1    
    11    8   10 1    
    12   10   11 1    
    13   10   12 1    
    14   12   13 1    
    15   13   14 1    
    16   13   22 1    
    17   14   15 2    
    18   15   16 1    
    19   16   17 ar   
    20   16   22 ar   
    21   17   18 1    
    22   17   19 ar   
    23   19   20 ar   
    24   20   21 ar   
    25   21   22 ar   
    26   23   24 1    
    27   24   25 ar   
    28   24   26 ar   
    29   24   27 1    
    30   27   28 1    
    31   28   29 1    
    32   29   30 1    
    33   29   31 1    
    34   30   35 1    
    35   31   32 1    
    36   31   33 1    
    37   33   34 1    
    38   33   35 1    
    39   35   36 1    
    40   36   37 ar   
    41   36   44 ar   
    42   37   38 ar   
    43   38   39 1    
    44   38   42 ar   
    45   39   40 2    
    46   39   41 am   
    47   42   43 ar   
    48   43   44 ar   
@<TRIPOS>SUBSTRUCTURE
     1 NAD400      1 GROUP   
@<TRIPOS>SET
ATOM$ORANGE STATIC     ATOMS   COLORGROUP SYSTEM 
42 5 5 6 6 8 8 10 10 12 12 14 14 16 16 17 17 20 \
20 22 22 28 28 29 29 31 31 33 33 35 35 37 37 38 38 39 \
39 42 42 43 43 44 44 

