#    Name: 6ach_8_NAD_CAVITY_N1_6
#    Modification time : Fri May 22 19:27:50 2020

@<TRIPOS>MOLECULE
6ach_8_NAD_CAVITY_N1_6
   90     0     6     0     0
SMALL
NO_CHARGES


@<TRIPOS>ATOM
      1 OG        101.7000  141.0400  147.8900 O.3       1 SER1        0.0000 
      2 OG        102.8300  140.0700  147.7400 O.3       1 SER1        0.0000 
      3 OG        102.2000  141.8000  146.7000 O.3       1 SER1        0.0000 
      4 OG        103.3300  140.8300  146.5500 O.3       1 SER1        0.0000 
      5 OG        102.6900  142.5600  145.5000 O.3       1 SER1        0.0000 
      6 OG        103.8200  141.5900  145.3500 O.3       1 SER1        0.0000 
      7 OG        104.3200  142.3500  144.1600 O.3       1 SER1        0.0000 
      8 OG        103.0500  142.6500  147.5900 O.3       1 SER1        0.0000 
      9 OG        100.5000  146.4200  148.9400 O.3       1 SER1        0.0000 
     10 OG        101.6400  145.4500  148.7900 O.3       1 SER1        0.0000 
     11 O          97.1000  146.1800  139.8400 O.2       2 ALA2        0.0000 
     12 O          98.2300  145.2100  139.6900 O.2       2 ALA2        0.0000 
     13 O          99.7200  144.3300  141.6200 O.2       2 ALA2        0.0000 
     14 O          97.9500  147.0300  140.7300 O.2       2 ALA2        0.0000 
     15 O         100.2200  145.0900  140.4300 O.2       2 ALA2        0.0000 
     16 O         100.0700  144.4200  143.7100 O.2       2 ALA2        0.0000 
     17 O         101.7000  144.2000  142.3700 O.2       2 ALA2        0.0000 
     18 O          98.1700  146.4500  146.1000 O.2       2 ALA2        0.0000 
     19 O          99.3000  145.4800  145.9500 O.2       2 ALA2        0.0000 
     20 O         100.9300  145.2700  144.6100 O.2       2 ALA2        0.0000 
     21 N         103.1900  143.3200  144.3100 N.am      2 ALA2        0.0000 
     22 O         102.5500  145.0600  143.2700 O.2       2 ALA2        0.0000 
     23 N         103.6800  144.0800  143.1100 N.am      2 ALA2        0.0000 
     24 N         104.8200  143.1100  142.9600 N.am      2 ALA2        0.0000 
     25 N          99.6500  145.5700  148.0400 N.am      2 ALA2        0.0000 
     26 N         100.1500  146.3300  146.8500 N.am      2 ALA2        0.0000 
     27 N         101.2800  145.3600  146.7000 N.am      2 ALA2        0.0000 
     28 N         101.7800  146.1200  145.5100 N.am      2 ALA2        0.0000 
     29 N         102.9100  145.1500  145.3500 N.am      2 ALA2        0.0000 
     30 N         104.0400  144.1700  145.2000 N.am      2 ALA2        0.0000 
     31 N         103.4000  145.9100  144.1600 N.am      2 ALA2        0.0000 
     32 OD1       101.3500  144.1100  140.2800 O.co2     3 ASP3        0.0000 
     33 OD1       102.4800  143.1400  140.1300 O.co2     3 ASP3        0.0000 
     34 OD1       100.7100  145.8500  139.2400 O.co2     3 ASP3        0.0000 
     35 OD1       101.8400  144.8800  139.0900 O.co2     3 ASP3        0.0000 
     36 OD1       102.8300  143.2300  142.2200 O.co2     3 ASP3        0.0000 
     37 NZ         99.5000  141.7400  141.7700 N.4       4 LYS4        0.0000 
     38 NZ         98.8700  143.4800  140.7300 N.4       4 LYS4        0.0000 
     39 NZ        100.0000  142.5000  140.5800 N.4       4 LYS4        0.0000 
     40 NZ         99.3600  144.2400  139.5400 N.4       4 LYS4        0.0000 
     41 NZ        100.5000  143.2600  139.3800 N.4       4 LYS4        0.0000 
     42 CA        100.2800  137.5100  145.0500 C.3       5 GLY6        0.0000 
     43 CA        100.7800  138.2700  143.8600 C.3       5 GLY6        0.0000 
     44 CA        101.9100  137.3000  143.7100 C.3       5 GLY6        0.0000 
     45 CA        102.4000  138.0600  142.5100 C.3       5 GLY6        0.0000 
     46 CA        101.6300  139.1200  144.7500 C.3       5 GLY6        0.0000 
     47 CA        102.1200  139.8900  143.5600 C.3       5 GLY6        0.0000 
     48 CA        103.2500  138.9100  143.4100 C.3       5 GLY6        0.0000 
     49 CA        103.7500  139.6700  142.2200 C.3       5 GLY6        0.0000 
     50 CA        103.1100  141.4100  141.1700 C.3       5 GLY6        0.0000 
     51 CA        104.2500  140.4300  141.0200 C.3       5 GLY6        0.0000 
     52 CA         96.8200  148.0100  140.8800 C.3       5 GLY6        0.0000 
     53 CA        102.4800  139.9800  145.6500 C.3       5 GLY6        0.0000 
     54 CA        102.9700  140.7400  144.4600 C.3       5 GLY6        0.0000 
     55 CA        104.1100  139.7600  144.3100 C.3       5 GLY6        0.0000 
     56 CA        103.4700  141.5000  143.2600 C.3       5 GLY6        0.0000 
     57 CA        104.6000  140.5200  143.1100 C.3       5 GLY6        0.0000 
     58 CA        103.9700  142.2600  142.0700 C.3       5 GLY6        0.0000 
     59 CA        100.2900  143.8300  149.0900 C.3       5 GLY6        0.0000 
     60 CA        102.5500  141.8900  148.7900 C.3       5 GLY6        0.0000 
     61 CA        100.7900  144.6000  147.8900 C.3       5 GLY6        0.0000 
     62 CA        101.9200  143.6200  147.7400 C.3       5 GLY6        0.0000 
     63 CA        102.4100  144.3800  146.5500 C.3       5 GLY6        0.0000 
     64 CA        103.5400  143.4100  146.4000 C.3       5 GLY6        0.0000 
     65 CA        103.2600  145.2400  147.4400 C.3       5 GLY6        0.0000 
     66 DU         99.6500  139.2500  144.0100 H         6 CUB7        0.0000 
     67 DU        100.1400  140.0100  142.8200 H         6 CUB7        0.0000 
     68 DU        101.2700  139.0300  142.6600 H         6 CUB7        0.0000 
     69 DU        100.6400  140.7700  141.6200 H         6 CUB7        0.0000 
     70 DU        101.7700  139.8000  141.4700 H         6 CUB7        0.0000 
     71 DU        102.9000  138.8200  141.3200 H         6 CUB7        0.0000 
     72 DU        101.1300  141.5300  140.4300 H         6 CUB7        0.0000 
     73 DU        102.2600  140.5600  140.2800 H         6 CUB7        0.0000 
     74 DU        101.6300  142.2900  139.2300 H         6 CUB7        0.0000 
     75 DU        100.5000  140.1000  144.9000 H         6 CUB7        0.0000 
     76 DU        100.9900  140.8600  143.7100 H         6 CUB7        0.0000 
     77 DU        100.3600  142.5900  142.6700 H         6 CUB7        0.0000 
     78 DU        102.6200  140.6500  142.3700 H         6 CUB7        0.0000 
     79 DU        100.8500  143.3500  141.4700 H         6 CUB7        0.0000 
     80 DU        101.9800  142.3800  141.3200 H         6 CUB7        0.0000 
     81 DU        101.3500  140.9500  145.8000 H         6 CUB7        0.0000 
     82 DU        100.7100  142.6800  144.7600 H         6 CUB7        0.0000 
     83 DU        101.8400  141.7100  144.6100 H         6 CUB7        0.0000 
     84 DU        101.2100  143.4400  143.5600 H         6 CUB7        0.0000 
     85 DU        100.5700  142.0100  148.0400 H         6 CUB7        0.0000 
     86 DU         99.9300  143.7500  147.0000 H         6 CUB7        0.0000 
     87 DU        101.0700  142.7700  146.8500 H         6 CUB7        0.0000 
     88 DU        100.4300  144.5100  145.8000 H         6 CUB7        0.0000 
     89 DU        101.5600  143.5300  145.6500 H         6 CUB7        0.0000 
     90 DU        102.0600  144.2900  144.4600 H         6 CUB7        0.0000 
@<TRIPOS>BOND
@<TRIPOS>SUBSTRUCTURE
     1 SER1        1 GROUP   
     2 ALA2       11 GROUP   
     3 ASP3       32 GROUP   
     4 LYS4       37 GROUP   
     5 GLY6       42 GROUP   
     6 CUB7       66 GROUP   
@<TRIPOS>SET

