#    Name: 6ach_3_NAD
#    Modification time : Fri May 22 19:27:13 2020

@<TRIPOS>MOLECULE
6ach_3_NAD
   44    48     1     0     1
SMALL
NO_CHARGES


@<TRIPOS>ATOM
      1 PA        144.1170   94.5400   84.8970 P.3       1 NAD400      0.0000 
      2 O1A       144.4770   93.4990   85.9270 O.co2     1 NAD400      0.0000 
      3 O2A       143.0760   93.9770   83.9590 O.co2     1 NAD400      0.0000 
      4 O5B       145.4670   94.9440   84.0510 O.3       1 NAD400      0.0000 
      5 C5B       146.5350   94.0490   84.0800 C.3       1 NAD400      0.0000 
      6 C4B       146.7720   93.5020   82.6900 C.3       1 NAD400      0.0000 
      7 O4B       148.3610   93.4290   82.4280 O.3       1 NAD400      0.0000 
      8 C3B       146.3830   92.2690   82.6510 C.3       1 NAD400      0.0000 
      9 O3B       144.9300   92.1870   82.3110 O.3       1 NAD400      0.0000 
     10 C2B       147.2270   91.6950   81.5130 C.3       1 NAD400      0.0000 
     11 O2B       146.6960   92.0880   80.3340 O.3       1 NAD400      0.0000 
     12 C1B       148.5890   92.3760   81.6950 C.3       1 NAD400      0.0000 
     13 N9A       149.5250   91.4470   82.3570 N.pl3     1 NAD400      0.0000 
     14 C8A       149.5000   90.4610   83.2500 C.2       1 NAD400      0.0000 
     15 N7A       150.7590   90.0340   83.3790 N.2       1 NAD400      0.0000 
     16 C5A       151.5390   90.7630   82.5650 C.ar      1 NAD400      0.0000 
     17 C6A       152.8900   90.7420   82.3120 C.ar      1 NAD400      0.0000 
     18 N6A       154.0410   89.9880   82.7590 N.pl3     1 NAD400      0.0000 
     19 N1A       153.4190   91.5810   81.4400 N.ar      1 NAD400      0.0000 
     20 C2A       152.6330   92.4700   80.7940 C.ar      1 NAD400      0.0000 
     21 N3A       151.3080   92.4950   81.0440 N.ar      1 NAD400      0.0000 
     22 C4A       150.7700   91.6400   81.9240 C.ar      1 NAD400      0.0000 
     23 O3        143.5160   95.8970   85.5990 O.3       1 NAD400      0.0000 
     24 PN        144.0310   96.5370   87.0200 P.3       1 NAD400      0.0000 
     25 O1N       144.3050   95.4540   88.0310 O.co2     1 NAD400      0.0000 
     26 O2N       142.9490   97.4410   87.5480 O.co2     1 NAD400      0.0000 
     27 O5D       145.4010   97.4100   86.7750 O.3       1 NAD400      0.0000 
     28 C5D       146.6290   96.7620   86.6240 C.3       1 NAD400      0.0000 
     29 C4D       147.5950   97.2240   87.7010 C.3       1 NAD400      0.0000 
     30 O4D       147.1610   98.6860   88.2330 O.3       1 NAD400      0.0000 
     31 C3D       147.5360   96.4070   88.7240 C.3       1 NAD400      0.0000 
     32 O3D       148.9110   96.0950   89.2180 O.3       1 NAD400      0.0000 
     33 C2D       146.7810   97.1740   89.8150 C.3       1 NAD400      0.0000 
     34 O2D       147.2060   96.7740   91.0360 O.3       1 NAD400      0.0000 
     35 C1D       147.2580   98.6000   89.5280 C.3       1 NAD400      0.0000 
     36 N1N       146.4120   99.5910   90.2130 N.pl3     1 NAD400      0.0000 
     37 C2N       145.2190   99.9410   89.6950 C.ar      1 NAD400      0.0000 
     38 C3N       144.4440  100.8750   90.3560 C.ar      1 NAD400      0.0000 
     39 C7N       143.0940  101.2790   89.7800 C.2       1 NAD400      0.0000 
     40 O7N       142.5820  102.2820   90.1310 O.2       1 NAD400      0.0000 
     41 N7N       142.4410  100.4290   88.8020 N.am      1 NAD400      0.0000 
     42 C4N       144.8740  101.4190   91.5190 C.ar      1 NAD400      0.0000 
     43 C5N       146.0710  101.0620   92.0400 C.ar      1 NAD400      0.0000 
     44 C6N       146.8420  100.1300   91.3690 C.ar      1 NAD400      0.0000 
@<TRIPOS>BOND
     1    1    2 ar   
     2    1    3 ar   
     3    1    4 1    
     4    1   23 1    
     5    4    5 1    
     6    5    6 1    
     7    6    7 1    
     8    6    8 1    
     9    7   12 1    
    10    8    9 1    
    11    8   10 1    
    12   10   11 1    
    13   10   12 1    
    14   12   13 1    
    15   13   14 1    
    16   13   22 1    
    17   14   15 2    
    18   15   16 1    
    19   16   17 ar   
    20   16   22 ar   
    21   17   18 1    
    22   17   19 ar   
    23   19   20 ar   
    24   20   21 ar   
    25   21   22 ar   
    26   23   24 1    
    27   24   25 ar   
    28   24   26 ar   
    29   24   27 1    
    30   27   28 1    
    31   28   29 1    
    32   29   30 1    
    33   29   31 1    
    34   30   35 1    
    35   31   32 1    
    36   31   33 1    
    37   33   34 1    
    38   33   35 1    
    39   35   36 1    
    40   36   37 ar   
    41   36   44 ar   
    42   37   38 ar   
    43   38   39 1    
    44   38   42 ar   
    45   39   40 2    
    46   39   41 am   
    47   42   43 ar   
    48   43   44 ar   
@<TRIPOS>SUBSTRUCTURE
     1 NAD400      1 GROUP   
@<TRIPOS>SET
ATOM$ORANGE STATIC     ATOMS   COLORGROUP SYSTEM 
42 5 5 6 6 8 8 10 10 12 12 14 14 16 16 17 17 20 \
20 22 22 28 28 29 29 31 31 33 33 35 35 37 37 38 38 39 \
39 42 42 43 43 44 44 

