#    Name: 6ach_7_NAD
#    Modification time : Fri May 22 19:27:41 2020

@<TRIPOS>MOLECULE
6ach_7_NAD
   44    48     1     0     1
SMALL
NO_CHARGES


@<TRIPOS>ATOM
      1 PA         92.4270  139.5400   84.8970 P.3       1 NAD400      0.0000 
      2 O1A        92.0670  140.5810   85.9270 O.co2     1 NAD400      0.0000 
      3 O2A        93.4680  140.1030   83.9590 O.co2     1 NAD400      0.0000 
      4 O5B        91.0770  139.1350   84.0510 O.3       1 NAD400      0.0000 
      5 C5B        90.0100  140.0310   84.0800 C.3       1 NAD400      0.0000 
      6 C4B        89.7730  140.5780   82.6900 C.3       1 NAD400      0.0000 
      7 O4B        88.1830  140.6510   82.4280 O.3       1 NAD400      0.0000 
      8 C3B        90.1610  141.8110   82.6510 C.3       1 NAD400      0.0000 
      9 O3B        91.6140  141.8930   82.3110 O.3       1 NAD400      0.0000 
     10 C2B        89.3170  142.3850   81.5120 C.3       1 NAD400      0.0000 
     11 O2B        89.8480  141.9910   80.3340 O.3       1 NAD400      0.0000 
     12 C1B        87.9550  141.7030   81.6940 C.3       1 NAD400      0.0000 
     13 N9A        87.0200  142.6330   82.3560 N.pl3     1 NAD400      0.0000 
     14 C8A        87.0450  143.6180   83.2500 C.2       1 NAD400      0.0000 
     15 N7A        85.7850  144.0460   83.3790 N.2       1 NAD400      0.0000 
     16 C5A        85.0050  143.3170   82.5650 C.ar      1 NAD400      0.0000 
     17 C6A        83.6540  143.3380   82.3120 C.ar      1 NAD400      0.0000 
     18 N6A        82.5040  144.0930   82.7590 N.pl3     1 NAD400      0.0000 
     19 N1A        83.1250  142.4990   81.4400 N.ar      1 NAD400      0.0000 
     20 C2A        83.9110  141.6100   80.7940 C.ar      1 NAD400      0.0000 
     21 N3A        85.2360  141.5840   81.0440 N.ar      1 NAD400      0.0000 
     22 C4A        85.7740  142.4400   81.9240 C.ar      1 NAD400      0.0000 
     23 O3         93.0280  138.1830   85.5990 O.3       1 NAD400      0.0000 
     24 PN         92.5130  137.5430   87.0200 P.3       1 NAD400      0.0000 
     25 O1N        92.2390  138.6260   88.0310 O.co2     1 NAD400      0.0000 
     26 O2N        93.5950  136.6390   87.5480 O.co2     1 NAD400      0.0000 
     27 O5D        91.1430  136.6700   86.7750 O.3       1 NAD400      0.0000 
     28 C5D        89.9150  137.3180   86.6240 C.3       1 NAD400      0.0000 
     29 C4D        88.9490  136.8560   87.7010 C.3       1 NAD400      0.0000 
     30 O4D        89.3830  135.3940   88.2330 O.3       1 NAD400      0.0000 
     31 C3D        89.0080  137.6730   88.7240 C.3       1 NAD400      0.0000 
     32 O3D        87.6330  137.9850   89.2180 O.3       1 NAD400      0.0000 
     33 C2D        89.7620  136.9060   89.8150 C.3       1 NAD400      0.0000 
     34 O2D        89.3370  137.3050   91.0360 O.3       1 NAD400      0.0000 
     35 C1D        89.2860  135.4800   89.5280 C.3       1 NAD400      0.0000 
     36 N1N        90.1320  134.4890   90.2130 N.pl3     1 NAD400      0.0000 
     37 C2N        91.3250  134.1390   89.6950 C.ar      1 NAD400      0.0000 
     38 C3N        92.1010  133.2050   90.3560 C.ar      1 NAD400      0.0000 
     39 C7N        93.4500  132.8020   89.7800 C.2       1 NAD400      0.0000 
     40 O7N        93.9620  131.7980   90.1310 O.2       1 NAD400      0.0000 
     41 N7N        94.1030  133.6510   88.8020 N.am      1 NAD400      0.0000 
     42 C4N        91.6700  132.6610   91.5190 C.ar      1 NAD400      0.0000 
     43 C5N        90.4730  133.0180   92.0400 C.ar      1 NAD400      0.0000 
     44 C6N        89.7020  133.9500   91.3690 C.ar      1 NAD400      0.0000 
@<TRIPOS>BOND
     1    1    2 ar   
     2    1    3 ar   
     3    1    4 1    
     4    1   23 1    
     5    4    5 1    
     6    5    6 1    
     7    6    7 1    
     8    6    8 1    
     9    7   12 1    
    10    8    9 1    
    11    8   10 1    
    12   10   11 1    
    13   10   12 1    
    14   12   13 1    
    15   13   14 1    
    16   13   22 1    
    17   14   15 2    
    18   15   16 1    
    19   16   17 ar   
    20   16   22 ar   
    21   17   18 1    
    22   17   19 ar   
    23   19   20 ar   
    24   20   21 ar   
    25   21   22 ar   
    26   23   24 1    
    27   24   25 ar   
    28   24   26 ar   
    29   24   27 1    
    30   27   28 1    
    31   28   29 1    
    32   29   30 1    
    33   29   31 1    
    34   30   35 1    
    35   31   32 1    
    36   31   33 1    
    37   33   34 1    
    38   33   35 1    
    39   35   36 1    
    40   36   37 ar   
    41   36   44 ar   
    42   37   38 ar   
    43   38   39 1    
    44   38   42 ar   
    45   39   40 2    
    46   39   41 am   
    47   42   43 ar   
    48   43   44 ar   
@<TRIPOS>SUBSTRUCTURE
     1 NAD400      1 GROUP   
@<TRIPOS>SET
ATOM$ORANGE STATIC     ATOMS   COLORGROUP SYSTEM 
42 5 5 6 6 8 8 10 10 12 12 14 14 16 16 17 17 20 \
20 22 22 28 28 29 29 31 31 33 33 35 35 37 37 38 38 39 \
39 42 42 43 43 44 44 

