#    Name: 6ach_6_NAD_CAVITY_N1_8
#    Modification time : Fri May 22 19:27:35 2020

@<TRIPOS>MOLECULE
6ach_6_NAD_CAVITY_N1_8
   48     0     5     0     0
SMALL
NO_CHARGES


@<TRIPOS>ATOM
      1 O         146.1500  136.0600  140.5500 O.2       1 ALA2        0.0000 
      2 O         147.2800  135.0800  140.4000 O.2       1 ALA2        0.0000 
      3 O         146.6400  136.8200  139.3600 O.2       1 ALA2        0.0000 
      4 O         147.7800  135.8400  139.2000 O.2       1 ALA2        0.0000 
      5 N         148.9100  134.8700  139.0500 N.am      1 ALA2        0.0000 
      6 N         150.0400  133.9000  138.9000 N.am      1 ALA2        0.0000 
      7 O         147.5000  137.6700  140.2500 O.2       1 ALA2        0.0000 
      8 O         148.6300  136.7000  140.1000 O.2       1 ALA2        0.0000 
      9 N         150.8900  134.7500  139.8000 N.am      1 ALA2        0.0000 
     10 N         152.0200  133.7800  139.6500 N.am      1 ALA2        0.0000 
     11 O         150.2500  136.4800  138.7600 O.2       1 ALA2        0.0000 
     12 O         149.9700  138.3100  139.8000 O.2       1 ALA2        0.0000 
     13 O         150.4700  139.0700  138.6100 O.2       1 ALA2        0.0000 
     14 OD1       143.9500  133.5900  139.9500 O.co2     2 ASP3        0.0000 
     15 OD1       145.5800  133.3800  138.6100 O.co2     2 ASP3        0.0000 
     16 OD1       144.9400  135.1200  137.5600 O.co2     2 ASP3        0.0000 
     17 OD1       145.9300  133.4700  140.7000 O.co2     2 ASP3        0.0000 
     18 OD1       146.4300  134.2300  139.5000 O.co2     2 ASP3        0.0000 
     19 OD1       145.7900  135.9700  138.4600 O.co2     2 ASP3        0.0000 
     20 OD1       148.0600  134.0200  138.1600 O.co2     2 ASP3        0.0000 
     21 OD1       146.0100  138.5500  138.3100 O.co2     2 ASP3        0.0000 
     22 OD1       146.8600  139.4000  139.2100 O.co2     2 ASP3        0.0000 
     23 NZ        142.8200  134.5700  140.1000 N.4       3 LYS4        0.0000 
     24 NZ        143.6700  135.4200  141.0000 N.4       3 LYS4        0.0000 
     25 NZ        144.1700  136.1800  139.8000 N.4       3 LYS4        0.0000 
     26 NZ        145.0200  137.0300  140.7000 N.4       3 LYS4        0.0000 
     27 NZ        145.5100  137.7900  139.5100 N.4       3 LYS4        0.0000 
     28 CA        146.0700  134.1400  137.4100 C.3       4 GLY6        0.0000 
     29 CA        147.2100  133.1700  137.2600 C.3       4 GLY6        0.0000 
     30 CA        148.3400  132.2000  137.1100 C.3       4 GLY6        0.0000 
     31 CA        149.1900  133.0500  138.0100 C.3       4 GLY6        0.0000 
     32 CA        150.3200  132.0700  137.8600 C.3       4 GLY6        0.0000 
     33 CA        147.4200  135.7500  137.1200 C.3       4 GLY6        0.0000 
     34 CA        150.6800  132.1600  139.9500 C.3       4 GLY6        0.0000 
     35 CA        151.1700  132.9300  138.7500 C.3       4 GLY6        0.0000 
     36 CA        147.1400  137.5800  138.1600 C.3       4 GLY6        0.0000 
     37 CA        148.2700  136.6100  138.0100 C.3       4 GLY6        0.0000 
     38 CA        149.4000  135.6300  137.8600 C.3       4 GLY6        0.0000 
     39 CA        146.3600  138.6400  140.4000 C.3       4 GLY6        0.0000 
     40 CA        149.7600  135.7200  139.9500 C.3       4 GLY6        0.0000 
     41 CA        147.9900  138.4300  139.0600 C.3       4 GLY6        0.0000 
     42 CA        149.1200  137.4600  138.9100 C.3       4 GLY6        0.0000 
     43 CA        148.4900  139.1900  137.8600 C.3       4 GLY6        0.0000 
     44 DU        144.4500  134.3500  138.7600 H         5 CUB7        0.0000 
     45 DU        143.1800  134.6600  142.1900 H         5 CUB7        0.0000 
     46 DU        144.8000  134.4400  140.8500 H         5 CUB7        0.0000 
     47 DU        145.3000  135.2100  139.6500 H         5 CUB7        0.0000 
     48 DU        146.9300  134.9900  138.3100 H         5 CUB7        0.0000 
@<TRIPOS>BOND
@<TRIPOS>SUBSTRUCTURE
     1 ALA2        1 GROUP   
     2 ASP3       14 GROUP   
     3 LYS4       23 GROUP   
     4 GLY6       28 GROUP   
     5 CUB7       44 GROUP   
@<TRIPOS>SET

