#    Name: 6ach_8_NAD_CAVITY_N1_4
#    Modification time : Fri May 22 19:27:50 2020

@<TRIPOS>MOLECULE
6ach_8_NAD_CAVITY_N1_4
   59     0     5     0     0
SMALL
NO_CHARGES


@<TRIPOS>ATOM
      1 OG        101.7000  141.0400  147.8900 O.3       1 SER1        0.0000 
      2 OG        102.8300  140.0700  147.7400 O.3       1 SER1        0.0000 
      3 OG        102.2000  141.8000  146.7000 O.3       1 SER1        0.0000 
      4 OG        103.3300  140.8300  146.5500 O.3       1 SER1        0.0000 
      5 OG        102.6900  142.5600  145.5000 O.3       1 SER1        0.0000 
      6 OG        103.8200  141.5900  145.3500 O.3       1 SER1        0.0000 
      7 OG        104.3200  142.3500  144.1600 O.3       1 SER1        0.0000 
      8 OG        103.0500  142.6500  147.5900 O.3       1 SER1        0.0000 
      9 OG        100.5000  146.4200  148.9400 O.3       1 SER1        0.0000 
     10 OG        101.6400  145.4500  148.7900 O.3       1 SER1        0.0000 
     11 O          99.7200  144.3300  141.6200 O.2       2 ALA2        0.0000 
     12 O         100.0700  144.4200  143.7100 O.2       2 ALA2        0.0000 
     13 O         101.7000  144.2000  142.3700 O.2       2 ALA2        0.0000 
     14 O          98.1700  146.4500  146.1000 O.2       2 ALA2        0.0000 
     15 O          99.3000  145.4800  145.9500 O.2       2 ALA2        0.0000 
     16 O         100.9300  145.2700  144.6100 O.2       2 ALA2        0.0000 
     17 N         103.1900  143.3200  144.3100 N.am      2 ALA2        0.0000 
     18 O         102.5500  145.0600  143.2700 O.2       2 ALA2        0.0000 
     19 N         103.6800  144.0800  143.1100 N.am      2 ALA2        0.0000 
     20 N         104.8200  143.1100  142.9600 N.am      2 ALA2        0.0000 
     21 N          99.6500  145.5700  148.0400 N.am      2 ALA2        0.0000 
     22 N         100.1500  146.3300  146.8500 N.am      2 ALA2        0.0000 
     23 N         101.2800  145.3600  146.7000 N.am      2 ALA2        0.0000 
     24 N         101.7800  146.1200  145.5100 N.am      2 ALA2        0.0000 
     25 N         102.9100  145.1500  145.3500 N.am      2 ALA2        0.0000 
     26 N         104.0400  144.1700  145.2000 N.am      2 ALA2        0.0000 
     27 N         103.4000  145.9100  144.1600 N.am      2 ALA2        0.0000 
     28 OD1       102.8300  143.2300  142.2200 O.co2     3 ASP3        0.0000 
     29 CA        101.6300  139.1200  144.7500 C.3       4 GLY6        0.0000 
     30 CA        102.1200  139.8900  143.5600 C.3       4 GLY6        0.0000 
     31 CA        103.2500  138.9100  143.4100 C.3       4 GLY6        0.0000 
     32 CA        102.4800  139.9800  145.6500 C.3       4 GLY6        0.0000 
     33 CA        102.9700  140.7400  144.4600 C.3       4 GLY6        0.0000 
     34 CA        104.1100  139.7600  144.3100 C.3       4 GLY6        0.0000 
     35 CA        103.4700  141.5000  143.2600 C.3       4 GLY6        0.0000 
     36 CA        104.6000  140.5200  143.1100 C.3       4 GLY6        0.0000 
     37 CA        103.9700  142.2600  142.0700 C.3       4 GLY6        0.0000 
     38 CA        100.2900  143.8300  149.0900 C.3       4 GLY6        0.0000 
     39 CA        102.5500  141.8900  148.7900 C.3       4 GLY6        0.0000 
     40 CA        100.7900  144.6000  147.8900 C.3       4 GLY6        0.0000 
     41 CA        101.9200  143.6200  147.7400 C.3       4 GLY6        0.0000 
     42 CA        102.4100  144.3800  146.5500 C.3       4 GLY6        0.0000 
     43 CA        103.5400  143.4100  146.4000 C.3       4 GLY6        0.0000 
     44 CA        103.2600  145.2400  147.4400 C.3       4 GLY6        0.0000 
     45 DU        100.5000  140.1000  144.9000 H         5 CUB7        0.0000 
     46 DU        100.9900  140.8600  143.7100 H         5 CUB7        0.0000 
     47 DU        100.3600  142.5900  142.6700 H         5 CUB7        0.0000 
     48 DU        100.8500  143.3500  141.4700 H         5 CUB7        0.0000 
     49 DU        101.9800  142.3800  141.3200 H         5 CUB7        0.0000 
     50 DU        101.3500  140.9500  145.8000 H         5 CUB7        0.0000 
     51 DU        100.7100  142.6800  144.7600 H         5 CUB7        0.0000 
     52 DU        101.8400  141.7100  144.6100 H         5 CUB7        0.0000 
     53 DU        101.2100  143.4400  143.5600 H         5 CUB7        0.0000 
     54 DU        100.5700  142.0100  148.0400 H         5 CUB7        0.0000 
     55 DU         99.9300  143.7500  147.0000 H         5 CUB7        0.0000 
     56 DU        101.0700  142.7700  146.8500 H         5 CUB7        0.0000 
     57 DU        100.4300  144.5100  145.8000 H         5 CUB7        0.0000 
     58 DU        101.5600  143.5300  145.6500 H         5 CUB7        0.0000 
     59 DU        102.0600  144.2900  144.4600 H         5 CUB7        0.0000 
@<TRIPOS>BOND
@<TRIPOS>SUBSTRUCTURE
     1 SER1        1 GROUP   
     2 ALA2       11 GROUP   
     3 ASP3       28 GROUP   
     4 GLY6       29 GROUP   
     5 CUB7       45 GROUP   
@<TRIPOS>SET

