#    Name: 6ach_6_NAD_CAVITY_N1_4
#    Modification time : Fri May 22 19:27:35 2020

@<TRIPOS>MOLECULE
6ach_6_NAD_CAVITY_N1_4
    2     0     2     0     0
SMALL
NO_CHARGES


@<TRIPOS>ATOM
      1 OD1       145.9300  133.4700  140.7000 O.co2     1 ASP3        0.0000 
      2 DU        143.1800  134.6600  142.1900 H         2 CUB7        0.0000 
@<TRIPOS>BOND
@<TRIPOS>SUBSTRUCTURE
     1 ASP3        1 GROUP   
     2 CUB7        2 GROUP   
@<TRIPOS>SET

