#    Name: 6ach_4_NAD_CAVITY_N1_4
#    Modification time : Fri May 22 19:27:21 2020

@<TRIPOS>MOLECULE
6ach_4_NAD_CAVITY_N1_4
   49     0     5     0     0
SMALL
NO_CHARGES


@<TRIPOS>ATOM
      1 OG        132.8000   92.1400  144.7100 O.3       1 SER1        0.0000 
      2 OG        134.2900   91.2600  146.6400 O.3       1 SER1        0.0000 
      3 OG        133.6500   92.9900  145.6000 O.3       1 SER1        0.0000 
      4 OG        134.0100   93.0800  147.6900 O.3       1 SER1        0.0000 
      5 OG        135.9900   92.9600  148.4400 O.3       1 SER1        0.0000 
      6 OG        135.3500   94.6900  147.3900 O.3       1 SER1        0.0000 
      7 N         132.5900   89.5600  144.8500 N.am      2 ALA2        0.0000 
      8 O         133.7200   88.5800  144.7000 O.2       2 ALA2        0.0000 
      9 O         134.8500   87.6100  144.5500 O.2       2 ALA2        0.0000 
     10 N         131.9500   91.2900  143.8100 N.am      2 ALA2        0.0000 
     11 N         133.0800   90.3200  143.6600 N.am      2 ALA2        0.0000 
     12 O         134.2100   89.3400  143.5100 O.2       2 ALA2        0.0000 
     13 O         132.4500   92.0500  142.6200 O.2       2 ALA2        0.0000 
     14 N         134.0700   88.6700  146.7900 N.am      2 ALA2        0.0000 
     15 N         134.5700   89.4300  145.6000 N.am      2 ALA2        0.0000 
     16 O         135.7000   88.4600  145.4500 O.2       2 ALA2        0.0000 
     17 O         136.2000   89.2200  144.2500 O.2       2 ALA2        0.0000 
     18 N         136.0600   88.5500  147.5400 N.am      2 ALA2        0.0000 
     19 OD1       133.3600   88.4900  142.6100 O.co2     3 ASP3        0.0000 
     20 OD1       132.7300   90.2300  141.5700 O.co2     3 ASP3        0.0000 
     21 OD1       134.7100   90.1100  142.3100 O.co2     3 ASP3        0.0000 
     22 CA        133.4400   90.4100  145.7500 C.3       4 GLY6        0.0000 
     23 CA        132.1700   93.8800  143.6600 C.3       4 GLY6        0.0000 
     24 CA        133.3000   92.9000  143.5100 C.3       4 GLY6        0.0000 
     25 CA        133.7900   90.5000  147.8400 C.3       4 GLY6        0.0000 
     26 CA        134.9200   89.5200  147.6900 C.3       4 GLY6        0.0000 
     27 CA        132.5200   93.9600  145.7500 C.3       4 GLY6        0.0000 
     28 CA        134.1500   93.7500  144.4100 C.3       4 GLY6        0.0000 
     29 CA        134.6400   91.3500  148.7300 C.3       4 GLY6        0.0000 
     30 CA        134.5000   93.8400  146.5000 C.3       4 GLY6        0.0000 
     31 CA        135.0000   94.6000  145.3000 C.3       4 GLY6        0.0000 
     32 CA        135.4900   92.2000  149.6300 C.3       4 GLY6        0.0000 
     33 CA        136.6300   91.2300  149.4800 C.3       4 GLY6        0.0000 
     34 CA        135.8500   95.4500  146.2000 C.3       4 GLY6        0.0000 
     35 DU        133.5800   91.0800  142.4700 H         5 CUB7        0.0000 
     36 DU        135.2100   90.8700  141.1200 H         5 CUB7        0.0000 
     37 DU        133.9300   91.1700  144.5500 H         5 CUB7        0.0000 
     38 DU        135.0600   90.1900  144.4000 H         5 CUB7        0.0000 
     39 DU        135.5600   90.9600  143.2100 H         5 CUB7        0.0000 
     40 DU        136.0600   91.7200  142.0200 H         5 CUB7        0.0000 
     41 DU        135.4200   90.2800  146.4900 H         5 CUB7        0.0000 
     42 DU        136.5500   89.3100  146.3400 H         5 CUB7        0.0000 
     43 DU        134.7800   92.0200  145.4500 H         5 CUB7        0.0000 
     44 DU        135.9200   91.0500  145.3000 H         5 CUB7        0.0000 
     45 DU        135.2800   92.7800  144.2600 H         5 CUB7        0.0000 
     46 DU        135.1400   92.1100  147.5400 H         5 CUB7        0.0000 
     47 DU        136.2700   91.1400  147.3900 H         5 CUB7        0.0000 
     48 DU        135.6300   92.8700  146.3500 H         5 CUB7        0.0000 
     49 DU        136.1300   93.6300  145.1500 H         5 CUB7        0.0000 
@<TRIPOS>BOND
@<TRIPOS>SUBSTRUCTURE
     1 SER1        1 GROUP   
     2 ALA2        7 GROUP   
     3 ASP3       19 GROUP   
     4 GLY6       22 GROUP   
     5 CUB7       35 GROUP   
@<TRIPOS>SET

