#    Name: 6c6b_3_ADP
#    Modification time : Fri May 22 19:39:49 2020

@<TRIPOS>MOLECULE
6c6b_3_ADP
   27    29     1     0     1
SMALL
NO_CHARGES


@<TRIPOS>ATOM
      1 PB         16.0680   12.9630  -17.1910 P.3       1 ADP300      0.0000 
      2 O1B        15.1070   12.6270  -18.2960 O.co2     1 ADP300      0.0000 
      3 O2B        15.3860   13.2740  -15.8760 O.co2     1 ADP300      0.0000 
      4 O3B        17.1360   13.9380  -17.6210 O.co2     1 ADP300      0.0000 
      5 PA         17.3200   10.5050  -17.9330 P.3       1 ADP300      0.0000 
      6 O1A        17.9950   11.0470  -19.1660 O.co2     1 ADP300      0.0000 
      7 O2A        16.1230    9.5940  -18.0760 O.co2     1 ADP300      0.0000 
      8 O3A        16.9290   11.6470  -16.8550 O.3       1 ADP300      0.0000 
      9 O5'        18.4640    9.7410  -17.1030 O.3       1 ADP300      0.0000 
     10 C5'        18.2200    8.4280  -16.6410 C.3       1 ADP300      0.0000 
     11 C4'        19.5210    7.6500  -16.5570 C.3       1 ADP300      0.0000 
     12 O4'        19.7150    7.1840  -15.2210 O.3       1 ADP300      0.0000 
     13 C3'        19.3950    6.4440  -17.4590 C.3       1 ADP300      0.0000 
     14 O3'        20.6710    6.1850  -18.0660 O.3       1 ADP300      0.0000 
     15 C2'        18.9720    5.3390  -16.5140 C.3       1 ADP300      0.0000 
     16 O2'        19.5180    4.0810  -16.9250 O.3       1 ADP300      0.0000 
     17 C1'        19.5010    5.7700  -15.1490 C.3       1 ADP300      0.0000 
     18 N9         18.5790    5.4000  -14.0270 N.pl3     1 ADP300      0.0000 
     19 C8         18.9940    4.8450  -12.8720 C.2       1 ADP300      0.0000 
     20 N7         17.9680    4.5950  -12.0230 N.2       1 ADP300      0.0000 
     21 C5         16.8430    4.9920  -12.6360 C.ar      1 ADP300      0.0000 
     22 C6         15.4020    5.0110  -12.2820 C.ar      1 ADP300      0.0000 
     23 N6         14.9590    4.5420  -11.0870 N.pl3     1 ADP300      0.0000 
     24 N1         14.5450    5.5100  -13.1980 N.ar      1 ADP300      0.0000 
     25 C2         14.9760    5.9780  -14.3870 C.ar      1 ADP300      0.0000 
     26 N3         16.2670    5.9950  -14.7720 N.ar      1 ADP300      0.0000 
     27 C4         17.2430    5.5190  -13.9580 C.ar      1 ADP300      0.0000 
@<TRIPOS>BOND
     1    1    2 ar   
     2    1    3 ar   
     3    1    4 ar   
     4    1    8 1    
     5    5    6 ar   
     6    5    7 ar   
     7    5    8 1    
     8    5    9 1    
     9    9   10 1    
    10   10   11 1    
    11   11   12 1    
    12   11   13 1    
    13   12   17 1    
    14   13   14 1    
    15   13   15 1    
    16   15   16 1    
    17   15   17 1    
    18   17   18 1    
    19   18   19 1    
    20   18   27 1    
    21   19   20 2    
    22   20   21 1    
    23   21   22 ar   
    24   21   27 ar   
    25   22   23 1    
    26   22   24 ar   
    27   24   25 ar   
    28   25   26 ar   
    29   26   27 ar   
@<TRIPOS>SUBSTRUCTURE
     1 ADP300      1 GROUP   
@<TRIPOS>SET
ATOM$ORANGE STATIC     ATOMS   COLORGROUP SYSTEM 
20 10 10 11 11 13 13 15 15 17 17 19 19 21 21 22 22 25 \
25 27 27 

