#    Name: 6c6b_4_ADP
#    Modification time : Fri May 22 19:39:52 2020

@<TRIPOS>MOLECULE
6c6b_4_ADP
   27    29     1     0     1
SMALL
NO_CHARGES


@<TRIPOS>ATOM
      1 PB        -15.8280  -13.0170  -19.6840 P.3       1 ADP300      0.0000 
      2 O1B       -15.0850  -13.7770  -20.7440 O.co2     1 ADP300      0.0000 
      3 O2B       -15.6450  -13.6010  -18.3040 O.co2     1 ADP300      0.0000 
      4 O3B       -17.2960  -12.7860  -19.9310 O.co2     1 ADP300      0.0000 
      5 PA        -14.2570  -10.8590  -20.8170 P.3       1 ADP300      0.0000 
      6 O1A       -14.9730  -10.8510  -22.1370 O.co2     1 ADP300      0.0000 
      7 O2A       -12.8500  -11.4270  -20.7800 O.co2     1 ADP300      0.0000 
      8 O3A       -15.1190  -11.5600  -19.6240 O.3       1 ADP300      0.0000 
      9 O5'       -14.1890   -9.3300  -20.3230 O.3       1 ADP300      0.0000 
     10 C5'       -13.1550   -8.8810  -19.4450 C.3       1 ADP300      0.0000 
     11 C4'       -12.9360   -7.3680  -19.5190 C.3       1 ADP300      0.0000 
     12 O4'       -12.3880   -6.9090  -18.2770 O.3       1 ADP300      0.0000 
     13 C3'       -11.9140   -7.0140  -20.5870 C.3       1 ADP300      0.0000 
     14 O3'       -12.2500   -5.7620  -21.1870 O.3       1 ADP300      0.0000 
     15 C2'       -10.6370   -6.8030  -19.8150 C.3       1 ADP300      0.0000 
     16 O2'        -9.7890   -5.8990  -20.5310 O.3       1 ADP300      0.0000 
     17 C1'       -11.1340   -6.2540  -18.4870 C.3       1 ADP300      0.0000 
     18 N9        -10.2030   -6.5920  -17.3800 N.pl3     1 ADP300      0.0000 
     19 C8         -9.7000   -5.7490  -16.4500 C.2       1 ADP300      0.0000 
     20 N7         -8.8610   -6.3900  -15.5880 N.2       1 ADP300      0.0000 
     21 C5         -8.8000   -7.6800  -15.9860 C.ar      1 ADP300      0.0000 
     22 C6         -8.1180   -8.9230  -15.5490 C.ar      1 ADP300      0.0000 
     23 N6         -7.2840   -8.9670  -14.4900 N.pl3     1 ADP300      0.0000 
     24 N1         -8.3480  -10.0510  -16.2470 N.ar      1 ADP300      0.0000 
     25 C2         -9.1700  -10.0760  -17.3100 C.ar      1 ADP300      0.0000 
     26 N3         -9.8250   -9.0020  -17.7670 N.ar      1 ADP300      0.0000 
     27 C4         -9.6870   -7.7980  -17.1620 C.ar      1 ADP300      0.0000 
@<TRIPOS>BOND
     1    1    2 ar   
     2    1    3 ar   
     3    1    4 ar   
     4    1    8 1    
     5    5    6 ar   
     6    5    7 ar   
     7    5    8 1    
     8    5    9 1    
     9    9   10 1    
    10   10   11 1    
    11   11   12 1    
    12   11   13 1    
    13   12   17 1    
    14   13   14 1    
    15   13   15 1    
    16   15   16 1    
    17   15   17 1    
    18   17   18 1    
    19   18   19 1    
    20   18   27 1    
    21   19   20 2    
    22   20   21 1    
    23   21   22 ar   
    24   21   27 ar   
    25   22   23 1    
    26   22   24 ar   
    27   24   25 ar   
    28   25   26 ar   
    29   26   27 ar   
@<TRIPOS>SUBSTRUCTURE
     1 ADP300      1 GROUP   
@<TRIPOS>SET
ATOM$ORANGE STATIC     ATOMS   COLORGROUP SYSTEM 
20 10 10 11 11 13 13 15 15 17 17 19 19 21 21 22 22 25 \
25 27 27 

