#    Name: 6c6b_3_ADP_CAVITY_N1_4
#    Modification time : Fri May 22 19:39:50 2020

@<TRIPOS>MOLECULE
6c6b_3_ADP_CAVITY_N1_4
   50     0     6     0     0
SMALL
NO_CHARGES


@<TRIPOS>ATOM
      1 OG         17.9100    5.8300  -17.0400 O.3       1 SER1        0.0000 
      2 OG         19.0000    7.2700  -18.1500 O.3       1 SER1        0.0000 
      3 OG         18.9500    6.8600  -16.7100 O.3       1 SER1        0.0000 
      4 OG         17.8700    7.8700  -16.4700 O.3       1 SER1        0.0000 
      5 N          16.6300    3.1700  -11.6100 N.am      2 ALA2        0.0000 
      6 N          17.6800    4.1900  -11.2800 N.am      2 ALA2        0.0000 
      7 N          18.7000    2.7700  -10.0800 N.am      2 ALA2        0.0000 
      8 N          19.7400    3.7900   -9.7500 N.am      2 ALA2        0.0000 
      9 N          18.9100    8.9000  -16.1300 N.am      2 ALA2        0.0000 
     10 O          17.8300    9.9100  -15.8900 O.2       2 ALA2        0.0000 
     11 OD1        17.7300    4.6000  -12.7200 O.co2     3 ASP3        0.0000 
     12 OD1        18.8900    6.4500  -15.2700 O.co2     3 ASP3        0.0000 
     13 OD1        18.8300    6.0400  -13.8300 O.co2     3 ASP3        0.0000 
     14 OD1        17.7500    7.0500  -13.5800 O.co2     3 ASP3        0.0000 
     15 OD1        19.8000    4.2000  -11.1900 O.co2     3 ASP3        0.0000 
     16 OD1        18.8500    8.4900  -14.6900 O.co2     3 ASP3        0.0000 
     17 OD1        21.9700    4.6300  -12.5400 O.co2     3 ASP3        0.0000 
     18 NZ         17.8800    3.3800  -16.1800 N.4       4 LYS4        0.0000 
     19 CA         16.8100    4.3900  -15.9400 C.3       5 GLY6        0.0000 
     20 CA         17.8300    2.9700  -14.7400 C.3       5 GLY6        0.0000 
     21 CA         16.7500    3.9800  -14.4900 C.3       5 GLY6        0.0000 
     22 CA         15.6700    5.0000  -14.2500 C.3       5 GLY6        0.0000 
     23 CA         17.7700    2.5600  -13.3000 C.3       5 GLY6        0.0000 
     24 CA         16.6900    3.5800  -13.0500 C.3       5 GLY6        0.0000 
     25 CA         15.6100    4.5900  -12.8100 C.3       5 GLY6        0.0000 
     26 CA         18.7900    1.1400  -12.1000 C.3       5 GLY6        0.0000 
     27 CA         17.7100    2.1500  -11.8600 C.3       5 GLY6        0.0000 
     28 CA         17.6500    1.7400  -10.4100 C.3       5 GLY6        0.0000 
     29 CA         18.9300    4.4100  -15.8500 C.3       5 GLY6        0.0000 
     30 CA         17.8500    5.4200  -15.6000 C.3       5 GLY6        0.0000 
     31 CA         16.7700    6.4400  -15.3600 C.3       5 GLY6        0.0000 
     32 CA         17.7900    5.0100  -14.1600 C.3       5 GLY6        0.0000 
     33 CA         16.7100    6.0300  -13.9200 C.3       5 GLY6        0.0000 
     34 CA         16.6600    5.6200  -12.4700 C.3       5 GLY6        0.0000 
     35 CA         19.8300    2.1600  -11.7700 C.3       5 GLY6        0.0000 
     36 CA         18.7500    3.1800  -11.5200 C.3       5 GLY6        0.0000 
     37 CA         19.9700    5.4300  -15.5200 C.3       5 GLY6        0.0000 
     38 CA         17.8100    7.4600  -15.0200 C.3       5 GLY6        0.0000 
     39 CA         19.9100    5.0200  -14.0700 C.3       5 GLY6        0.0000 
     40 CA         19.8500    4.6100  -12.6300 C.3       5 GLY6        0.0000 
     41 CA         20.8700    3.1900  -11.4300 C.3       5 GLY6        0.0000 
     42 CA         20.0500    8.2900  -17.8200 C.3       5 GLY6        0.0000 
     43 CA         18.9700    9.3100  -17.5700 C.3       5 GLY6        0.0000 
     44 CA         17.8900   10.3200  -17.3300 C.3       5 GLY6        0.0000 
     45 CA         19.9900    7.8800  -16.3800 C.3       5 GLY6        0.0000 
     46 CA         19.9300    7.4700  -14.9400 C.3       5 GLY6        0.0000 
     47 CA         20.0100   10.3300  -17.2400 C.3       5 GLY6        0.0000 
     48 DU         19.7700    1.7500  -10.3300 H         6 CUB7        0.0000 
     49 DU         20.0200    5.8400  -16.9600 H         6 CUB7        0.0000 
     50 DU         20.8200    2.7800   -9.9900 H         6 CUB7        0.0000 
@<TRIPOS>BOND
@<TRIPOS>SUBSTRUCTURE
     1 SER1        1 GROUP   
     2 ALA2        5 GROUP   
     3 ASP3       11 GROUP   
     4 LYS4       18 GROUP   
     5 GLY6       19 GROUP   
     6 CUB7       48 GROUP   
@<TRIPOS>SET

