#    Name: 6c6b_1_ADP
#    Modification time : Fri May 22 19:39:45 2020

@<TRIPOS>MOLECULE
6c6b_1_ADP
   27    29     1     0     1
SMALL
NO_CHARGES


@<TRIPOS>ATOM
      1 PB         22.2730  -28.2010  -17.9260 P.3       1 ADP300      0.0000 
      2 O1B        22.6680  -27.2510  -19.0360 O.co2     1 ADP300      0.0000 
      3 O2B        22.7570  -27.7230  -16.5660 O.co2     1 ADP300      0.0000 
      4 O3B        22.6490  -29.6610  -18.1830 O.co2     1 ADP300      0.0000 
      5 PA         19.6070  -27.9270  -18.9250 P.3       1 ADP300      0.0000 
      6 O1A        20.0010  -28.6120  -20.1960 O.co2     1 ADP300      0.0000 
      7 O2A        19.3740  -26.4360  -18.9490 O.co2     1 ADP300      0.0000 
      8 O3A        20.6780  -28.1870  -17.7260 O.3       1 ADP300      0.0000 
      9 O5'        18.3280  -28.6970  -18.3390 O.3       1 ADP300      0.0000 
     10 C5'        17.7450  -28.3170  -17.0930 C.3       1 ADP300      0.0000 
     11 C4'        16.3200  -28.8700  -17.0240 C.3       1 ADP300      0.0000 
     12 O4'        15.7120  -28.5390  -15.7740 O.3       1 ADP300      0.0000 
     13 C3'        15.4670  -28.2490  -18.1170 C.3       1 ADP300      0.0000 
     14 O3'        14.5690  -29.2480  -18.5980 O.3       1 ADP300      0.0000 
     15 C2'        14.6640  -27.1980  -17.3950 C.3       1 ADP300      0.0000 
     16 O2'        13.4150  -26.9930  -18.0670 O.3       1 ADP300      0.0000 
     17 C1'        14.5000  -27.7860  -15.9980 C.3       1 ADP300      0.0000 
     18 N9         14.3350  -26.7210  -14.9740 N.pl3     1 ADP300      0.0000 
     19 C8         13.3700  -26.6730  -14.0300 C.2       1 ADP300      0.0000 
     20 N7         13.4900  -25.5650  -13.2580 N.2       1 ADP300      0.0000 
     21 C5         14.5520  -24.8650  -13.7040 C.ar      1 ADP300      0.0000 
     22 C6         15.2370  -23.6040  -13.3340 C.ar      1 ADP300      0.0000 
     23 N6         14.8030  -22.8230  -12.3080 N.pl3     1 ADP300      0.0000 
     24 N1         16.3160  -23.2390  -14.0690 N.ar      1 ADP300      0.0000 
     25 C2         16.7600  -23.9850  -15.0940 C.ar      1 ADP300      0.0000 
     26 N3         16.2050  -25.1470  -15.4700 N.ar      1 ADP300      0.0000 
     27 C4         15.1020  -25.6280  -14.8400 C.ar      1 ADP300      0.0000 
@<TRIPOS>BOND
     1    1    2 ar   
     2    1    3 ar   
     3    1    4 ar   
     4    1    8 1    
     5    5    6 ar   
     6    5    7 ar   
     7    5    8 1    
     8    5    9 1    
     9    9   10 1    
    10   10   11 1    
    11   11   12 1    
    12   11   13 1    
    13   12   17 1    
    14   13   14 1    
    15   13   15 1    
    16   15   16 1    
    17   15   17 1    
    18   17   18 1    
    19   18   19 1    
    20   18   27 1    
    21   19   20 2    
    22   20   21 1    
    23   21   22 ar   
    24   21   27 ar   
    25   22   23 1    
    26   22   24 ar   
    27   24   25 ar   
    28   25   26 ar   
    29   26   27 ar   
@<TRIPOS>SUBSTRUCTURE
     1 ADP300      1 GROUP   
@<TRIPOS>SET
ATOM$ORANGE STATIC     ATOMS   COLORGROUP SYSTEM 
20 10 10 11 11 13 13 15 15 17 17 19 19 21 21 22 22 25 \
25 27 27 

