#    Name: 6hxm_1_COA
#    Modification time : Fri May 22 19:33:11 2020

@<TRIPOS>MOLECULE
6hxm_1_COA
   80    82     1     0     1
SMALL
NO_CHARGES


@<TRIPOS>ATOM
      1 N1A        69.8560   18.7040   14.1380 N.ar      1 COA1200     0.0000 
      2 C2A        70.1070   17.7620   13.2210 C.ar      1 COA1200     0.0000 
      3 N3A        70.6620   16.5580   13.3910 N.ar      1 COA1200     0.0000 
      4 C4A        70.9750   16.3430   14.6820 C.ar      1 COA1200     0.0000 
      5 C5A        70.7390   17.2030   15.7410 C.ar      1 COA1200     0.0000 
      6 C6A        70.1420   18.4410   15.4360 C.ar      1 COA1200     0.0000 
      7 N6A        69.8090   19.3460   16.3570 N.pl3     1 COA1200     0.0000 
      8 N7A        71.2460   16.6810   16.9220 N.2       1 COA1200     0.0000 
      9 C8A        71.7760   15.5410   16.5550 C.2       1 COA1200     0.0000 
     10 N9A        71.6580   15.2770   15.2140 N.pl3     1 COA1200     0.0000 
     11 C1B        72.2160   14.1370   14.5080 C.3       1 COA1200     0.0000 
     12 C2B        73.7380   14.1470   14.4410 C.3       1 COA1200     0.0000 
     13 O2B        74.2160   14.9130   13.3420 O.3       1 COA1200     0.0000 
     14 C3B        74.0000   12.6520   14.2850 C.3       1 COA1200     0.0000 
     15 O3B        73.6110   12.2580   12.9500 O.3       1 COA1200     0.0000 
     16 P3B        74.5100   11.3730   11.9200 P.3       1 COA1200     0.0000 
     17 O7A        74.0650    9.9770   12.0490 O.co2     1 COA1200     0.0000 
     18 O8A        74.2460   11.9700   10.5360 O.co2     1 COA1200     0.0000 
     19 O9A        75.9920   11.6170   12.2730 O.co2     1 COA1200     0.0000 
     20 C4B        72.9520   12.0220   15.1960 C.3       1 COA1200     0.0000 
     21 O4B        71.8670   12.9780   15.2430 O.3       1 COA1200     0.0000 
     22 C5B        73.4370   11.7110   16.5890 C.3       1 COA1200     0.0000 
     23 O5B        74.1090   12.8820   17.1010 O.3       1 COA1200     0.0000 
     24 P1A        74.6250   12.9190   18.6240 P.3       1 COA1200     0.0000 
     25 O1A        75.4870   14.0880   18.8950 O.co2     1 COA1200     0.0000 
     26 O2A        75.1440   11.5680   19.0170 O.co2     1 COA1200     0.0000 
     27 O3A        73.1890   13.0940   19.2850 O.3       1 COA1200     0.0000 
     28 P2A        72.8560   13.4850   20.7840 P.3       1 COA1200     0.0000 
     29 O4A        73.9440   13.0760   21.7080 O.co2     1 COA1200     0.0000 
     30 O5A        71.5130   12.9340   21.1590 O.co2     1 COA1200     0.0000 
     31 O6A        72.8210   15.0520   20.6540 O.3       1 COA1200     0.0000 
     32 CBP        72.4520   17.2850   21.4410 C.3       1 COA1200     0.0000 
     33 CCP        72.1420   15.8090   21.6410 C.3       1 COA1200     0.0000 
     34 CDP        71.5590   18.0720   22.4040 C.3       1 COA1200     0.0000 
     35 CEP        73.9330   17.4880   21.7880 C.3       1 COA1200     0.0000 
     36 CAP        72.1990   17.6950   19.9660 C.3       1 COA1200     0.0000 
     37 OAP        70.9190   17.2160   19.5810 O.3       1 COA1200     0.0000 
     38 C9P        72.2790   19.1950   19.7470 C.2       1 COA1200     0.0000 
     39 O9P        73.3710   19.7680   19.7240 O.2       1 COA1200     0.0000 
     40 N8P        71.1220   19.8360   19.5870 N.am      1 COA1200     0.0000 
     41 C7P        71.0610   21.2490   19.2530 C.3       1 COA1200     0.0000 
     42 C6P        71.3330   22.1330   20.4610 C.3       1 COA1200     0.0000 
     43 C5P        70.1680   22.1550   21.4190 C.2       1 COA1200     0.0000 
     44 O5P        69.0180   22.3870   21.0230 O.2       1 COA1200     0.0000 
     45 N4P        70.4680   21.9470   22.7060 N.am      1 COA1200     0.0000 
     46 C3P        69.4760   21.9050   23.7680 C.3       1 COA1200     0.0000 
     47 C2P        69.2750   20.4890   24.2840 C.3       1 COA1200     0.0000 
     48 S1P        70.5600   19.9520   25.4570 S.3       1 COA1200     0.0000 
     49 H2A        69.7840   17.9960   12.2090 H         1 COA1200     0.0000 
     50 H61A       69.3920   20.2360   16.1100 H         1 COA1200     0.0000 
     51 H62A       69.9350   19.1360   17.3410 H         1 COA1200     0.0000 
     52 H8A        72.2510   14.8520   17.2520 H         1 COA1200     0.0000 
     53 H1B        71.7380   14.0730   13.5320 H         1 COA1200     0.0000 
     54 H2B        74.2050   14.5510   15.3380 H         1 COA1200     0.0000 
     55 HO2A       74.3160   15.8510   13.6520 H         1 COA1200     0.0000 
     56 H3B        75.0190   12.3490   14.5180 H         1 COA1200     0.0000 
     57 H4B        72.4930   11.1410   14.7480 H         1 COA1200     0.0000 
     58 H51A       72.6080   11.5240   17.2690 H         1 COA1200     0.0000 
     59 H52A       74.0660   10.8230   16.6200 H         1 COA1200     0.0000 
     60 H121       71.0810   15.5810   21.5540 H         1 COA1200     0.0000 
     61 H122       72.4720   15.4510   22.6150 H         1 COA1200     0.0000 
     62 H131       70.5090   18.0170   22.1210 H         1 COA1200     0.0000 
     63 H132       71.8200   19.1260   22.5000 H         1 COA1200     0.0000 
     64 H133       71.6310   17.6550   23.4070 H         1 COA1200     0.0000 
     65 H141       74.6000   17.0240   21.0630 H         1 COA1200     0.0000 
     66 H142       74.1870   17.0360   22.7450 H         1 COA1200     0.0000 
     67 H143       74.2040   18.5400   21.8580 H         1 COA1200     0.0000 
     68 H10        72.8620   17.1620   19.2860 H         1 COA1200     0.0000 
     69 HO1        70.8430   17.2980   18.5950 H         1 COA1200     0.0000 
     70 HN8        70.2420   19.3470   19.7160 H         1 COA1200     0.0000 
     71 H71        71.7890   21.4620   18.4710 H         1 COA1200     0.0000 
     72 H72        70.0910   21.4710   18.8110 H         1 COA1200     0.0000 
     73 H61        72.2350   21.8040   20.9740 H         1 COA1200     0.0000 
     74 H62        71.5700   23.1450   20.1390 H         1 COA1200     0.0000 
     75 HN4        71.4270   21.7710   22.9840 H         1 COA1200     0.0000 
     76 H31        68.5250   22.3200   23.4370 H         1 COA1200     0.0000 
     77 H32        69.7940   22.5690   24.5700 H         1 COA1200     0.0000 
     78 H21        68.2970   20.3650   24.7440 H         1 COA1200     0.0000 
     79 H22        69.2760   19.7760   23.4610 H         1 COA1200     0.0000 
     80 HS1        70.6490   21.0670   26.1900 H         1 COA1200     0.0000 
@<TRIPOS>BOND
     1    1    2 ar   
     2    1    6 ar   
     3    2    3 ar   
     4    2   49 1    
     5    3    4 ar   
     6    4    5 ar   
     7    4   10 1    
     8    5    6 ar   
     9    5    8 1    
    10    6    7 1    
    11    7   50 1    
    12    7   51 1    
    13    8    9 2    
    14    9   10 1    
    15    9   52 1    
    16   10   11 1    
    17   11   12 1    
    18   11   21 1    
    19   11   53 1    
    20   12   13 1    
    21   12   14 1    
    22   12   54 1    
    23   13   55 1    
    24   14   15 1    
    25   14   20 1    
    26   14   56 1    
    27   15   16 1    
    28   16   17 ar   
    29   16   18 ar   
    30   16   19 ar   
    31   20   21 1    
    32   20   22 1    
    33   20   57 1    
    34   22   23 1    
    35   22   58 1    
    36   22   59 1    
    37   23   24 1    
    38   24   25 ar   
    39   24   26 ar   
    40   24   27 1    
    41   27   28 1    
    42   28   29 ar   
    43   28   30 ar   
    44   28   31 1    
    45   31   33 1    
    46   32   33 1    
    47   32   34 1    
    48   32   35 1    
    49   32   36 1    
    50   33   60 1    
    51   33   61 1    
    52   34   62 1    
    53   34   63 1    
    54   34   64 1    
    55   35   66 1    
    56   35   65 1    
    57   35   67 1    
    58   36   37 1    
    59   36   38 1    
    60   36   68 1    
    61   37   69 1    
    62   38   39 2    
    63   38   40 am   
    64   40   41 1    
    65   40   70 1    
    66   41   42 1    
    67   41   71 1    
    68   41   72 1    
    69   42   43 1    
    70   42   73 1    
    71   42   74 1    
    72   43   44 2    
    73   43   45 am   
    74   45   46 1    
    75   45   75 1    
    76   46   47 1    
    77   46   76 1    
    78   46   77 1    
    79   47   48 1    
    80   47   78 1    
    81   47   79 1    
    82   48   80 1    
@<TRIPOS>SUBSTRUCTURE
     1 COA1200     1 GROUP   
@<TRIPOS>SET
ATOM$ORANGE STATIC     ATOMS   COLORGROUP SYSTEM 
42 2 2 4 4 5 5 6 6 9 9 11 11 12 12 14 14 20 \
20 22 22 32 32 33 33 34 34 35 35 36 36 38 38 41 41 42 \
42 43 43 46 46 47 47 

