#    Name: 5yfu_3_AMP
#    Modification time : Fri May 22 19:13:02 2020

@<TRIPOS>MOLECULE
5yfu_3_AMP
   23    25     1     0     1
SMALL
NO_CHARGES


@<TRIPOS>ATOM
      1 P          57.4590   86.7860  287.0900 P.3       1 AMP403      0.0000 
      2 O1P        57.7070   87.7900  285.9900 O.co2     1 AMP403      0.0000 
      3 O2P        56.8990   87.3760  288.3780 O.co2     1 AMP403      0.0000 
      4 O3P        56.9440   85.4940  286.4780 O.co2     1 AMP403      0.0000 
      5 O5'        58.8680   86.2650  287.6150 O.3       1 AMP403      0.0000 
      6 C5'        59.8720   85.9540  286.6620 C.3       1 AMP403      0.0000 
      7 C4'        61.1970   85.7150  287.3510 C.3       1 AMP403      0.0000 
      8 O4'        62.1680   85.4010  286.3560 O.3       1 AMP403      0.0000 
      9 C3'        61.6890   86.9780  288.0280 C.3       1 AMP403      0.0000 
     10 O3'        62.5240   86.5520  289.1080 O.3       1 AMP403      0.0000 
     11 C2'        62.4340   87.7150  286.9240 C.3       1 AMP403      0.0000 
     12 O2'        63.5840   88.4360  287.3570 O.3       1 AMP403      0.0000 
     13 C1'        62.8900   86.5950  286.0320 C.3       1 AMP403      0.0000 
     14 N9         62.7390   86.7190  284.5670 N.pl3     1 AMP403      0.0000 
     15 C8         61.6280   86.7350  283.7880 C.2       1 AMP403      0.0000 
     16 N7         61.9460   86.7870  282.4930 N.2       1 AMP403      0.0000 
     17 C5         63.2740   86.7480  282.4090 C.ar      1 AMP403      0.0000 
     18 C6         64.2930   86.7540  281.3350 C.ar      1 AMP403      0.0000 
     19 N6         63.9480   86.7870  280.0580 N.pl3     1 AMP403      0.0000 
     20 N1         65.5860   86.7050  281.6730 N.ar      1 AMP403      0.0000 
     21 C2         65.9650   86.6630  282.9620 C.ar      1 AMP403      0.0000 
     22 N3         65.1130   86.6610  284.0060 N.ar      1 AMP403      0.0000 
     23 C4         63.7900   86.6840  283.7800 C.ar      1 AMP403      0.0000 
@<TRIPOS>BOND
     1    1    2 ar   
     2    1    3 ar   
     3    1    4 ar   
     4    1    5 1    
     5    5    6 1    
     6    6    7 1    
     7    7    8 1    
     8    7    9 1    
     9    8   13 1    
    10    9   10 1    
    11    9   11 1    
    12   11   12 1    
    13   11   13 1    
    14   13   14 1    
    15   14   15 1    
    16   14   23 1    
    17   15   16 2    
    18   16   17 1    
    19   17   18 ar   
    20   17   23 ar   
    21   18   19 1    
    22   18   20 ar   
    23   20   21 ar   
    24   21   22 ar   
    25   22   23 ar   
@<TRIPOS>SUBSTRUCTURE
     1 AMP403      1 GROUP   
@<TRIPOS>SET
ATOM$ORANGE STATIC     ATOMS   COLORGROUP SYSTEM 
20 6 6 7 7 9 9 11 11 13 13 15 15 17 17 18 18 21 \
21 23 23 

