#    Name: 6smr_5_PLS_CAVITY_N1_6
#    Modification time : Fri May 22 19:27:49 2020

@<TRIPOS>MOLECULE
6smr_5_PLS_CAVITY_N1_6
   63     0     7     0     0
SMALL
NO_CHARGES


@<TRIPOS>ATOM
      1 OG         11.7000   54.5000   69.9100 O.3       1 SER1        0.0000 
      2 OG         11.9100   53.0300   71.4200 O.3       1 SER1        0.0000 
      3 OG         19.1400   55.7300   68.6100 O.3       1 SER1        0.0000 
      4 OG         13.5500   51.8100   74.4700 O.3       1 SER1        0.0000 
      5 OG         21.5100   56.6400   69.1700 O.3       1 SER1        0.0000 
      6 OG         20.3700   57.4600   68.6300 O.3       1 SER1        0.0000 
      7 OG         19.2300   58.2800   68.1000 O.3       1 SER1        0.0000 
      8 OG         20.5800   55.9800   70.1500 O.3       1 SER1        0.0000 
      9 OG         18.3000   57.6200   69.0800 O.3       1 SER1        0.0000 
     10 OG         18.5100   56.1500   70.5900 O.3       1 SER1        0.0000 
     11 OG         17.3700   56.9700   70.0500 O.3       1 SER1        0.0000 
     12 OG         15.3000   57.1300   70.5000 O.3       1 SER1        0.0000 
     13 OG         16.6400   54.8400   72.5400 O.3       1 SER1        0.0000 
     14 OG         15.5100   55.6600   72.0100 O.3       1 SER1        0.0000 
     15 OG         15.7100   54.1900   73.5200 O.3       1 SER1        0.0000 
     16 OG         14.5800   55.0100   72.9900 O.3       1 SER1        0.0000 
     17 OG         14.7800   53.5300   74.5000 O.3       1 SER1        0.0000 
     18 OG         13.6500   54.3500   73.9600 O.3       1 SER1        0.0000 
     19 OG         13.8500   52.8800   75.4700 O.3       1 SER1        0.0000 
     20 OG         16.7400   57.3900   72.0400 O.3       1 SER1        0.0000 
     21 OG         15.8100   56.7300   73.0100 O.3       1 SER1        0.0000 
     22 N          17.7000   55.4800   67.0700 N.am      2 ALA2        0.0000 
     23 O          21.3000   58.1100   67.6600 O.2       2 ALA2        0.0000 
     24 O          20.1600   58.9300   67.1200 O.2       2 ALA2        0.0000 
     25 OD1        17.7900   58.0200   66.5600 O.co2     3 ASP3        0.0000 
     26 OD1        12.2100   54.1000   72.4200 O.co2     3 ASP3        0.0000 
     27 NZ         10.7700   53.8500   70.8800 N.4       4 LYS4        0.0000 
     28 NZ         20.4800   53.4400   70.6500 N.4       4 LYS4        0.0000 
     29 NZ         19.3400   54.2600   70.1200 N.4       4 LYS4        0.0000 
     30 NZ         21.7100   55.1600   70.6800 N.4       4 LYS4        0.0000 
     31 NZ         17.5800   55.4900   71.5700 N.4       4 LYS4        0.0000 
     32 NZ         17.8800   56.5700   72.5700 N.4       4 LYS4        0.0000 
     33 CZ         22.2500   52.2000   69.2100 C.ar      5 PHE5        0.0000 
     34 CZ         12.8400   53.6800   70.4400 C.ar      5 PHE5        0.0000 
     35 CZ         22.3400   54.7500   68.7000 C.ar      5 PHE5        0.0000 
     36 CZ         21.4100   54.0900   69.6800 C.ar      5 PHE5        0.0000 
     37 CZ         18.2100   55.0800   69.5800 C.ar      5 PHE5        0.0000 
     38 CZ         17.0700   55.9000   69.0500 C.ar      5 PHE5        0.0000 
     39 CZ         14.0700   55.4100   70.4700 C.ar      5 PHE5        0.0000 
     40 CZ         13.1400   54.7500   71.4500 C.ar      5 PHE5        0.0000 
     41 CZ         14.4800   52.4600   73.4900 C.ar      5 PHE5        0.0000 
     42 CZ         13.3400   53.2800   72.9600 C.ar      5 PHE5        0.0000 
     43 CZ         22.6400   55.8200   69.7000 C.ar      5 PHE5        0.0000 
     44 CZ         16.4400   56.3100   71.0300 C.ar      5 PHE5        0.0000 
     45 CZ         16.9500   55.9100   73.5500 C.ar      5 PHE5        0.0000 
     46 CA         20.8100   51.9500   67.6700 C.3       6 GLY6        0.0000 
     47 CA         20.9000   54.4900   67.1600 C.3       6 GLY6        0.0000 
     48 CA         19.7700   55.3100   66.6200 C.3       6 GLY6        0.0000 
     49 CA         18.6300   56.1300   66.0900 C.3       6 GLY6        0.0000 
     50 CA         21.1100   53.0200   68.6700 C.3       6 GLY6        0.0000 
     51 CA         21.3200   51.5500   70.1800 C.3       6 GLY6        0.0000 
     52 CA         20.1800   52.3600   69.6500 C.3       6 GLY6        0.0000 
     53 CA         18.0000   56.5500   68.0700 C.3       6 GLY6        0.0000 
     54 CA         12.0000   55.5700   70.9100 C.3       6 GLY6        0.0000 
     55 CA         11.0700   54.9200   71.8900 C.3       6 GLY6        0.0000 
     56 CA         12.4100   52.6200   73.9400 C.3       6 GLY6        0.0000 
     57 CA         14.3700   56.4800   71.4700 C.3       6 GLY6        0.0000 
     58 CA         13.4400   55.8300   72.4500 C.3       6 GLY6        0.0000 
     59 CA         12.7100   53.7000   74.9400 C.3       6 GLY6        0.0000 
     60 DU         21.2100   55.5700   68.1600 H         7 CUB7        0.0000 
     61 DU         20.0700   56.3900   67.6300 H         7 CUB7        0.0000 
     62 DU         18.9300   57.2000   67.0900 H         7 CUB7        0.0000 
     63 DU         20.2700   54.9100   69.1400 H         7 CUB7        0.0000 
@<TRIPOS>BOND
@<TRIPOS>SUBSTRUCTURE
     1 SER1        1 GROUP   
     2 ALA2       22 GROUP   
     3 ASP3       25 GROUP   
     4 LYS4       27 GROUP   
     5 PHE5       33 GROUP   
     6 GLY6       46 GROUP   
     7 CUB7       60 GROUP   
@<TRIPOS>SET

