#    Name: 6smr_4_PLS_CAVITY_N1_6
#    Modification time : Fri May 22 19:27:40 2020

@<TRIPOS>MOLECULE
6smr_4_PLS_CAVITY_N1_6
   41     0     7     0     0
SMALL
NO_CHARGES


@<TRIPOS>ATOM
      1 OG          8.5800   20.7600   37.4300 O.3       1 SER1        0.0000 
      2 OG          7.4400   21.5800   36.9000 O.3       1 SER1        0.0000 
      3 OG          6.3100   22.4000   36.3700 O.3       1 SER1        0.0000 
      4 OG          7.6500   20.1000   38.4100 O.3       1 SER1        0.0000 
      5 OG          4.2400   22.5600   36.8100 O.3       1 SER1        0.0000 
      6 OG          6.8100   22.0000   38.8800 O.3       1 SER1        0.0000 
      7 OG          5.6800   22.8100   38.3500 O.3       1 SER1        0.0000 
      8 OG          4.5400   23.6300   37.8100 O.3       1 SER1        0.0000 
      9 OG          4.7500   22.1600   39.3200 O.3       1 SER1        0.0000 
     10 O           5.1700   23.2200   35.8300 O.2       2 ALA2        0.0000 
     11 N           5.4700   24.2900   36.8400 N.am      2 ALA2        0.0000 
     12 N           5.7700   25.3600   37.8400 N.am      2 ALA2        0.0000 
     13 N           7.2100   25.6100   39.3800 N.am      2 ALA2        0.0000 
     14 O           7.4200   24.1400   40.8900 O.2       2 ALA2        0.0000 
     15 OD1         7.5400   24.1200   36.3900 O.co2     3 ASP3        0.0000 
     16 OD1         7.7400   22.6500   37.9000 O.co2     3 ASP3        0.0000 
     17 OD1         6.6100   23.4700   37.3700 O.co2     3 ASP3        0.0000 
     18 NZ          5.8800   21.3400   39.8600 N.4       4 LYS4        0.0000 
     19 NZ          4.9500   20.6900   40.8400 N.4       4 LYS4        0.0000 
     20 NZ          6.1800   22.4100   40.8600 N.4       4 LYS4        0.0000 
     21 NZ          5.2500   21.7600   41.8400 N.4       4 LYS4        0.0000 
     22 CZ          3.3100   21.9100   37.7900 C.ar      5 PHE5        0.0000 
     23 CZ          2.3800   21.2500   38.7600 C.ar      5 PHE5        0.0000 
     24 CZ          8.8800   21.8300   38.4400 C.ar      5 PHE5        0.0000 
     25 CZ          7.9500   21.1800   39.4200 C.ar      5 PHE5        0.0000 
     26 CZ          3.8100   21.5100   40.3000 C.ar      5 PHE5        0.0000 
     27 CZ          2.6800   22.3300   39.7700 C.ar      5 PHE5        0.0000 
     28 CZ          8.0500   23.7200   38.9100 C.ar      5 PHE5        0.0000 
     29 CZ          7.1100   23.0700   39.8900 C.ar      5 PHE5        0.0000 
     30 CZ          4.1200   22.5800   41.3100 C.ar      5 PHE5        0.0000 
     31 CA          7.8400   25.2000   37.4000 C.3       6 GLY6        0.0000 
     32 CA          6.2800   24.9600   40.3600 C.3       6 GLY6        0.0000 
     33 CA          6.4800   23.4900   41.8700 C.3       6 GLY6        0.0000 
     34 CA          5.3500   24.3100   41.3300 C.3       6 GLY6        0.0000 
     35 CA          4.4200   23.6500   42.3100 C.3       6 GLY6        0.0000 
     36 DU          3.6100   22.9800   38.7900 H         7 CUB7        0.0000 
     37 DU          6.9100   24.5400   38.3800 H         7 CUB7        0.0000 
     38 DU          5.9800   23.8900   39.3500 H         7 CUB7        0.0000 
     39 DU          4.8400   24.7100   38.8200 H         7 CUB7        0.0000 
     40 DU          5.0500   23.2300   40.3300 H         7 CUB7        0.0000 
     41 DU          3.9100   24.0500   39.7900 H         7 CUB7        0.0000 
@<TRIPOS>BOND
@<TRIPOS>SUBSTRUCTURE
     1 SER1        1 GROUP   
     2 ALA2       10 GROUP   
     3 ASP3       15 GROUP   
     4 LYS4       18 GROUP   
     5 PHE5       22 GROUP   
     6 GLY6       31 GROUP   
     7 CUB7       36 GROUP   
@<TRIPOS>SET

