#    Name: 6smr_2_MTX
#    Modification time : Fri May 22 19:27:24 2020

@<TRIPOS>MOLECULE
6smr_2_MTX
   33    35     1     0     0
SMALL
NO_CHARGES


@<TRIPOS>ATOM
      1 N1         -0.8340   22.8710   40.0860 N.ar      1 MTX503      0.0000 
      2 C2         -2.0420   22.2530   40.1670 C.ar      1 MTX503      0.0000 
      3 NA2        -2.6910   21.7090   38.9590 N.pl3     1 MTX503      0.0000 
      4 N3         -2.6740   22.1250   41.3820 N.ar      1 MTX503      0.0000 
      5 C4         -2.1020   22.6110   42.4950 C.ar      1 MTX503      0.0000 
      6 NA4        -2.8080   22.4550   43.8120 N.pl3     1 MTX503      0.0000 
      7 C4A        -0.8740   23.2350   42.4230 C.ar      1 MTX503      0.0000 
      8 N5         -0.2910   23.7220   43.5280 N.ar      1 MTX503      0.0000 
      9 C6          0.9030   24.3340   43.4650 C.ar      1 MTX503      0.0000 
     10 C7          1.5350   24.4590   42.2380 C.ar      1 MTX503      0.0000 
     11 N8          0.9590   23.9760   41.1410 N.ar      1 MTX503      0.0000 
     12 C8A        -0.2440   23.3610   41.2100 C.ar      1 MTX503      0.0000 
     13 C9          1.6510   24.9220   44.7420 C.3       1 MTX503      0.0000 
     14 N10         0.7410   24.9840   45.8610 N.pl3     1 MTX503      0.0000 
     15 CM          0.4860   23.8630   46.6200 C.3       1 MTX503      0.0000 
     16 C11        -1.7990   28.3950   46.1430 C.ar      1 MTX503      0.0000 
     17 C12        -0.8610   28.2960   45.1280 C.ar      1 MTX503      0.0000 
     18 C13        -0.0370   27.1870   45.0560 C.ar      1 MTX503      0.0000 
     19 C14        -0.1630   26.1730   45.9920 C.ar      1 MTX503      0.0000 
     20 C15        -1.1080   26.2470   46.9930 C.ar      1 MTX503      0.0000 
     21 C16        -1.9450   27.3760   47.0660 C.ar      1 MTX503      0.0000 
     22 C          -2.7380   29.6260   46.1670 C.2       1 MTX503      0.0000 
     23 O          -2.3810   30.6430   45.7210 O.2       1 MTX503      0.0000 
     24 N          -4.0680   29.4110   46.7830 N.am      1 MTX503      0.0000 
     25 CA         -5.0330   30.4910   46.7650 C.3       1 MTX503      0.0000 
     26 CT         -5.0820   31.1620   45.3550 C.2       1 MTX503      0.0000 
     27 O1         -4.9090   32.4070   45.2170 O.co2     1 MTX503      0.0000 
     28 O2         -5.3060   30.4440   44.3420 O.co2     1 MTX503      0.0000 
     29 CB         -5.3940   31.4500   47.8940 C.3       1 MTX503      0.0000 
     30 CG         -6.1100   30.6550   49.0150 C.3       1 MTX503      0.0000 
     31 CD         -5.0350   29.7720   49.8270 C.2       1 MTX503      0.0000 
     32 OE1        -4.6800   28.6360   49.3910 O.co2     1 MTX503      0.0000 
     33 OE2        -4.5270   30.2160   50.9310 O.co2     1 MTX503      0.0000 
@<TRIPOS>BOND
     1    1    2 ar   
     2    1   12 ar   
     3    2    3 1    
     4    2    4 ar   
     5    4    5 ar   
     6    5    6 1    
     7    5    7 ar   
     8    7    8 ar   
     9    7   12 ar   
    10    8    9 ar   
    11    9   10 ar   
    12    9   13 1    
    13   10   11 ar   
    14   11   12 ar   
    15   13   14 1    
    16   14   15 1    
    17   14   19 1    
    18   16   17 ar   
    19   16   21 ar   
    20   16   22 1    
    21   17   18 ar   
    22   18   19 ar   
    23   19   20 ar   
    24   20   21 ar   
    25   22   23 2    
    26   22   24 am   
    27   24   25 1    
    28   25   26 1    
    29   25   29 1    
    30   26   27 ar   
    31   26   28 ar   
    32   29   30 1    
    33   30   31 1    
    34   31   32 ar   
    35   31   33 ar   
@<TRIPOS>SUBSTRUCTURE
     1 MTX503      1 GROUP   
@<TRIPOS>SET

