#    Name: 6smr_4_PLS
#    Modification time : Fri May 22 19:27:39 2020

@<TRIPOS>MOLECULE
6smr_4_PLS
   22    22     1     0     0
SMALL
NO_CHARGES


@<TRIPOS>ATOM
      1 N          10.5210   19.5560   38.5790 N.4       1 PLS502      0.0000 
      2 CA          9.3750   18.9170   37.9650 C.3       1 PLS502      0.0000 
      3 CB          8.2760   18.7150   38.9950 C.3       1 PLS502      0.0000 
      4 OG          7.9090   19.9650   39.5090 O.3       1 PLS502      0.0000 
      5 C           8.8370   19.7490   36.7850 C.2       1 PLS502      0.0000 
      6 O           7.8770   19.3040   36.0990 O.co2     1 PLS502      0.0000 
      7 OXT         9.3350   20.8700   36.4870 O.co2     1 PLS502      0.0000 
      8 N1         14.5990   20.9920   41.1340 N.ar      1 PLS502      0.0000 
      9 C2         14.0290   21.4510   40.0080 C.ar      1 PLS502      0.0000 
     10 C2A        14.5740   22.6710   39.2790 C.3       1 PLS502      0.0000 
     11 C3         12.9340   20.8000   39.4900 C.ar      1 PLS502      0.0000 
     12 O3         12.4210   21.3310   38.3090 O.3       1 PLS502      0.0000 
     13 C4         12.4030   19.7000   40.1040 C.ar      1 PLS502      0.0000 
     14 C4A        11.1820   18.9960   39.4910 C.3       1 PLS502      0.0000 
     15 C5         12.9860   19.2400   41.2490 C.ar      1 PLS502      0.0000 
     16 C6         14.0840   19.9040   41.7680 C.ar      1 PLS502      0.0000 
     17 C5A        12.4450   18.0400   42.0310 C.3       1 PLS502      0.0000 
     18 O4P        12.8020   16.8280   41.4600 O.3       1 PLS502      0.0000 
     19 P          12.0970   15.5020   42.1160 P.3       1 PLS502      0.0000 
     20 O1P        10.7260   15.2800   41.5130 O.co2     1 PLS502      0.0000 
     21 O2P        11.9290   15.7280   43.6010 O.co2     1 PLS502      0.0000 
     22 O3P        12.9570   14.2900   41.8390 O.co2     1 PLS502      0.0000 
@<TRIPOS>BOND
     1    1    2 1    
     2    1   14 1    
     3    2    3 1    
     4    2    5 1    
     5    3    4 1    
     6    5    6 ar   
     7    5    7 ar   
     8    8    9 ar   
     9    8   16 ar   
    10    9   10 1    
    11    9   11 ar   
    12   11   12 1    
    13   11   13 ar   
    14   13   14 1    
    15   13   15 ar   
    16   15   16 ar   
    17   15   17 1    
    18   17   18 1    
    19   18   19 1    
    20   19   20 ar   
    21   19   21 ar   
    22   19   22 ar   
@<TRIPOS>SUBSTRUCTURE
     1 PLS502      1 GROUP   
@<TRIPOS>SET

