#    Name: 6smr_7_MTX
#    Modification time : Fri May 22 19:28:06 2020

@<TRIPOS>MOLECULE
6smr_7_MTX
   33    35     1     0     0
SMALL
NO_CHARGES


@<TRIPOS>ATOM
      1 N1         -2.4140   33.2990   90.9180 N.ar      1 MTX703      0.0000 
      2 C2         -3.5010   33.7450   90.2340 C.ar      1 MTX703      0.0000 
      3 NA2        -4.4990   34.5980   90.9020 N.pl3     1 MTX703      0.0000 
      4 N3         -3.6710   33.4060   88.9100 N.ar      1 MTX703      0.0000 
      5 C4         -2.7670   32.6300   88.2950 C.ar      1 MTX703      0.0000 
      6 NA4        -2.9740   32.2630   86.8560 N.pl3     1 MTX703      0.0000 
      7 C4A        -1.6640   32.1760   88.9860 C.ar      1 MTX703      0.0000 
      8 N5         -0.7610   31.3970   88.3800 N.ar      1 MTX703      0.0000 
      9 C6          0.3150   30.9470   89.0430 C.ar      1 MTX703      0.0000 
     10 C7          0.4870   31.2950   90.3750 C.ar      1 MTX703      0.0000 
     11 N8         -0.4150   32.0670   90.9820 N.ar      1 MTX703      0.0000 
     12 C8A        -1.4940   32.5140   90.3050 C.ar      1 MTX703      0.0000 
     13 C9          1.4050   30.0190   88.3390 C.3       1 MTX703      0.0000 
     14 N10         1.1450   30.0290   86.9180 N.pl3     1 MTX703      0.0000 
     15 CM          1.5780   31.1400   86.2210 C.3       1 MTX703      0.0000 
     16 C11        -1.8130   27.4620   84.9880 C.ar      1 MTX703      0.0000 
     17 C12        -1.1490   26.9830   86.1220 C.ar      1 MTX703      0.0000 
     18 C13        -0.1930   27.8090   86.7630 C.ar      1 MTX703      0.0000 
     19 C14         0.1360   29.0890   86.2700 C.ar      1 MTX703      0.0000 
     20 C15        -0.5050   29.5350   85.1390 C.ar      1 MTX703      0.0000 
     21 C16        -1.4560   28.7140   84.5100 C.ar      1 MTX703      0.0000 
     22 C          -2.8750   26.7450   84.0820 C.2       1 MTX703      0.0000 
     23 O          -2.8510   27.1390   82.9910 O.2       1 MTX703      0.0000 
     24 N          -3.8410   25.6260   84.1850 N.am      1 MTX703      0.0000 
     25 CA         -4.3480   24.7900   85.2590 C.3       1 MTX703      0.0000 
     26 CT         -5.0320   25.4360   86.5020 C.2       1 MTX703      0.0000 
     27 O1         -4.3920   25.9850   87.4260 O.co2     1 MTX703      0.0000 
     28 O2         -6.2810   25.3610   86.6160 O.co2     1 MTX703      0.0000 
     29 CB         -3.7710   23.4310   85.5910 C.3       1 MTX703      0.0000 
     30 CG         -4.2650   22.4940   84.4670 C.3       1 MTX703      0.0000 
     31 CD         -2.9880   21.9390   83.6880 C.2       1 MTX703      0.0000 
     32 OE1        -2.6860   22.3930   82.5430 O.co2     1 MTX703      0.0000 
     33 OE2        -2.2770   21.0240   84.2600 O.co2     1 MTX703      0.0000 
@<TRIPOS>BOND
     1    1    2 ar   
     2    1   12 ar   
     3    2    3 1    
     4    2    4 ar   
     5    4    5 ar   
     6    5    6 1    
     7    5    7 ar   
     8    7    8 ar   
     9    7   12 ar   
    10    8    9 ar   
    11    9   10 ar   
    12    9   13 1    
    13   10   11 ar   
    14   11   12 ar   
    15   13   14 1    
    16   14   15 1    
    17   14   19 1    
    18   16   17 ar   
    19   16   21 ar   
    20   16   22 1    
    21   17   18 ar   
    22   18   19 ar   
    23   19   20 ar   
    24   20   21 ar   
    25   22   23 2    
    26   22   24 am   
    27   24   25 1    
    28   25   26 1    
    29   25   29 1    
    30   26   27 ar   
    31   26   28 ar   
    32   29   30 1    
    33   30   31 1    
    34   31   32 ar   
    35   31   33 ar   
@<TRIPOS>SUBSTRUCTURE
     1 MTX703      1 GROUP   
@<TRIPOS>SET

