#    Name: 6smr_6_PLS
#    Modification time : Fri May 22 19:27:58 2020

@<TRIPOS>MOLECULE
6smr_6_PLS
   22    22     1     0     0
SMALL
NO_CHARGES


@<TRIPOS>ATOM
      1 N          10.1720   36.5810   92.8950 N.4       1 PLS702      0.0000 
      2 CA          8.9750   37.1590   93.4790 C.3       1 PLS702      0.0000 
      3 CB          7.9010   37.3890   92.4210 C.3       1 PLS702      0.0000 
      4 OG          7.4930   36.1950   91.8200 O.3       1 PLS702      0.0000 
      5 C           8.4830   36.2240   94.5830 C.2       1 PLS702      0.0000 
      6 O           9.0640   35.1190   94.7800 O.co2     1 PLS702      0.0000 
      7 OXT         7.5040   36.5680   95.3010 O.co2     1 PLS702      0.0000 
      8 N1         14.2760   35.2490   90.3910 N.ar      1 PLS702      0.0000 
      9 C2         13.7110   34.7540   91.5010 C.ar      1 PLS702      0.0000 
     10 C2A        14.3540   33.5630   92.2100 C.3       1 PLS702      0.0000 
     11 C3         12.5570   35.3270   91.9900 C.ar      1 PLS702      0.0000 
     12 O3         12.0160   34.7600   93.1400 O.3       1 PLS702      0.0000 
     13 C4         11.9890   36.3910   91.3460 C.ar      1 PLS702      0.0000 
     14 C4A        10.7210   37.0490   91.8740 C.3       1 PLS702      0.0000 
     15 C5         12.5750   36.8880   90.2220 C.ar      1 PLS702      0.0000 
     16 C6         13.7300   36.2940   89.7420 C.ar      1 PLS702      0.0000 
     17 C5A        11.9850   38.0710   89.4410 C.3       1 PLS702      0.0000 
     18 O4P        12.2090   39.3020   90.0760 O.3       1 PLS702      0.0000 
     19 P          11.3980   40.5870   89.4320 P.3       1 PLS702      0.0000 
     20 O1P        11.2240   40.3160   87.9560 O.co2     1 PLS702      0.0000 
     21 O2P        12.1390   41.8920   89.7260 O.co2     1 PLS702      0.0000 
     22 O3P        10.0260   40.6450   90.0440 O.co2     1 PLS702      0.0000 
@<TRIPOS>BOND
     1    1    2 1    
     2    1   14 1    
     3    2    3 1    
     4    2    5 1    
     5    3    4 1    
     6    5    6 ar   
     7    5    7 ar   
     8    8    9 ar   
     9    8   16 ar   
    10    9   10 1    
    11    9   11 ar   
    12   11   12 1    
    13   11   13 ar   
    14   13   14 1    
    15   13   15 ar   
    16   15   16 ar   
    17   15   17 1    
    18   17   18 1    
    19   18   19 1    
    20   19   20 ar   
    21   19   21 ar   
    22   19   22 ar   
@<TRIPOS>SUBSTRUCTURE
     1 PLS702      1 GROUP   
@<TRIPOS>SET

