#    Name: 6smr_6_PLS_CAVITY_N1_4
#    Modification time : Fri May 22 19:27:58 2020

@<TRIPOS>MOLECULE
6smr_6_PLS_CAVITY_N1_4
   47     0     7     0     0
SMALL
NO_CHARGES


@<TRIPOS>ATOM
      1 OG         13.2400   36.1600   89.0300 O.3       1 SER1        0.0000 
      2 OG         12.1000   36.9800   88.4900 O.3       1 SER1        0.0000 
      3 OG          7.2400   35.1800   91.8600 O.3       1 SER1        0.0000 
      4 OG         11.2700   38.8700   88.9600 O.3       1 SER1        0.0000 
      5 OG         11.4700   37.4000   90.4700 O.3       1 SER1        0.0000 
      6 OG         10.3400   38.2200   89.9400 O.3       1 SER1        0.0000 
      7 OG         11.6800   35.9200   91.9800 O.3       1 SER1        0.0000 
      8 OG         10.5400   36.7400   91.4500 O.3       1 SER1        0.0000 
      9 OG          9.4000   37.5600   90.9200 O.3       1 SER1        0.0000 
     10 OG          9.6100   36.0900   92.4300 O.3       1 SER1        0.0000 
     11 OG          8.4700   36.9100   91.8900 O.3       1 SER1        0.0000 
     12 OG         10.8400   37.8200   92.4500 O.3       1 SER1        0.0000 
     13 OG          7.8400   37.3300   93.8700 O.3       1 SER1        0.0000 
     14 OG          6.9100   36.6700   94.8500 O.3       1 SER1        0.0000 
     15 O          12.4000   38.0500   89.5000 O.2       2 ALA2        0.0000 
     16 O           4.7500   34.2900   95.8000 O.2       2 ALA2        0.0000 
     17 OD1         7.6500   32.2300   94.8900 O.co2     3 ASP3        0.0000 
     18 OD1         6.5200   33.0500   94.3500 O.co2     3 ASP3        0.0000 
     19 OD1        12.6100   36.5800   91.0100 O.co2     3 ASP3        0.0000 
     20 OD1         7.7500   34.7800   94.3800 O.co2     3 ASP3        0.0000 
     21 OD1         5.6800   34.9500   94.8200 O.co2     3 ASP3        0.0000 
     22 OD1        11.7700   38.4700   91.4800 O.co2     3 ASP3        0.0000 
     23 OD1         8.0500   35.8500   95.3900 O.co2     3 ASP3        0.0000 
     24 NZ          4.8700   34.2700   91.3000 N.4       4 LYS4        0.0000 
     25 NZ         13.4500   34.6900   90.5400 N.4       4 LYS4        0.0000 
     26 NZ          6.3100   34.5300   92.8400 N.4       4 LYS4        0.0000 
     27 NZ          4.2400   34.6900   93.2800 N.4       4 LYS4        0.0000 
     28 NZ          7.5400   36.2500   92.8700 N.4       4 LYS4        0.0000 
     29 NZ          6.6100   35.6000   93.8500 N.4       4 LYS4        0.0000 
     30 NZ          5.7700   37.4900   94.3200 N.4       4 LYS4        0.0000 
     31 CZ          7.1500   32.6400   92.3700 C.ar      5 PHE5        0.0000 
     32 CZ          6.0100   33.4600   91.8400 C.ar      5 PHE5        0.0000 
     33 CZ         12.3100   35.5100   90.0000 C.ar      5 PHE5        0.0000 
     34 CZ         12.8100   35.1000   92.5200 C.ar      5 PHE5        0.0000 
     35 CZ         10.7500   35.2700   92.9600 C.ar      5 PHE5        0.0000 
     36 CZ          8.6800   35.4300   93.4000 C.ar      5 PHE5        0.0000 
     37 CZ          4.5400   35.7700   94.2900 C.ar      5 PHE5        0.0000 
     38 CZ          4.8400   36.8400   95.2900 C.ar      5 PHE5        0.0000 
     39 CA          5.5000   33.8600   89.3200 C.3       6 GLY6        0.0000 
     40 CA         13.5400   37.2300   90.0300 C.3       6 GLY6        0.0000 
     41 CA         13.7500   35.7600   91.5400 C.3       6 GLY6        0.0000 
     42 CA          9.8200   34.6200   93.9400 C.3       6 GLY6        0.0000 
     43 CA         12.7000   39.1200   90.5000 C.3       6 GLY6        0.0000 
     44 CA         11.0500   36.3400   93.9700 C.3       6 GLY6        0.0000 
     45 CA          9.9100   37.1600   93.4300 C.3       6 GLY6        0.0000 
     46 CA          8.9800   36.5100   94.4100 C.3       6 GLY6        0.0000 
     47 DU          5.3800   33.8700   93.8200 H         7 CUB7        0.0000 
@<TRIPOS>BOND
@<TRIPOS>SUBSTRUCTURE
     1 SER1        1 GROUP   
     2 ALA2       15 GROUP   
     3 ASP3       17 GROUP   
     4 LYS4       24 GROUP   
     5 PHE5       31 GROUP   
     6 GLY6       39 GROUP   
     7 CUB7       47 GROUP   
@<TRIPOS>SET

