#    Name: 6smr_3_MTX
#    Modification time : Fri May 22 19:27:31 2020

@<TRIPOS>MOLECULE
6smr_3_MTX
   33    35     1     0     0
SMALL
NO_CHARGES


@<TRIPOS>ATOM
      1 N1         29.1350    2.8110   62.1510 N.ar      1 MTX501      0.0000 
      2 C2         30.2620    3.4150   61.6870 C.ar      1 MTX501      0.0000 
      3 NA2        31.3110    2.6140   61.0200 N.pl3     1 MTX501      0.0000 
      4 N3         30.4260    4.7780   61.8360 N.ar      1 MTX501      0.0000 
      5 C4         29.4780    5.5120   62.4440 C.ar      1 MTX501      0.0000 
      6 NA4        29.6450    6.9950   62.6160 N.pl3     1 MTX501      0.0000 
      7 C4A        28.3420    4.9000   62.9160 C.ar      1 MTX501      0.0000 
      8 N5         27.3960    5.6350   63.5150 N.ar      1 MTX501      0.0000 
      9 C6         26.2820    5.0540   63.9780 C.ar      1 MTX501      0.0000 
     10 C7         26.1070    3.6850   63.8300 C.ar      1 MTX501      0.0000 
     11 N8         27.0460    2.9560   63.2290 N.ar      1 MTX501      0.0000 
     12 C8A        28.1710    3.5460   62.7640 C.ar      1 MTX501      0.0000 
     13 C9         25.1440    5.9020   64.6920 C.3       1 MTX501      0.0000 
     14 N10        25.4430    7.2960   64.4650 N.pl3     1 MTX501      0.0000 
     15 CM         25.0740    7.8880   63.2770 C.3       1 MTX501      0.0000 
     16 C11        28.2050    9.1280   67.1650 C.ar      1 MTX501      0.0000 
     17 C12        27.4150    8.0690   67.5790 C.ar      1 MTX501      0.0000 
     18 C13        26.5190    7.4950   66.6910 C.ar      1 MTX501      0.0000 
     19 C14        26.4140    7.9700   65.3920 C.ar      1 MTX501      0.0000 
     20 C15        27.2090    9.0120   64.9690 C.ar      1 MTX501      0.0000 
     21 C16        28.1170    9.5980   65.8690 C.ar      1 MTX501      0.0000 
     22 C          29.2240    9.7480   68.1520 C.2       1 MTX501      0.0000 
     23 O          29.4940   10.8760   68.0910 O.2       1 MTX501      0.0000 
     24 N          29.8710    8.8620   69.1290 N.am      1 MTX501      0.0000 
     25 CA         30.8670    9.3320   70.0640 C.3       1 MTX501      0.0000 
     26 CT         32.0210    8.3000   70.0730 C.2       1 MTX501      0.0000 
     27 O1         32.9550    8.4080   70.9160 O.co2     1 MTX501      0.0000 
     28 O2         32.0390    7.3510   69.2480 O.co2     1 MTX501      0.0000 
     29 CB         30.3100    9.4770   71.4640 C.3       1 MTX501      0.0000 
     30 CG         29.3730   10.7070   71.5330 C.3       1 MTX501      0.0000 
     31 CD         30.1450   12.0250   72.0330 C.2       1 MTX501      0.0000 
     32 OE1        29.7240   13.1740   71.7050 O.co2     1 MTX501      0.0000 
     33 OE2        31.1960   11.9140   72.7720 O.co2     1 MTX501      0.0000 
@<TRIPOS>BOND
     1    1    2 ar   
     2    1   12 ar   
     3    2    3 1    
     4    2    4 ar   
     5    4    5 ar   
     6    5    6 1    
     7    5    7 ar   
     8    7    8 ar   
     9    7   12 ar   
    10    8    9 ar   
    11    9   10 ar   
    12    9   13 1    
    13   10   11 ar   
    14   11   12 ar   
    15   13   14 1    
    16   14   15 1    
    17   14   19 1    
    18   16   17 ar   
    19   16   21 ar   
    20   16   22 1    
    21   17   18 ar   
    22   18   19 ar   
    23   19   20 ar   
    24   20   21 ar   
    25   22   23 2    
    26   22   24 am   
    27   24   25 1    
    28   25   26 1    
    29   25   29 1    
    30   26   27 ar   
    31   26   28 ar   
    32   29   30 1    
    33   30   31 1    
    34   31   32 ar   
    35   31   33 ar   
@<TRIPOS>SUBSTRUCTURE
     1 MTX501      1 GROUP   
@<TRIPOS>SET

