#    Name: 6smr_6_PLS_CAVITY_N1_6
#    Modification time : Fri May 22 19:27:58 2020

@<TRIPOS>MOLECULE
6smr_6_PLS_CAVITY_N1_6
   69     0     7     0     0
SMALL
NO_CHARGES


@<TRIPOS>ATOM
      1 OG          7.3500   31.1600   93.8800 O.3       1 SER1        0.0000 
      2 OG         13.2400   36.1600   89.0300 O.3       1 SER1        0.0000 
      3 OG         12.1000   36.9800   88.4900 O.3       1 SER1        0.0000 
      4 OG          7.2400   35.1800   91.8600 O.3       1 SER1        0.0000 
      5 OG         11.2700   38.8700   88.9600 O.3       1 SER1        0.0000 
      6 OG         11.4700   37.4000   90.4700 O.3       1 SER1        0.0000 
      7 OG         10.3400   38.2200   89.9400 O.3       1 SER1        0.0000 
      8 OG         11.6800   35.9200   91.9800 O.3       1 SER1        0.0000 
      9 OG         10.5400   36.7400   91.4500 O.3       1 SER1        0.0000 
     10 OG          9.4000   37.5600   90.9200 O.3       1 SER1        0.0000 
     11 OG          9.6100   36.0900   92.4300 O.3       1 SER1        0.0000 
     12 OG          8.4700   36.9100   91.8900 O.3       1 SER1        0.0000 
     13 OG         10.8400   37.8200   92.4500 O.3       1 SER1        0.0000 
     14 OG          7.8400   37.3300   93.8700 O.3       1 SER1        0.0000 
     15 OG          6.9100   36.6700   94.8500 O.3       1 SER1        0.0000 
     16 N           6.2100   31.9800   93.3500 N.am      2 ALA2        0.0000 
     17 N           5.2800   31.3300   94.3300 N.am      2 ALA2        0.0000 
     18 N           4.1500   32.1500   93.7900 N.am      2 ALA2        0.0000 
     19 N           5.5800   32.4000   95.3300 N.am      2 ALA2        0.0000 
     20 O           4.4500   33.2200   94.8000 O.2       2 ALA2        0.0000 
     21 O           3.3100   34.0400   94.2600 O.2       2 ALA2        0.0000 
     22 O          12.4000   38.0500   89.5000 O.2       2 ALA2        0.0000 
     23 O           4.7500   34.2900   95.8000 O.2       2 ALA2        0.0000 
     24 OD1         7.6500   32.2300   94.8900 O.co2     3 ASP3        0.0000 
     25 OD1         6.5200   33.0500   94.3500 O.co2     3 ASP3        0.0000 
     26 OD1        12.6100   36.5800   91.0100 O.co2     3 ASP3        0.0000 
     27 OD1         7.7500   34.7800   94.3800 O.co2     3 ASP3        0.0000 
     28 OD1         5.6800   34.9500   94.8200 O.co2     3 ASP3        0.0000 
     29 OD1        11.7700   38.4700   91.4800 O.co2     3 ASP3        0.0000 
     30 OD1         8.0500   35.8500   95.3900 O.co2     3 ASP3        0.0000 
     31 NZ          4.8700   34.2700   91.3000 N.4       4 LYS4        0.0000 
     32 NZ          3.7400   35.0900   90.7700 N.4       4 LYS4        0.0000 
     33 NZ         13.4500   34.6900   90.5400 N.4       4 LYS4        0.0000 
     34 NZ          6.3100   34.5300   92.8400 N.4       4 LYS4        0.0000 
     35 NZ          4.2400   34.6900   93.2800 N.4       4 LYS4        0.0000 
     36 NZ          7.5400   36.2500   92.8700 N.4       4 LYS4        0.0000 
     37 NZ          6.6100   35.6000   93.8500 N.4       4 LYS4        0.0000 
     38 NZ          5.7700   37.4900   94.3200 N.4       4 LYS4        0.0000 
     39 CZ          3.4300   34.0200   89.7600 C.ar      5 PHE5        0.0000 
     40 CZ          2.5000   33.3700   90.7400 C.ar      5 PHE5        0.0000 
     41 CZ          7.1500   32.6400   92.3700 C.ar      5 PHE5        0.0000 
     42 CZ          6.0100   33.4600   91.8400 C.ar      5 PHE5        0.0000 
     43 CZ          2.8000   34.4400   91.7500 C.ar      5 PHE5        0.0000 
     44 CZ         12.3100   35.5100   90.0000 C.ar      5 PHE5        0.0000 
     45 CZ          3.1000   35.5100   92.7500 C.ar      5 PHE5        0.0000 
     46 CZ          2.1700   34.8600   93.7300 C.ar      5 PHE5        0.0000 
     47 CZ         12.8100   35.1000   92.5200 C.ar      5 PHE5        0.0000 
     48 CZ         10.7500   35.2700   92.9600 C.ar      5 PHE5        0.0000 
     49 CZ          8.6800   35.4300   93.4000 C.ar      5 PHE5        0.0000 
     50 CZ          4.5400   35.7700   94.2900 C.ar      5 PHE5        0.0000 
     51 CZ          3.6100   35.1100   95.2700 C.ar      5 PHE5        0.0000 
     52 CZ          4.8400   36.8400   95.2900 C.ar      5 PHE5        0.0000 
     53 CA          4.2700   32.1300   89.2900 C.3       6 GLY6        0.0000 
     54 CA          5.5000   33.8600   89.3200 C.3       6 GLY6        0.0000 
     55 CA         13.5400   37.2300   90.0300 C.3       6 GLY6        0.0000 
     56 CA         13.7500   35.7600   91.5400 C.3       6 GLY6        0.0000 
     57 CA          9.8200   34.6200   93.9400 C.3       6 GLY6        0.0000 
     58 CA         12.7000   39.1200   90.5000 C.3       6 GLY6        0.0000 
     59 CA         11.0500   36.3400   93.9700 C.3       6 GLY6        0.0000 
     60 CA          9.9100   37.1600   93.4300 C.3       6 GLY6        0.0000 
     61 CA          8.9800   36.5100   94.4100 C.3       6 GLY6        0.0000 
     62 DU          4.5700   33.2000   90.3000 H         7 CUB7        0.0000 
     63 DU          5.9100   30.9100   92.3400 H         7 CUB7        0.0000 
     64 DU          4.7800   31.7300   91.8100 H         7 CUB7        0.0000 
     65 DU          3.6400   32.5500   91.2800 H         7 CUB7        0.0000 
     66 DU          5.0800   32.8000   92.8100 H         7 CUB7        0.0000 
     67 DU          3.9400   33.6200   92.2800 H         7 CUB7        0.0000 
     68 DU          3.0100   32.9700   93.2600 H         7 CUB7        0.0000 
     69 DU          5.3800   33.8700   93.8200 H         7 CUB7        0.0000 
@<TRIPOS>BOND
@<TRIPOS>SUBSTRUCTURE
     1 SER1        1 GROUP   
     2 ALA2       16 GROUP   
     3 ASP3       24 GROUP   
     4 LYS4       31 GROUP   
     5 PHE5       39 GROUP   
     6 GLY6       53 GROUP   
     7 CUB7       62 GROUP   
@<TRIPOS>SET

