#    Name: 6smr_4_PLS_CAVITY_N1_4
#    Modification time : Fri May 22 19:27:40 2020

@<TRIPOS>MOLECULE
6smr_4_PLS_CAVITY_N1_4
   18     0     4     0     0
SMALL
NO_CHARGES


@<TRIPOS>ATOM
      1 OG          8.5800   20.7600   37.4300 O.3       1 SER1        0.0000 
      2 OG          7.4400   21.5800   36.9000 O.3       1 SER1        0.0000 
      3 OG          6.3100   22.4000   36.3700 O.3       1 SER1        0.0000 
      4 OG          7.6500   20.1000   38.4100 O.3       1 SER1        0.0000 
      5 OG          6.8100   22.0000   38.8800 O.3       1 SER1        0.0000 
      6 OG          5.6800   22.8100   38.3500 O.3       1 SER1        0.0000 
      7 OG          4.7500   22.1600   39.3200 O.3       1 SER1        0.0000 
      8 OD1         7.5400   24.1200   36.3900 O.co2     2 ASP3        0.0000 
      9 OD1         7.7400   22.6500   37.9000 O.co2     2 ASP3        0.0000 
     10 OD1         6.6100   23.4700   37.3700 O.co2     2 ASP3        0.0000 
     11 NZ          5.8800   21.3400   39.8600 N.4       3 LYS4        0.0000 
     12 NZ          4.9500   20.6900   40.8400 N.4       3 LYS4        0.0000 
     13 NZ          6.1800   22.4100   40.8600 N.4       3 LYS4        0.0000 
     14 NZ          5.2500   21.7600   41.8400 N.4       3 LYS4        0.0000 
     15 CZ          8.8800   21.8300   38.4400 C.ar      4 PHE5        0.0000 
     16 CZ          7.9500   21.1800   39.4200 C.ar      4 PHE5        0.0000 
     17 CZ          8.0500   23.7200   38.9100 C.ar      4 PHE5        0.0000 
     18 CZ          7.1100   23.0700   39.8900 C.ar      4 PHE5        0.0000 
@<TRIPOS>BOND
@<TRIPOS>SUBSTRUCTURE
     1 SER1        1 GROUP   
     2 ASP3        8 GROUP   
     3 LYS4       11 GROUP   
     4 PHE5       15 GROUP   
@<TRIPOS>SET

