#    Name: 6smr_5_PLS_CAVITY_N1_12
#    Modification time : Fri May 22 19:27:49 2020

@<TRIPOS>MOLECULE
6smr_5_PLS_CAVITY_N1_12
   98     0     7     0     0
SMALL
NO_CHARGES


@<TRIPOS>ATOM
      1 OG         11.7000   54.5000   69.9100 O.3       1 SER1        0.0000 
      2 OG         11.9100   53.0300   71.4200 O.3       1 SER1        0.0000 
      3 OG         19.1400   55.7300   68.6100 O.3       1 SER1        0.0000 
      4 OG         13.5500   51.8100   74.4700 O.3       1 SER1        0.0000 
      5 OG         21.5100   56.6400   69.1700 O.3       1 SER1        0.0000 
      6 OG         20.3700   57.4600   68.6300 O.3       1 SER1        0.0000 
      7 OG         19.2300   58.2800   68.1000 O.3       1 SER1        0.0000 
      8 OG         20.5800   55.9800   70.1500 O.3       1 SER1        0.0000 
      9 OG         18.3000   57.6200   69.0800 O.3       1 SER1        0.0000 
     10 OG         18.5100   56.1500   70.5900 O.3       1 SER1        0.0000 
     11 OG         17.3700   56.9700   70.0500 O.3       1 SER1        0.0000 
     12 OG         15.3000   57.1300   70.5000 O.3       1 SER1        0.0000 
     13 OG         16.6400   54.8400   72.5400 O.3       1 SER1        0.0000 
     14 OG         15.5100   55.6600   72.0100 O.3       1 SER1        0.0000 
     15 OG         15.7100   54.1900   73.5200 O.3       1 SER1        0.0000 
     16 OG         14.5800   55.0100   72.9900 O.3       1 SER1        0.0000 
     17 OG         14.7800   53.5300   74.5000 O.3       1 SER1        0.0000 
     18 OG         13.6500   54.3500   73.9600 O.3       1 SER1        0.0000 
     19 OG         13.8500   52.8800   75.4700 O.3       1 SER1        0.0000 
     20 OG         16.7400   57.3900   72.0400 O.3       1 SER1        0.0000 
     21 OG         15.8100   56.7300   73.0100 O.3       1 SER1        0.0000 
     22 N          19.5600   56.7900   65.1100 N.am      2 ALA2        0.0000 
     23 N          17.7000   55.4800   67.0700 N.am      2 ALA2        0.0000 
     24 N          23.0700   56.8700   66.2100 N.am      2 ALA2        0.0000 
     25 N          21.9300   57.6900   65.6700 N.am      2 ALA2        0.0000 
     26 N          19.8600   57.8600   66.1200 N.am      2 ALA2        0.0000 
     27 N          23.3700   57.9500   67.2100 N.am      2 ALA2        0.0000 
     28 O          21.3000   58.1100   67.6600 O.2       2 ALA2        0.0000 
     29 O          20.1600   58.9300   67.1200 O.2       2 ALA2        0.0000 
     30 OD1        17.7900   58.0200   66.5600 O.co2     3 ASP3        0.0000 
     31 OD1        12.2100   54.1000   72.4200 O.co2     3 ASP3        0.0000 
     32 OD1        25.6400   56.3100   68.2800 O.co2     3 ASP3        0.0000 
     33 NZ         10.7700   53.8500   70.8800 N.4       4 LYS4        0.0000 
     34 NZ         20.4800   53.4400   70.6500 N.4       4 LYS4        0.0000 
     35 NZ         19.3400   54.2600   70.1200 N.4       4 LYS4        0.0000 
     36 NZ         21.7100   55.1600   70.6800 N.4       4 LYS4        0.0000 
     37 NZ         17.5800   55.4900   71.5700 N.4       4 LYS4        0.0000 
     38 NZ         17.8800   56.5700   72.5700 N.4       4 LYS4        0.0000 
     39 CZ         24.1100   53.5100   67.2500 C.ar      5 PHE5        0.0000 
     40 CZ         23.1800   52.8500   68.2300 C.ar      5 PHE5        0.0000 
     41 CZ         22.2500   52.2000   69.2100 C.ar      5 PHE5        0.0000 
     42 CZ         12.8400   53.6800   70.4400 C.ar      5 PHE5        0.0000 
     43 CZ         25.5500   53.7600   68.7900 C.ar      5 PHE5        0.0000 
     44 CZ         24.4100   54.5800   68.2600 C.ar      5 PHE5        0.0000 
     45 CZ         22.3400   54.7500   68.7000 C.ar      5 PHE5        0.0000 
     46 CZ         21.4100   54.0900   69.6800 C.ar      5 PHE5        0.0000 
     47 CZ         18.2100   55.0800   69.5800 C.ar      5 PHE5        0.0000 
     48 CZ         17.0700   55.9000   69.0500 C.ar      5 PHE5        0.0000 
     49 CZ         14.0700   55.4100   70.4700 C.ar      5 PHE5        0.0000 
     50 CZ         13.1400   54.7500   71.4500 C.ar      5 PHE5        0.0000 
     51 CZ         14.4800   52.4600   73.4900 C.ar      5 PHE5        0.0000 
     52 CZ         13.3400   53.2800   72.9600 C.ar      5 PHE5        0.0000 
     53 CZ         26.7800   55.4900   68.8200 C.ar      5 PHE5        0.0000 
     54 CZ         23.5700   56.4700   68.7300 C.ar      5 PHE5        0.0000 
     55 CZ         22.4400   57.2900   68.1900 C.ar      5 PHE5        0.0000 
     56 CZ         22.6400   55.8200   69.7000 C.ar      5 PHE5        0.0000 
     57 CZ         16.4400   56.3100   71.0300 C.ar      5 PHE5        0.0000 
     58 CZ         16.9500   55.9100   73.5500 C.ar      5 PHE5        0.0000 
     59 CA         22.3700   52.1800   64.7100 C.3       6 GLY6        0.0000 
     60 CA         22.5800   50.7100   66.2200 C.3       6 GLY6        0.0000 
     61 CA         22.6700   53.2600   65.7100 C.3       6 GLY6        0.0000 
     62 CA         21.5300   54.0700   65.1800 C.3       6 GLY6        0.0000 
     63 CA         21.7400   52.6000   66.6900 C.3       6 GLY6        0.0000 
     64 CA         21.9500   51.1300   68.2000 C.3       6 GLY6        0.0000 
     65 CA         20.8100   51.9500   67.6700 C.3       6 GLY6        0.0000 
     66 CA         20.7000   55.9700   65.6500 C.3       6 GLY6        0.0000 
     67 CA         20.9000   54.4900   67.1600 C.3       6 GLY6        0.0000 
     68 CA         19.7700   55.3100   66.6200 C.3       6 GLY6        0.0000 
     69 CA         18.6300   56.1300   66.0900 C.3       6 GLY6        0.0000 
     70 CA         21.1100   53.0200   68.6700 C.3       6 GLY6        0.0000 
     71 CA         21.3200   51.5500   70.1800 C.3       6 GLY6        0.0000 
     72 CA         20.1800   52.3600   69.6500 C.3       6 GLY6        0.0000 
     73 CA         18.0000   56.5500   68.0700 C.3       6 GLY6        0.0000 
     74 CA         12.0000   55.5700   70.9100 C.3       6 GLY6        0.0000 
     75 CA         11.0700   54.9200   71.8900 C.3       6 GLY6        0.0000 
     76 CA         12.4100   52.6200   73.9400 C.3       6 GLY6        0.0000 
     77 CA         24.7100   55.6500   69.2600 C.3       6 GLY6        0.0000 
     78 CA         14.3700   56.4800   71.4700 C.3       6 GLY6        0.0000 
     79 CA         13.4400   55.8300   72.4500 C.3       6 GLY6        0.0000 
     80 CA         12.7100   53.7000   74.9400 C.3       6 GLY6        0.0000 
     81 DU         23.6000   53.9100   64.7300 H         7 CUB7        0.0000 
     82 DU         22.4700   54.7300   64.2000 H         7 CUB7        0.0000 
     83 DU         23.8100   52.4400   66.2500 H         7 CUB7        0.0000 
     84 DU         22.8800   51.7800   67.2200 H         7 CUB7        0.0000 
     85 DU         22.7700   55.8000   65.2000 H         7 CUB7        0.0000 
     86 DU         22.9700   54.3300   66.7200 H         7 CUB7        0.0000 
     87 DU         21.8400   55.1500   66.1800 H         7 CUB7        0.0000 
     88 DU         22.0400   53.6700   67.6900 H         7 CUB7        0.0000 
     89 DU         25.3400   55.2300   67.2800 H         7 CUB7        0.0000 
     90 DU         24.2000   56.0500   66.7400 H         7 CUB7        0.0000 
     91 DU         23.2700   55.4000   67.7200 H         7 CUB7        0.0000 
     92 DU         22.1400   56.2200   67.1900 H         7 CUB7        0.0000 
     93 DU         21.0000   57.0400   66.6500 H         7 CUB7        0.0000 
     94 DU         21.2100   55.5700   68.1600 H         7 CUB7        0.0000 
     95 DU         20.0700   56.3900   67.6300 H         7 CUB7        0.0000 
     96 DU         18.9300   57.2000   67.0900 H         7 CUB7        0.0000 
     97 DU         20.2700   54.9100   69.1400 H         7 CUB7        0.0000 
     98 DU         24.5100   57.1300   67.7500 H         7 CUB7        0.0000 
@<TRIPOS>BOND
@<TRIPOS>SUBSTRUCTURE
     1 SER1        1 GROUP   
     2 ALA2       22 GROUP   
     3 ASP3       30 GROUP   
     4 LYS4       33 GROUP   
     5 PHE5       39 GROUP   
     6 GLY6       59 GROUP   
     7 CUB7       81 GROUP   
@<TRIPOS>SET

