#    Name: 6smr_2_MTX_CAVITY_N1_4
#    Modification time : Fri May 22 19:27:24 2020

@<TRIPOS>MOLECULE
6smr_2_MTX_CAVITY_N1_4
   87     0     6     0     0
SMALL
NO_CHARGES


@<TRIPOS>ATOM
      1 OG          0.2800   23.9800   43.2000 O.3       1 SER1        0.0000 
      2 OG         -0.6500   23.3300   44.1700 O.3       1 SER1        0.0000 
      3 OG          1.7200   24.2300   44.7400 O.3       1 SER1        0.0000 
      4 OG          0.7900   23.5800   45.7100 O.3       1 SER1        0.0000 
      5 OG          0.4700   29.0700   42.1800 O.3       1 SER1        0.0000 
      6 OG          0.6800   27.6000   43.6900 O.3       1 SER1        0.0000 
      7 OG         -0.4600   28.4200   43.1600 O.3       1 SER1        0.0000 
      8 OG         -0.0700   32.0400   43.6600 O.3       1 SER1        0.0000 
      9 N          -4.1300   20.6800   39.0900 N.am      2 ALA2        0.0000 
     10 N           1.0300   23.5500   36.7200 N.am      2 ALA2        0.0000 
     11 N           1.3300   24.6200   37.7200 N.am      2 ALA2        0.0000 
     12 N          -2.5000   26.0200   39.6100 N.am      2 ALA2        0.0000 
     13 N          -0.6700   29.8900   41.6500 N.am      2 ALA2        0.0000 
     14 N          -1.6000   29.2400   42.6300 N.am      2 ALA2        0.0000 
     15 N          -0.3700   30.9700   42.6500 N.am      2 ALA2        0.0000 
     16 N          -1.3000   30.3100   43.6300 N.am      2 ALA2        0.0000 
     17 N          -2.1300   32.2000   44.1000 N.am      2 ALA2        0.0000 
     18 OD1        -3.2000   21.3300   38.1100 O.co2     3 ASP3        0.0000 
     19 OD1        -2.9000   22.4000   39.1100 O.co2     3 ASP3        0.0000 
     20 OD1        -3.8300   21.7500   40.0900 O.co2     3 ASP3        0.0000 
     21 OD1        -2.8000   24.9500   38.6100 O.co2     3 ASP3        0.0000 
     22 OD1        -2.6000   23.4800   40.1200 O.co2     3 ASP3        0.0000 
     23 OD1        -3.7300   24.3000   39.5800 O.co2     3 ASP3        0.0000 
     24 CZ          2.3800   21.2500   38.7600 C.ar      4 PHE5        0.0000 
     25 CZ         -1.7600   21.5800   39.6500 C.ar      4 PHE5        0.0000 
     26 CZ         -2.6900   20.9300   40.6300 C.ar      4 PHE5        0.0000 
     27 CZ          3.8100   21.5100   40.3000 C.ar      4 PHE5        0.0000 
     28 CZ          2.6800   22.3300   39.7700 C.ar      4 PHE5        0.0000 
     29 CZ          1.5400   23.1500   39.2300 C.ar      4 PHE5        0.0000 
     30 CZ          0.6100   22.4900   40.2100 C.ar      4 PHE5        0.0000 
     31 CZ         -0.3200   21.8400   41.1900 C.ar      4 PHE5        0.0000 
     32 CZ         -1.4600   22.6600   40.6500 C.ar      4 PHE5        0.0000 
     33 CZ          4.1200   22.5800   41.3100 C.ar      4 PHE5        0.0000 
     34 CZ          2.9800   23.4000   40.7700 C.ar      4 PHE5        0.0000 
     35 CZ          0.9100   23.5600   41.2100 C.ar      4 PHE5        0.0000 
     36 CZ         -0.0200   22.9100   42.1900 C.ar      4 PHE5        0.0000 
     37 CZ         -1.1600   23.7300   41.6600 C.ar      4 PHE5        0.0000 
     38 CZ          2.3500   23.8200   42.7500 C.ar      4 PHE5        0.0000 
     39 CZ          1.2100   24.6400   42.2200 C.ar      4 PHE5        0.0000 
     40 CZ          2.9500   25.9600   44.7600 C.ar      4 PHE5        0.0000 
     41 CZ          1.8100   26.7800   44.2300 C.ar      4 PHE5        0.0000 
     42 CZ          0.8800   26.1300   45.2100 C.ar      4 PHE5        0.0000 
     43 CA          1.2400   22.0700   38.2300 C.3       5 GLY6        0.0000 
     44 CA          0.1000   22.8900   37.6900 C.3       5 GLY6        0.0000 
     45 CA         -0.8300   22.2400   38.6700 C.3       5 GLY6        0.0000 
     46 CA         -0.7300   24.7800   38.1600 C.3       5 GLY6        0.0000 
     47 CA         -1.8700   25.6000   37.6300 C.3       5 GLY6        0.0000 
     48 CA         -1.6600   24.1300   39.1400 C.3       5 GLY6        0.0000 
     49 CA          0.5000   26.5100   38.1900 C.3       5 GLY6        0.0000 
     50 CA          5.3500   24.3100   41.3300 C.3       5 GLY6        0.0000 
     51 CA          4.2100   25.1200   40.8000 C.3       5 GLY6        0.0000 
     52 CA          4.4200   23.6500   42.3100 C.3       5 GLY6        0.0000 
     53 CA          3.2800   24.4700   41.7800 C.3       5 GLY6        0.0000 
     54 CA          3.4800   23.0000   43.2900 C.3       5 GLY6        0.0000 
     55 CA          3.3700   27.0200   41.2700 C.3       5 GLY6        0.0000 
     56 CA          4.7200   24.7200   43.3200 C.3       5 GLY6        0.0000 
     57 CA          3.5800   25.5400   42.7800 C.3       5 GLY6        0.0000 
     58 CA          2.4400   26.3600   42.2500 C.3       5 GLY6        0.0000 
     59 CA          3.7900   24.0700   44.2900 C.3       5 GLY6        0.0000 
     60 CA          2.8500   23.4200   45.2700 C.3       5 GLY6        0.0000 
     61 CA          2.0200   25.3100   45.7400 C.3       5 GLY6        0.0000 
     62 DU          3.6100   22.9800   38.7900 H         6 CUB7        0.0000 
     63 DU          2.4700   23.8000   38.2600 H         6 CUB7        0.0000 
     64 DU          0.4000   23.9600   38.7000 H         6 CUB7        0.0000 
     65 DU         -0.5300   23.3100   39.6800 H         6 CUB7        0.0000 
     66 DU          3.9100   24.0500   39.7900 H         6 CUB7        0.0000 
     67 DU          1.6400   25.6900   38.7300 H         6 CUB7        0.0000 
     68 DU          1.8400   24.2200   40.2400 H         6 CUB7        0.0000 
     69 DU         -0.4300   25.8600   39.1700 H         6 CUB7        0.0000 
     70 DU         -0.2300   24.3800   40.6800 H         6 CUB7        0.0000 
     71 DU         -1.3600   25.2000   40.1500 H         6 CUB7        0.0000 
     72 DU         -2.2900   24.5500   41.1200 H         6 CUB7        0.0000 
     73 DU         -3.4300   25.3700   40.5900 H         6 CUB7        0.0000 
     74 DU          3.0700   25.9400   40.2700 H         6 CUB7        0.0000 
     75 DU          2.1400   25.2900   41.2400 H         6 CUB7        0.0000 
     76 DU         -0.1300   26.9300   40.1700 H         6 CUB7        0.0000 
     77 DU         -1.0600   26.2800   41.1500 H         6 CUB7        0.0000 
     78 DU         -0.8600   24.8000   42.6600 H         6 CUB7        0.0000 
     79 DU          2.2400   27.8400   40.7400 H         6 CUB7        0.0000 
     80 DU          1.3100   27.1800   41.7100 H         6 CUB7        0.0000 
     81 DU          0.1700   28.0000   41.1800 H         6 CUB7        0.0000 
     82 DU          2.6500   24.8900   43.7600 H         6 CUB7        0.0000 
     83 DU          1.5100   25.7100   43.2200 H         6 CUB7        0.0000 
     84 DU          0.3800   26.5300   42.6900 H         6 CUB7        0.0000 
     85 DU         -0.7600   27.3500   42.1500 H         6 CUB7        0.0000 
     86 DU          0.5800   25.0500   44.2000 H         6 CUB7        0.0000 
     87 DU         -0.0500   25.4700   46.1800 H         6 CUB7        0.0000 
@<TRIPOS>BOND
@<TRIPOS>SUBSTRUCTURE
     1 SER1        1 GROUP   
     2 ALA2        9 GROUP   
     3 ASP3       18 GROUP   
     4 PHE5       24 GROUP   
     5 GLY6       43 GROUP   
     6 CUB7       62 GROUP   
@<TRIPOS>SET

