#    Name: 6smr_5_PLS
#    Modification time : Fri May 22 19:27:48 2020

@<TRIPOS>MOLECULE
6smr_5_PLS
   22    22     1     0     0
SMALL
NO_CHARGES


@<TRIPOS>ATOM
      1 N          15.0780   55.9260   72.0080 N.4       1 PLS501      0.0000 
      2 CA         16.2250   56.6040   72.5890 C.3       1 PLS501      0.0000 
      3 CB         17.4150   55.6750   72.7710 C.3       1 PLS501      0.0000 
      4 OG         17.6480   54.9380   71.5960 O.3       1 PLS501      0.0000 
      5 C          16.5680   57.7320   71.6380 C.2       1 PLS501      0.0000 
      6 O          15.8560   57.8480   70.6150 O.co2     1 PLS501      0.0000 
      7 OXT        17.5200   58.5240   71.8720 O.co2     1 PLS501      0.0000 
      8 N1         10.9830   53.1730   71.0400 N.ar      1 PLS501      0.0000 
      9 C2         11.4700   54.2890   70.4350 C.ar      1 PLS501      0.0000 
     10 C2A        10.8070   54.8550   69.1740 C.3       1 PLS501      0.0000 
     11 C3         12.5740   54.9280   70.9620 C.ar      1 PLS501      0.0000 
     12 O3         13.0360   56.0750   70.3160 O.3       1 PLS501      0.0000 
     13 C4         13.1710   54.4470   72.0960 C.ar      1 PLS501      0.0000 
     14 C4A        14.3860   55.1470   72.7010 C.3       1 PLS501      0.0000 
     15 C5         12.6740   53.3380   72.7070 C.ar      1 PLS501      0.0000 
     16 C6         11.5730   52.6880   72.1660 C.ar      1 PLS501      0.0000 
     17 C5A        13.3550   52.7720   73.9550 C.3       1 PLS501      0.0000 
     18 O4P        12.8270   53.2400   75.1590 O.3       1 PLS501      0.0000 
     19 P          13.6410   52.7570   76.4910 P.3       1 PLS501      0.0000 
     20 O1P        15.0040   53.4010   76.4580 O.co2     1 PLS501      0.0000 
     21 O2P        13.7990   51.2540   76.4840 O.co2     1 PLS501      0.0000 
     22 O3P        12.8510   53.1620   77.7010 O.co2     1 PLS501      0.0000 
@<TRIPOS>BOND
     1    1    2 1    
     2    1   14 1    
     3    2    3 1    
     4    2    5 1    
     5    3    4 1    
     6    5    6 ar   
     7    5    7 ar   
     8    8    9 ar   
     9    8   16 ar   
    10    9   10 1    
    11    9   11 ar   
    12   11   12 1    
    13   11   13 ar   
    14   13   14 1    
    15   13   15 ar   
    16   15   16 ar   
    17   15   17 1    
    18   17   18 1    
    19   18   19 1    
    20   19   20 ar   
    21   19   21 ar   
    22   19   22 ar   
@<TRIPOS>SUBSTRUCTURE
     1 PLS501      1 GROUP   
@<TRIPOS>SET

