#    Name: 6fy4_2_FAD
#    Modification time : Fri May 22 19:30:23 2020

@<TRIPOS>MOLECULE
6fy4_2_FAD
   53    58     1     0     1
SMALL
NO_CHARGES


@<TRIPOS>ATOM
      1 PA         12.8660  -29.9470   22.1340 P.3       1 FAD301      0.0000 
      2 O1A        12.1320  -28.6330   22.3120 O.co2     1 FAD301      0.0000 
      3 O2A        14.3870  -29.9170   22.2530 O.co2     1 FAD301      0.0000 
      4 O5B        12.2750  -30.9970   23.2110 O.3       1 FAD301      0.0000 
      5 C5B        11.0220  -30.8600   23.8960 C.3       1 FAD301      0.0000 
      6 C4B        11.3030  -30.6310   25.3800 C.3       1 FAD301      0.0000 
      7 O4B        11.8520  -31.8250   25.9440 O.3       1 FAD301      0.0000 
      8 C3B        12.3670  -29.5530   25.6150 C.3       1 FAD301      0.0000 
      9 O3B        11.9910  -28.6810   26.6830 O.3       1 FAD301      0.0000 
     10 C2B        13.6160  -30.3120   26.0140 C.3       1 FAD301      0.0000 
     11 O2B        14.4850  -29.6150   26.8900 O.3       1 FAD301      0.0000 
     12 C1B        12.9950  -31.4700   26.7370 C.3       1 FAD301      0.0000 
     13 N9A        14.0260  -32.5170   26.8980 N.pl3     1 FAD301      0.0000 
     14 C8A        15.2780  -32.4650   26.4210 C.2       1 FAD301      0.0000 
     15 N7A        15.9870  -33.5680   26.7730 N.2       1 FAD301      0.0000 
     16 C5A        15.1790  -34.3370   27.5150 C.ar      1 FAD301      0.0000 
     17 C6A        15.2910  -35.6370   28.2090 C.ar      1 FAD301      0.0000 
     18 N6A        16.4340  -36.3550   28.1620 N.pl3     1 FAD301      0.0000 
     19 N1A        14.1980  -36.0810   28.8680 N.ar      1 FAD301      0.0000 
     20 C2A        13.0380  -35.3870   28.9100 C.ar      1 FAD301      0.0000 
     21 N3A        12.8620  -34.1920   28.3140 N.ar      1 FAD301      0.0000 
     22 C4A        13.8810  -33.6370   27.6050 C.ar      1 FAD301      0.0000 
     23 N1          6.1660  -29.7390   13.0990 N.2       1 FAD301      0.0000 
     24 C2          5.2240  -30.3560   12.3430 C.2       1 FAD301      0.0000 
     25 O2          4.3410  -31.0410   12.8690 O.2       1 FAD301      0.0000 
     26 N3          5.1760  -30.2810   11.0190 N.am      1 FAD301      0.0000 
     27 C4          6.0490  -29.5870   10.2890 C.2       1 FAD301      0.0000 
     28 O4          5.9200  -29.5770    9.0270 O.2       1 FAD301      0.0000 
     29 C4X         7.1330  -28.8660   11.0270 C.2       1 FAD301      0.0000 
     30 N5          8.0640  -28.1240   10.4070 N.2       1 FAD301      0.0000 
     31 C5X         9.0450  -27.5230   11.1130 C.ar      1 FAD301      0.0000 
     32 C6         10.0200  -26.8140   10.4200 C.ar      1 FAD301      0.0000 
     33 C7         11.0530  -26.1940   11.0970 C.ar      1 FAD301      0.0000 
     34 C7M        12.0940  -25.4400   10.3160 C.3       1 FAD301      0.0000 
     35 C8         11.1390  -26.2920   12.5780 C.ar      1 FAD301      0.0000 
     36 C8M        12.2710  -25.6130   13.3000 C.3       1 FAD301      0.0000 
     37 C9         10.1660  -27.0000   13.2730 C.ar      1 FAD301      0.0000 
     38 C9A         9.1230  -27.6230   12.5970 C.ar      1 FAD301      0.0000 
     39 N10         8.1220  -28.3450   13.2700 N.pl3     1 FAD301      0.0000 
     40 C10         7.1330  -28.9900   12.5070 C.2       1 FAD301      0.0000 
     41 C1'         8.0920  -28.5000   14.7220 C.3       1 FAD301      0.0000 
     42 C2'         9.1390  -29.5380   15.1130 C.3       1 FAD301      0.0000 
     43 O2'         8.8120  -30.8460   14.6440 O.3       1 FAD301      0.0000 
     44 C3'         9.3730  -29.6050   16.6040 C.3       1 FAD301      0.0000 
     45 O3'        10.0170  -28.3790   16.9610 O.3       1 FAD301      0.0000 
     46 C4'        10.2950  -30.7990   16.8540 C.3       1 FAD301      0.0000 
     47 O4'         9.6890  -32.0160   16.4190 O.3       1 FAD301      0.0000 
     48 C5'        10.5950  -30.9500   18.3310 C.3       1 FAD301      0.0000 
     49 O5'        11.7640  -31.7350   18.5490 O.3       1 FAD301      0.0000 
     50 P          12.9510  -31.0570   19.3810 P.3       1 FAD301      0.0000 
     51 O1P        13.9820  -32.1450   19.5730 O.co2     1 FAD301      0.0000 
     52 O2P        13.2730  -29.7470   18.6630 O.co2     1 FAD301      0.0000 
     53 O3P        12.2570  -30.7050   20.8160 O.3       1 FAD301      0.0000 
@<TRIPOS>BOND
     1    1    2 ar   
     2    1    3 ar   
     3    1    4 1    
     4    1   53 1    
     5    4    5 1    
     6    5    6 1    
     7    6    7 1    
     8    6    8 1    
     9    7   12 1    
    10    8    9 1    
    11    8   10 1    
    12   10   11 1    
    13   10   12 1    
    14   12   13 1    
    15   13   14 1    
    16   13   22 1    
    17   14   15 2    
    18   15   16 1    
    19   16   17 ar   
    20   16   22 ar   
    21   17   18 1    
    22   17   19 ar   
    23   19   20 ar   
    24   20   21 ar   
    25   21   22 ar   
    26   23   24 1    
    27   23   40 2    
    28   24   25 2    
    29   24   26 am   
    30   26   27 am   
    31   27   28 2    
    32   27   29 1    
    33   29   30 2    
    34   29   40 1    
    35   30   31 1    
    36   31   32 ar   
    37   31   38 ar   
    38   32   33 ar   
    39   33   34 1    
    40   33   35 ar   
    41   35   36 1    
    42   35   37 ar   
    43   37   38 ar   
    44   38   39 1    
    45   39   40 1    
    46   39   41 1    
    47   41   42 1    
    48   42   43 1    
    49   42   44 1    
    50   44   45 1    
    51   44   46 1    
    52   46   47 1    
    53   46   48 1    
    54   48   49 1    
    55   49   50 1    
    56   50   51 ar   
    57   50   52 ar   
    58   50   53 1    
@<TRIPOS>SUBSTRUCTURE
     1 FAD301      1 GROUP   
@<TRIPOS>SET
ATOM$ORANGE STATIC     ATOMS   COLORGROUP SYSTEM 
54 5 5 6 6 8 8 10 10 12 12 14 14 16 16 17 17 20 \
20 22 22 24 24 27 27 29 29 31 31 32 32 33 33 34 34 35 \
35 36 36 37 37 38 38 40 40 41 41 42 42 44 44 46 46 48 \
48 

