#    Name: 6fy4_4_FAD
#    Modification time : Fri May 22 19:30:41 2020

@<TRIPOS>MOLECULE
6fy4_4_FAD
   53    58     1     0     1
SMALL
NO_CHARGES


@<TRIPOS>ATOM
      1 PA         39.5470   -4.3590  -22.0950 P.3       1 FAD301      0.0000 
      2 O1A        38.8620   -3.0270  -22.1430 O.co2     1 FAD301      0.0000 
      3 O2A        38.6790   -5.6020  -22.0740 O.co2     1 FAD301      0.0000 
      4 O5B        40.6350   -4.4110  -23.2650 O.3       1 FAD301      0.0000 
      5 C5B        41.2670   -3.2030  -23.6350 C.3       1 FAD301      0.0000 
      6 C4B        41.1660   -3.0990  -25.1570 C.3       1 FAD301      0.0000 
      7 O4B        41.8490   -4.1910  -25.7790 O.3       1 FAD301      0.0000 
      8 C3B        39.7190   -3.1470  -25.6400 C.3       1 FAD301      0.0000 
      9 O3B        39.4610   -2.0530  -26.5460 O.3       1 FAD301      0.0000 
     10 C2B        39.6050   -4.4760  -26.3450 C.3       1 FAD301      0.0000 
     11 O2B        38.6720   -4.3900  -27.4300 O.3       1 FAD301      0.0000 
     12 C1B        41.0370   -4.7220  -26.8140 C.3       1 FAD301      0.0000 
     13 N9A        41.2230   -6.1710  -27.1060 N.pl3     1 FAD301      0.0000 
     14 C8A        40.3580   -7.1060  -26.6780 C.2       1 FAD301      0.0000 
     15 N7A        40.7130   -8.3350  -27.1000 N.2       1 FAD301      0.0000 
     16 C5A        41.8080   -8.1820  -27.8470 C.ar      1 FAD301      0.0000 
     17 C6A        42.6560   -9.1180  -28.5980 C.ar      1 FAD301      0.0000 
     18 N6A        42.3150  -10.4360  -28.5660 N.pl3     1 FAD301      0.0000 
     19 N1A        43.7330   -8.6080  -29.2510 N.ar      1 FAD301      0.0000 
     20 C2A        43.9920   -7.2860  -29.2230 C.ar      1 FAD301      0.0000 
     21 N3A        43.2400   -6.3820  -28.5640 N.ar      1 FAD301      0.0000 
     22 C4A        42.1540   -6.7630  -27.8550 C.ar      1 FAD301      0.0000 
     23 N1         42.9120    0.2010  -12.6310 N.2       1 FAD301      0.0000 
     24 C2         43.9630    0.7660  -11.9690 C.2       1 FAD301      0.0000 
     25 O2         44.9130    1.2680  -12.6100 O.2       1 FAD301      0.0000 
     26 N3         44.0480    0.8100  -10.6300 N.am      1 FAD301      0.0000 
     27 C4         43.0990    0.2990   -9.8460 C.2       1 FAD301      0.0000 
     28 O4         43.1980    0.3440   -8.6020 O.2       1 FAD301      0.0000 
     29 C4X        41.9150   -0.3230  -10.4730 C.2       1 FAD301      0.0000 
     30 N5         40.9210   -0.8420   -9.7300 N.2       1 FAD301      0.0000 
     31 C5X        39.8310   -1.4060  -10.2970 C.ar      1 FAD301      0.0000 
     32 C6         38.8450   -1.9270   -9.4780 C.ar      1 FAD301      0.0000 
     33 C7         37.7340   -2.5360  -10.0120 C.ar      1 FAD301      0.0000 
     34 C7M        36.6590   -3.0980   -9.1090 C.3       1 FAD301      0.0000 
     35 C8         37.5920   -2.6230  -11.4840 C.ar      1 FAD301      0.0000 
     36 C8M        36.3600   -3.2820  -12.0430 C.3       1 FAD301      0.0000 
     37 C9         38.5760   -2.1020  -12.3160 C.ar      1 FAD301      0.0000 
     38 C9A        39.7060   -1.4920  -11.7770 C.ar      1 FAD301      0.0000 
     39 N10        40.7500   -0.9450  -12.5790 N.pl3     1 FAD301      0.0000 
     40 C10        41.8670   -0.3410  -11.9510 C.2       1 FAD301      0.0000 
     41 C1'        40.6990   -0.9710  -14.0350 C.3       1 FAD301      0.0000 
     42 C2'        41.0230   -2.3410  -14.6300 C.3       1 FAD301      0.0000 
     43 O2'        42.3600   -2.7930  -14.3420 O.3       1 FAD301      0.0000 
     44 C3'        40.8340   -2.2160  -16.1340 C.3       1 FAD301      0.0000 
     45 O3'        39.4420   -2.2200  -16.4460 O.3       1 FAD301      0.0000 
     46 C4'        41.5000   -3.3950  -16.7990 C.3       1 FAD301      0.0000 
     47 O4'        42.8960   -3.3400  -16.5090 O.3       1 FAD301      0.0000 
     48 C5'        41.2550   -3.3900  -18.3040 C.3       1 FAD301      0.0000 
     49 O5'        41.7260   -4.6490  -18.7880 O.3       1 FAD301      0.0000 
     50 P          40.7510   -5.4950  -19.7160 P.3       1 FAD301      0.0000 
     51 O1P        41.4550   -6.7180  -20.2640 O.co2     1 FAD301      0.0000 
     52 O2P        39.4670   -5.6140  -18.9330 O.co2     1 FAD301      0.0000 
     53 O3P        40.5950   -4.3530  -20.8580 O.3       1 FAD301      0.0000 
@<TRIPOS>BOND
     1    1    2 ar   
     2    1    3 ar   
     3    1    4 1    
     4    1   53 1    
     5    4    5 1    
     6    5    6 1    
     7    6    7 1    
     8    6    8 1    
     9    7   12 1    
    10    8    9 1    
    11    8   10 1    
    12   10   11 1    
    13   10   12 1    
    14   12   13 1    
    15   13   14 1    
    16   13   22 1    
    17   14   15 2    
    18   15   16 1    
    19   16   17 ar   
    20   16   22 ar   
    21   17   18 1    
    22   17   19 ar   
    23   19   20 ar   
    24   20   21 ar   
    25   21   22 ar   
    26   23   24 1    
    27   23   40 2    
    28   24   25 2    
    29   24   26 am   
    30   26   27 am   
    31   27   28 2    
    32   27   29 1    
    33   29   30 2    
    34   29   40 1    
    35   30   31 1    
    36   31   32 ar   
    37   31   38 ar   
    38   32   33 ar   
    39   33   34 1    
    40   33   35 ar   
    41   35   36 1    
    42   35   37 ar   
    43   37   38 ar   
    44   38   39 1    
    45   39   40 1    
    46   39   41 1    
    47   41   42 1    
    48   42   43 1    
    49   42   44 1    
    50   44   45 1    
    51   44   46 1    
    52   46   47 1    
    53   46   48 1    
    54   48   49 1    
    55   49   50 1    
    56   50   51 ar   
    57   50   52 ar   
    58   50   53 1    
@<TRIPOS>SUBSTRUCTURE
     1 FAD301      1 GROUP   
@<TRIPOS>SET
ATOM$ORANGE STATIC     ATOMS   COLORGROUP SYSTEM 
54 5 5 6 6 8 8 10 10 12 12 14 14 16 16 17 17 20 \
20 22 22 24 24 27 27 29 29 31 31 32 32 33 33 34 34 35 \
35 36 36 37 37 38 38 40 40 41 41 42 42 44 44 46 46 48 \
48 

