#    Name: 6fy4_1_FAD
#    Modification time : Fri May 22 19:30:13 2020

@<TRIPOS>MOLECULE
6fy4_1_FAD
   53    58     1     0     1
SMALL
NO_CHARGES


@<TRIPOS>ATOM
      1 PA         19.9750  -32.1030  -18.2210 P.3       1 FAD301      0.0000 
      2 O1A        20.6340  -33.4070  -18.5850 O.co2     1 FAD301      0.0000 
      3 O2A        20.8440  -31.0220  -17.6360 O.co2     1 FAD301      0.0000 
      4 O5B        19.1380  -31.5150  -19.4570 O.3       1 FAD301      0.0000 
      5 C5B        18.5000  -32.3870  -20.3840 C.3       1 FAD301      0.0000 
      6 C4B        18.9350  -31.9870  -21.7890 C.3       1 FAD301      0.0000 
      7 O4B        18.5270  -30.6400  -22.0770 O.3       1 FAD301      0.0000 
      8 C3B        20.4520  -32.0380  -21.9420 C.3       1 FAD301      0.0000 
      9 O3B        20.7300  -32.6510  -23.1960 O.3       1 FAD301      0.0000 
     10 C2B        20.9110  -30.5940  -22.0150 C.3       1 FAD301      0.0000 
     11 O2B        22.0560  -30.4290  -22.8660 O.3       1 FAD301      0.0000 
     12 C1B        19.6690  -29.9920  -22.6350 C.3       1 FAD301      0.0000 
     13 N9A        19.6500  -28.5300  -22.6230 N.pl3     1 FAD301      0.0000 
     14 C8A        20.4030  -27.6460  -21.9460 C.2       1 FAD301      0.0000 
     15 N7A        20.0790  -26.3580  -22.2860 N.2       1 FAD301      0.0000 
     16 C5A        19.1070  -26.4450  -23.2310 C.ar      1 FAD301      0.0000 
     17 C6A        18.2960  -25.5290  -24.0740 C.ar      1 FAD301      0.0000 
     18 N6A        18.4110  -24.1840  -24.0030 N.pl3     1 FAD301      0.0000 
     19 N1A        17.4160  -26.0790  -24.9250 N.ar      1 FAD301      0.0000 
     20 C2A        17.2430  -27.3970  -25.0570 C.ar      1 FAD301      0.0000 
     21 N3A        17.9340  -28.2810  -24.3380 N.ar      1 FAD301      0.0000 
     22 C4A        18.8510  -27.8770  -23.4390 C.ar      1 FAD301      0.0000 
     23 N1         14.1070  -38.3820  -11.0660 N.2       1 FAD301      0.0000 
     24 C2         12.8830  -38.8590  -10.7610 C.2       1 FAD301      0.0000 
     25 O2         12.0520  -38.9490  -11.6760 O.2       1 FAD301      0.0000 
     26 N3         12.5000  -39.2360   -9.5440 N.am      1 FAD301      0.0000 
     27 C4         13.3700  -39.1540   -8.5330 C.2       1 FAD301      0.0000 
     28 O4         13.0220  -39.5160   -7.3840 O.2       1 FAD301      0.0000 
     29 C4X        14.7510  -38.6480   -8.7750 C.2       1 FAD301      0.0000 
     30 N5         15.6810  -38.5550   -7.8130 N.2       1 FAD301      0.0000 
     31 C5X        16.8970  -38.0110   -8.0660 C.ar      1 FAD301      0.0000 
     32 C6         17.8110  -37.8240   -7.0260 C.ar      1 FAD301      0.0000 
     33 C7         19.0470  -37.2430   -7.2790 C.ar      1 FAD301      0.0000 
     34 C7M        20.0520  -37.0270   -6.1790 C.3       1 FAD301      0.0000 
     35 C8         19.3980  -36.8110   -8.6580 C.ar      1 FAD301      0.0000 
     36 C8M        20.7370  -36.1810   -8.8880 C.3       1 FAD301      0.0000 
     37 C9         18.4970  -36.9900   -9.7110 C.ar      1 FAD301      0.0000 
     38 C9A        17.2550  -37.5790   -9.4490 C.ar      1 FAD301      0.0000 
     39 N10        16.3200  -37.7720  -10.4630 N.pl3     1 FAD301      0.0000 
     40 C10        15.0640  -38.2660  -10.1390 C.2       1 FAD301      0.0000 
     41 C1'        16.5910  -37.3840  -11.8500 C.3       1 FAD301      0.0000 
     42 C2'        16.4050  -35.8770  -12.0480 C.3       1 FAD301      0.0000 
     43 O2'        15.0250  -35.4780  -12.1040 O.3       1 FAD301      0.0000 
     44 C3'        17.1300  -35.4460  -13.3160 C.3       1 FAD301      0.0000 
     45 O3'        18.5600  -35.5080  -13.1400 O.3       1 FAD301      0.0000 
     46 C4'        16.7440  -34.0230  -13.6550 C.3       1 FAD301      0.0000 
     47 O4'        15.3220  -33.9860  -13.7290 O.3       1 FAD301      0.0000 
     48 C5'        17.3480  -33.7170  -15.0010 C.3       1 FAD301      0.0000 
     49 O5'        17.2890  -32.3390  -15.3160 O.3       1 FAD301      0.0000 
     50 P          18.6730  -31.6740  -15.7870 P.3       1 FAD301      0.0000 
     51 O1P        18.4190  -30.1960  -15.9860 O.co2     1 FAD301      0.0000 
     52 O2P        19.8150  -32.2070  -14.9390 O.co2     1 FAD301      0.0000 
     53 O3P        18.7730  -32.4140  -17.2120 O.3       1 FAD301      0.0000 
@<TRIPOS>BOND
     1    1    2 ar   
     2    1    3 ar   
     3    1    4 1    
     4    1   53 1    
     5    4    5 1    
     6    5    6 1    
     7    6    7 1    
     8    6    8 1    
     9    7   12 1    
    10    8    9 1    
    11    8   10 1    
    12   10   11 1    
    13   10   12 1    
    14   12   13 1    
    15   13   14 1    
    16   13   22 1    
    17   14   15 2    
    18   15   16 1    
    19   16   17 ar   
    20   16   22 ar   
    21   17   18 1    
    22   17   19 ar   
    23   19   20 ar   
    24   20   21 ar   
    25   21   22 ar   
    26   23   24 1    
    27   23   40 2    
    28   24   25 2    
    29   24   26 am   
    30   26   27 am   
    31   27   28 2    
    32   27   29 1    
    33   29   30 2    
    34   29   40 1    
    35   30   31 1    
    36   31   32 ar   
    37   31   38 ar   
    38   32   33 ar   
    39   33   34 1    
    40   33   35 ar   
    41   35   36 1    
    42   35   37 ar   
    43   37   38 ar   
    44   38   39 1    
    45   39   40 1    
    46   39   41 1    
    47   41   42 1    
    48   42   43 1    
    49   42   44 1    
    50   44   45 1    
    51   44   46 1    
    52   46   47 1    
    53   46   48 1    
    54   48   49 1    
    55   49   50 1    
    56   50   51 ar   
    57   50   52 ar   
    58   50   53 1    
@<TRIPOS>SUBSTRUCTURE
     1 FAD301      1 GROUP   
@<TRIPOS>SET
ATOM$ORANGE STATIC     ATOMS   COLORGROUP SYSTEM 
54 5 5 6 6 8 8 10 10 12 12 14 14 16 16 17 17 20 \
20 22 22 24 24 27 27 29 29 31 31 32 32 33 33 34 34 35 \
35 36 36 37 37 38 38 40 40 41 41 42 42 44 44 46 46 48 \
48 

