#    Name: 6fy4_3_FAD
#    Modification time : Fri May 22 19:30:32 2020

@<TRIPOS>MOLECULE
6fy4_3_FAD
   53    58     1     0     1
SMALL
NO_CHARGES


@<TRIPOS>ATOM
      1 PA         41.0560  -16.1780   17.4650 P.3       1 FAD301      0.0000 
      2 O1A        42.2200  -16.8600   16.7670 O.co2     1 FAD301      0.0000 
      3 O2A        39.6530  -16.7440   17.5470 O.co2     1 FAD301      0.0000 
      4 O5B        41.5190  -16.0300   18.9970 O.3       1 FAD301      0.0000 
      5 C5B        41.6620  -14.7760   19.6510 C.3       1 FAD301      0.0000 
      6 C4B        41.7280  -15.0740   21.1300 C.3       1 FAD301      0.0000 
      7 O4B        40.7490  -14.3240   21.8470 O.3       1 FAD301      0.0000 
      8 C3B        41.3680  -16.5210   21.3210 C.3       1 FAD301      0.0000 
      9 O3B        42.2380  -17.0120   22.3450 O.3       1 FAD301      0.0000 
     10 C2B        39.8950  -16.4960   21.6950 C.3       1 FAD301      0.0000 
     11 O2B        39.5290  -17.6670   22.4300 O.3       1 FAD301      0.0000 
     12 C1B        39.8050  -15.2010   22.4900 C.3       1 FAD301      0.0000 
     13 N9A        38.4840  -14.5030   22.5860 N.pl3     1 FAD301      0.0000 
     14 C8A        37.4700  -14.4750   21.6990 C.2       1 FAD301      0.0000 
     15 N7A        36.4400  -13.6960   22.1410 N.2       1 FAD301      0.0000 
     16 C5A        36.7850  -13.1900   23.3470 C.ar      1 FAD301      0.0000 
     17 C6A        36.1730  -12.2930   24.3820 C.ar      1 FAD301      0.0000 
     18 N6A        34.9340  -11.7280   24.2610 N.pl3     1 FAD301      0.0000 
     19 N1A        36.9170  -12.0540   25.4900 N.ar      1 FAD301      0.0000 
     20 C2A        38.1460  -12.5740   25.6750 C.ar      1 FAD301      0.0000 
     21 N3A        38.7570  -13.3860   24.7920 N.ar      1 FAD301      0.0000 
     22 C4A        38.1380  -13.7280   23.6270 C.ar      1 FAD301      0.0000 
     23 N1         48.1630  -13.6880   10.0070 N.2       1 FAD301      0.0000 
     24 C2         49.0880  -12.7900    9.6350 C.2       1 FAD301      0.0000 
     25 O2         49.6080  -12.1290   10.5520 O.2       1 FAD301      0.0000 
     26 N3         49.4600  -12.5830    8.3530 N.am      1 FAD301      0.0000 
     27 C4         48.9260  -13.2640    7.3420 C.2       1 FAD301      0.0000 
     28 O4         49.2600  -13.0610    6.1570 O.2       1 FAD301      0.0000 
     29 C4X        47.9000  -14.2730    7.6550 C.2       1 FAD301      0.0000 
     30 N5         47.3180  -15.0110    6.6940 N.2       1 FAD301      0.0000 
     31 C5X        46.2200  -15.7270    7.0090 C.ar      1 FAD301      0.0000 
     32 C6         45.4560  -16.2860    5.9890 C.ar      1 FAD301      0.0000 
     33 C7         44.3180  -17.0150    6.3040 C.ar      1 FAD301      0.0000 
     34 C7M        43.4810  -17.6140    5.2140 C.3       1 FAD301      0.0000 
     35 C8         43.8990  -17.2010    7.7170 C.ar      1 FAD301      0.0000 
     36 C8M        42.6530  -17.9930    8.0530 C.3       1 FAD301      0.0000 
     37 C9         44.6680  -16.6500    8.7270 C.ar      1 FAD301      0.0000 
     38 C9A        45.8140  -15.9200    8.4330 C.ar      1 FAD301      0.0000 
     39 N10        46.5980  -15.3610    9.4730 N.pl3     1 FAD301      0.0000 
     40 C10        47.5550  -14.4370    9.0830 C.2       1 FAD301      0.0000 
     41 C1'        46.2840  -15.4990   10.9080 C.3       1 FAD301      0.0000 
     42 C2'        45.2280  -14.4780   11.3300 C.3       1 FAD301      0.0000 
     43 O2'        45.8220  -13.1720   11.4130 O.3       1 FAD301      0.0000 
     44 C3'        44.6030  -14.9010   12.6600 C.3       1 FAD301      0.0000 
     45 O3'        44.1680  -16.2500   12.4620 O.3       1 FAD301      0.0000 
     46 C4'        43.4360  -14.0230   13.1320 C.3       1 FAD301      0.0000 
     47 O4'        43.8280  -12.6680   13.3200 O.3       1 FAD301      0.0000 
     48 C5'        42.9290  -14.4450   14.4950 C.3       1 FAD301      0.0000 
     49 O5'        41.8860  -13.5520   14.9040 O.3       1 FAD301      0.0000 
     50 P          40.5410  -14.2330   15.4710 P.3       1 FAD301      0.0000 
     51 O1P        39.4030  -13.2430   15.5730 O.co2     1 FAD301      0.0000 
     52 O2P        40.3840  -15.4850   14.6510 O.co2     1 FAD301      0.0000 
     53 O3P        40.9750  -14.6450   16.9660 O.3       1 FAD301      0.0000 
@<TRIPOS>BOND
     1    1    2 ar   
     2    1    3 ar   
     3    1    4 1    
     4    1   53 1    
     5    4    5 1    
     6    5    6 1    
     7    6    7 1    
     8    6    8 1    
     9    7   12 1    
    10    8    9 1    
    11    8   10 1    
    12   10   11 1    
    13   10   12 1    
    14   12   13 1    
    15   13   14 1    
    16   13   22 1    
    17   14   15 2    
    18   15   16 1    
    19   16   17 ar   
    20   16   22 ar   
    21   17   18 1    
    22   17   19 ar   
    23   19   20 ar   
    24   20   21 ar   
    25   21   22 ar   
    26   23   24 1    
    27   23   40 2    
    28   24   25 2    
    29   24   26 am   
    30   26   27 am   
    31   27   28 2    
    32   27   29 1    
    33   29   30 2    
    34   29   40 1    
    35   30   31 1    
    36   31   32 ar   
    37   31   38 ar   
    38   32   33 ar   
    39   33   34 1    
    40   33   35 ar   
    41   35   36 1    
    42   35   37 ar   
    43   37   38 ar   
    44   38   39 1    
    45   39   40 1    
    46   39   41 1    
    47   41   42 1    
    48   42   43 1    
    49   42   44 1    
    50   44   45 1    
    51   44   46 1    
    52   46   47 1    
    53   46   48 1    
    54   48   49 1    
    55   49   50 1    
    56   50   51 ar   
    57   50   52 ar   
    58   50   53 1    
@<TRIPOS>SUBSTRUCTURE
     1 FAD301      1 GROUP   
@<TRIPOS>SET
ATOM$ORANGE STATIC     ATOMS   COLORGROUP SYSTEM 
54 5 5 6 6 8 8 10 10 12 12 14 14 16 16 17 17 20 \
20 22 22 24 24 27 27 29 29 31 31 32 32 33 33 34 34 35 \
35 36 36 37 37 38 38 40 40 41 41 42 42 44 44 46 46 48 \
48 

