#    Name: 6ijx_1_JMS_CAVITY_N1_4
#    Modification time : Fri May 22 19:30:28 2020

@<TRIPOS>MOLECULE
6ijx_1_JMS_CAVITY_N1_4
   61     0     4     0     0
SMALL
NO_CHARGES


@<TRIPOS>ATOM
      1 OG          5.3700   -0.0900   53.5000 O.3       1 SER1        0.0000 
      2 OG          3.8500    1.3800   53.3100 O.3       1 SER1        0.0000 
      3 OG          2.7000    0.3900   54.7900 O.3       1 SER1        0.0000 
      4 OG          1.5600   -0.5900   56.2800 O.3       1 SER1        0.0000 
      5 OG          1.3700    0.6300   55.4400 O.3       1 SER1        0.0000 
      6 OG          6.4000   -1.7200   56.2500 O.3       1 SER1        0.0000 
      7 OG          7.2500   -2.1200   58.1500 O.3       1 SER1        0.0000 
      8 CZ          0.8900   -1.4200   55.2200 C.ar      2 PHE5        0.0000 
      9 CZ          5.5500   -1.3200   54.3500 C.ar      2 PHE5        0.0000 
     10 CZ          4.2200   -1.0800   54.9900 C.ar      2 PHE5        0.0000 
     11 CZ          2.8900   -0.8400   55.6300 C.ar      2 PHE5        0.0000 
     12 CZ          0.2200   -0.3500   56.9200 C.ar      2 PHE5        0.0000 
     13 CZ          0.0400    0.8800   56.0800 C.ar      2 PHE5        0.0000 
     14 CZ         -1.1100   -0.1100   57.5700 C.ar      2 PHE5        0.0000 
     15 CZ          3.3700    1.2200   55.8500 C.ar      2 PHE5        0.0000 
     16 CZ          3.1800    2.4500   55.0100 C.ar      2 PHE5        0.0000 
     17 CZ          2.2200    0.2300   57.3400 C.ar      2 PHE5        0.0000 
     18 CZ          0.8900    0.4800   57.9800 C.ar      2 PHE5        0.0000 
     19 CZ         -0.4500    0.7200   58.6300 C.ar      2 PHE5        0.0000 
     20 CZ          5.9200   -1.8800   58.8000 C.ar      2 PHE5        0.0000 
     21 CZ          4.2200    0.8200   57.7600 C.ar      2 PHE5        0.0000 
     22 CZ          4.0300    2.0500   56.9100 C.ar      2 PHE5        0.0000 
     23 CZ          3.2500   -1.3900   60.0800 C.ar      2 PHE5        0.0000 
     24 CZ          3.0700   -0.1700   59.2400 C.ar      2 PHE5        0.0000 
     25 CZ          2.8800    1.0600   58.4000 C.ar      2 PHE5        0.0000 
     26 CZ          7.9100   -1.2900   59.2100 C.ar      2 PHE5        0.0000 
     27 CZ          6.5800   -1.0500   59.8600 C.ar      2 PHE5        0.0000 
     28 CZ          3.9100   -0.5700   61.1500 C.ar      2 PHE5        0.0000 
     29 CZ          3.7300    0.6600   60.3000 C.ar      2 PHE5        0.0000 
     30 CZ          2.4000    0.9000   60.9500 C.ar      2 PHE5        0.0000 
     31 CZ          7.2400   -0.2200   60.9200 C.ar      2 PHE5        0.0000 
     32 CZ          5.9100    0.0200   61.5600 C.ar      2 PHE5        0.0000 
     33 CZ          4.5800    0.2600   62.2100 C.ar      2 PHE5        0.0000 
     34 CA          4.4100   -2.3100   55.8300 C.3       3 GLY6        0.0000 
     35 CA          1.7400   -1.8200   57.1200 C.3       3 GLY6        0.0000 
     36 CA          0.4100   -1.5800   57.7600 C.3       3 GLY6        0.0000 
     37 CA         -0.9300   -1.3400   58.4100 C.3       3 GLY6        0.0000 
     38 CA          6.2200   -0.4900   55.4100 C.3       3 GLY6        0.0000 
     39 CA          6.0300    0.7400   54.5600 C.3       3 GLY6        0.0000 
     40 CA          5.0700   -1.4800   56.8900 C.3       3 GLY6        0.0000 
     41 CA          4.7000    0.9800   55.2100 C.3       3 GLY6        0.0000 
     42 CA          4.5200    2.2100   54.3700 C.3       3 GLY6        0.0000 
     43 CA          3.7400   -1.2400   57.5400 C.3       3 GLY6        0.0000 
     44 CA          2.4000   -0.9900   58.1800 C.3       3 GLY6        0.0000 
     45 CA          1.2500   -1.9800   59.6700 C.3       3 GLY6        0.0000 
     46 CA          1.0700   -0.7500   58.8300 C.3       3 GLY6        0.0000 
     47 CA          7.0600   -0.8900   57.3100 C.3       3 GLY6        0.0000 
     48 CA          6.8800    0.3400   56.4700 C.3       3 GLY6        0.0000 
     49 CA          5.7300   -0.6500   57.9500 C.3       3 GLY6        0.0000 
     50 CA          5.5500    0.5800   57.1100 C.3       3 GLY6        0.0000 
     51 CA          5.3600    1.8000   56.2700 C.3       3 GLY6        0.0000 
     52 CA          4.4000   -0.4100   58.6000 C.3       3 GLY6        0.0000 
     53 CA          1.9200   -1.1500   60.7300 C.3       3 GLY6        0.0000 
     54 CA          1.7300    0.0800   59.8900 C.3       3 GLY6        0.0000 
     55 CA          6.3900    0.1800   59.0200 C.3       3 GLY6        0.0000 
     56 CA          5.0600    0.4200   59.6600 C.3       3 GLY6        0.0000 
     57 CA          2.5800   -0.3200   61.7900 C.3       3 GLY6        0.0000 
     58 CA          5.7300    1.2500   60.7200 C.3       3 GLY6        0.0000 
     59 CA          4.3900    1.4900   61.3600 C.3       3 GLY6        0.0000 
     60 DU          4.8800   -0.2500   56.0500 H         4 CUB7        0.0000 
     61 DU          3.5500   -0.0100   56.7000 H         4 CUB7        0.0000 
@<TRIPOS>BOND
@<TRIPOS>SUBSTRUCTURE
     1 SER1        1 GROUP   
     2 PHE5        8 GROUP   
     3 GLY6       34 GROUP   
     4 CUB7       60 GROUP   
@<TRIPOS>SET

