#    Name: 6ijx_1_JMS
#    Modification time : Fri May 22 19:30:26 2020

@<TRIPOS>MOLECULE
6ijx_1_JMS
   30    31     1     0     0
SMALL
NO_CHARGES


@<TRIPOS>ATOM
      1 OXT         6.7200   -2.7280   55.8440 O.co2     1 JMS402      0.0000 
      2 C7          6.1930   -2.2610   54.7520 C.2       1 JMS402      0.0000 
      3 OH          6.3760   -2.7730   53.6590 O.co2     1 JMS402      0.0000 
      4 C1          5.3840   -1.0120   54.9120 C.ar      1 JMS402      0.0000 
      5 C6          4.9860   -0.3330   53.7620 C.ar      1 JMS402      0.0000 
      6 C5          4.4410    0.9350   53.8570 C.ar      1 JMS402      0.0000 
      7 C4          4.2820    1.5360   55.0840 C.ar      1 JMS402      0.0000 
      8 C3          4.6490    0.8730   56.2410 C.ar      1 JMS402      0.0000 
      9 C2          5.1880   -0.4120   56.1730 C.ar      1 JMS402      0.0000 
     10 N           5.4460   -1.1380   57.3290 N.pl3     1 JMS402      0.0000 
     11 C1B         5.3870   -0.6340   58.6500 C.ar      1 JMS402      0.0000 
     12 C2B         4.2150   -0.1500   59.2470 C.ar      1 JMS402      0.0000 
     13 CL1         2.7290   -0.2270   58.3720 Cl        1 JMS402      0.0000 
     14 C3B         4.1800    0.3590   60.5510 C.ar      1 JMS402      0.0000 
     15 C7B         2.9330    0.9370   61.1580 C.3       1 JMS402      0.0000 
     16 C4B         5.3560    0.3450   61.2850 C.ar      1 JMS402      0.0000 
     17 C5B         6.5240   -0.1410   60.7420 C.ar      1 JMS402      0.0000 
     18 C6B         6.5310   -0.6160   59.4430 C.ar      1 JMS402      0.0000 
     19 CL2         8.0070   -1.2380   58.7900 Cl        1 JMS402      0.0000 
     20 H1          7.2450   -3.5530   55.6680 H         1 JMS402      0.0000 
     21 H2          5.0970   -0.7850   52.7780 H         1 JMS402      0.0000 
     22 H3          4.1360    1.4600   52.9530 H         1 JMS402      0.0000 
     23 H4          3.8660    2.5410   55.1510 H         1 JMS402      0.0000 
     24 H5          4.5110    1.3670   57.2020 H         1 JMS402      0.0000 
     25 H6          5.7000   -2.1160   57.2350 H         1 JMS402      0.0000 
     26 H7          2.0530    0.3970   60.8130 H         1 JMS402      0.0000 
     27 H8          2.9700    0.8730   62.2440 H         1 JMS402      0.0000 
     28 H9          2.8220    1.9840   60.8810 H         1 JMS402      0.0000 
     29 H10         5.3630    0.7230   62.3060 H         1 JMS402      0.0000 
     30 H11         7.4450   -0.1570   61.3230 H         1 JMS402      0.0000 
@<TRIPOS>BOND
     1    1    2 ar   
     2    1   20 1    
     3    2    3 ar   
     4    2    4 1    
     5    4    5 ar   
     6    4    9 ar   
     7    5    6 ar   
     8    5   21 1    
     9    6    7 ar   
    10    6   22 1    
    11    7    8 ar   
    12    7   23 1    
    13    8    9 ar   
    14    8   24 1    
    15    9   10 1    
    16   10   11 1    
    17   10   25 1    
    18   11   12 ar   
    19   11   18 ar   
    20   12   13 1    
    21   12   14 ar   
    22   14   15 1    
    23   14   16 ar   
    24   15   26 1    
    25   15   27 1    
    26   15   28 1    
    27   16   17 ar   
    28   16   29 1    
    29   17   18 ar   
    30   17   30 1    
    31   18   19 1    
@<TRIPOS>SUBSTRUCTURE
     1 JMS402      1 GROUP   
@<TRIPOS>SET

