#    Name: 6rgi_1_IMD
#    Modification time : Fri May 22 19:24:25 2020

@<TRIPOS>MOLECULE
6rgi_1_IMD
    5     5     1     0     0
SMALL
NO_CHARGES


@<TRIPOS>ATOM
      1 N1        -27.2760   -5.4900    0.7290 N.pl3     1 IMD203      0.0000 
      2 C2        -28.4140   -4.8430    0.5950 C.2       1 IMD203      0.0000 
      3 N3        -29.1770   -5.5080   -0.2460 N.2       1 IMD203      0.0000 
      4 C4        -28.5060   -6.6180   -0.6610 C.2       1 IMD203      0.0000 
      5 C5        -27.3140   -6.6060   -0.0520 C.2       1 IMD203      0.0000 
@<TRIPOS>BOND
     1    1    2 1    
     2    1    5 1    
     3    2    3 2    
     4    3    4 1    
     5    4    5 2    
@<TRIPOS>SUBSTRUCTURE
     1 IMD203      1 GROUP   
@<TRIPOS>SET

