#    Name: 6rgi_1_IMD_CAVITY_N1_4
#    Modification time : Fri May 22 19:24:25 2020

@<TRIPOS>MOLECULE
6rgi_1_IMD_CAVITY_N1_4
   26     0     3     0     0
SMALL
NO_CHARGES


@<TRIPOS>ATOM
      1 OG        -31.3800   -6.5200   -2.8400 O.3       1 SER1        0.0000 
      2 OG        -30.7700   -5.7100   -1.7500 O.3       1 SER1        0.0000 
      3 OG        -31.9100   -6.7700   -0.3100 O.3       1 SER1        0.0000 
      4 OG        -28.8000   -5.0800   -1.2700 O.3       1 SER1        0.0000 
      5 OG        -29.0000   -3.8300   -2.0800 O.3       1 SER1        0.0000 
      6 OG        -29.2100   -2.5900   -2.8900 O.3       1 SER1        0.0000 
      7 OG        -30.1500   -4.9000   -0.6500 O.3       1 SER1        0.0000 
      8 OG        -30.3500   -3.6500   -1.4600 O.3       1 SER1        0.0000 
      9 OG        -28.5900   -1.7700   -1.7900 O.3       1 SER1        0.0000 
     10 OG        -29.3300   -5.3300    1.2600 O.3       1 SER1        0.0000 
     11 OG        -29.5300   -4.0800    0.4500 O.3       1 SER1        0.0000 
     12 OG        -29.7300   -2.8400   -0.3600 O.3       1 SER1        0.0000 
     13 OG        -30.6800   -5.1500    1.8800 O.3       1 SER1        0.0000 
     14 OG        -30.8800   -3.9000    1.0700 O.3       1 SER1        0.0000 
     15 OG        -31.0900   -2.6500    0.2700 O.3       1 SER1        0.0000 
     16 OG        -27.7700   -2.2100    0.1100 O.3       1 SER1        0.0000 
     17 OG        -30.4700   -1.8400    1.3600 O.3       1 SER1        0.0000 
     18 CZ        -29.4200   -5.8900   -2.3700 C.ar      2 PHE5        0.0000 
     19 CZ        -29.6200   -4.6500   -3.1800 C.ar      2 PHE5        0.0000 
     20 CZ        -29.9400   -6.1400    0.1600 C.ar      2 PHE5        0.0000 
     21 CZ        -30.5600   -2.4000   -2.2700 C.ar      2 PHE5        0.0000 
     22 CZ        -32.6500   -5.7800    1.4100 C.ar      2 PHE5        0.0000 
     23 CA        -30.0300   -6.7100   -3.4700 C.3       3 GLY6        0.0000 
     24 CA        -31.1800   -7.7700   -2.0400 C.3       3 GLY6        0.0000 
     25 CA        -30.5600   -6.9600   -0.9400 C.3       3 GLY6        0.0000 
     26 CA        -31.3000   -5.9600    0.7900 C.3       3 GLY6        0.0000 
@<TRIPOS>BOND
@<TRIPOS>SUBSTRUCTURE
     1 SER1        1 GROUP   
     2 PHE5       18 GROUP   
     3 GLY6       23 GROUP   
@<TRIPOS>SET

