#    Name: 6fz3_2_MYA
#    Modification time : Fri May 22 19:25:44 2020

@<TRIPOS>MOLECULE
6fz3_2_MYA
   63    65     1     0     0
SMALL
NO_CHARGES


@<TRIPOS>ATOM
      1 S1        -10.7490   11.0620   18.2690 S.3       1 MYA1001     0.0000 
      2 C2         -9.8940   11.0050   16.7190 C.3       1 MYA1001     0.0000 
      3 C3         -9.9680    9.5980   16.1520 C.3       1 MYA1001     0.0000 
      4 N4         -9.0770    9.4460   15.0030 N.am      1 MYA1001     0.0000 
      5 C5         -9.4890    9.5710   13.7240 C.2       1 MYA1001     0.0000 
      6 O5        -10.6470    9.8040   13.3960 O.2       1 MYA1001     0.0000 
      7 C6         -8.4150    9.5050   12.6670 C.3       1 MYA1001     0.0000 
      8 C7         -8.8850    8.7960   11.3810 C.3       1 MYA1001     0.0000 
      9 N8         -9.3170    7.4440   11.6440 N.am      1 MYA1001     0.0000 
     10 C9         -8.5000    6.4780   12.0490 C.2       1 MYA1001     0.0000 
     11 O9         -7.2890    6.6190   12.1910 O.2       1 MYA1001     0.0000 
     12 C10        -9.1730    5.1580   12.3590 C.3       1 MYA1001     0.0000 
     13 O10       -10.4390    5.1500   11.6920 O.3       1 MYA1001     0.0000 
     14 C11        -9.4270    4.9270   13.8640 C.3       1 MYA1001     0.0000 
     15 C12       -10.2380    3.6540   14.0360 C.3       1 MYA1001     0.0000 
     16 C13       -10.2350    6.0740   14.4710 C.3       1 MYA1001     0.0000 
     17 C14        -8.1080    4.7680   14.6250 C.3       1 MYA1001     0.0000 
     18 N1A       -12.8080    6.5860   19.3570 N.ar      1 MYA1001     0.0000 
     19 O1A        -9.4600   -0.7030   14.3340 O.co2     1 MYA1001     0.0000 
     20 P1A       -10.9280   -0.6640   13.9840 P.3       1 MYA1001     0.0000 
     21 C1X       -14.2660    2.0660   17.3340 C.3       1 MYA1001     0.0000 
     22 C2A       -13.0430    5.3980   19.9780 C.ar      1 MYA1001     0.0000 
     23 O2A       -11.5270   -1.7580   13.1200 O.co2     1 MYA1001     0.0000 
     24 P2A       -10.4210    1.6220   12.3150 P.3       1 MYA1001     0.0000 
     25 C2M        -9.6650   10.6120   19.4810 C.2       1 MYA1001     0.0000 
     26 O2M        -8.4520   10.6000   19.3140 O.2       1 MYA1001     0.0000 
     27 C2X       -15.4910    1.5860   16.5510 C.3       1 MYA1001     0.0000 
     28 O2X       -16.7150    2.1220   17.0880 O.3       1 MYA1001     0.0000 
     29 N3A       -13.4170    4.2740   19.3110 N.ar      1 MYA1001     0.0000 
     30 O3A       -11.3530    0.7210   13.2780 O.3       1 MYA1001     0.0000 
     31 C3M       -10.1760   10.1750   20.8370 C.3       1 MYA1001     0.0000 
     32 C3X       -15.3000    0.0880   16.7140 C.3       1 MYA1001     0.0000 
     33 O3X       -15.7450   -0.2980   18.0130 O.3       1 MYA1001     0.0000 
     34 P3X       -17.1080   -1.0880   18.2940 P.3       1 MYA1001     0.0000 
     35 C4A       -13.5800    4.3310   17.9450 C.ar      1 MYA1001     0.0000 
     36 O4A       -11.3210    2.5750   11.4970 O.co2     1 MYA1001     0.0000 
     37 C4M       -10.1190    8.6530   20.8710 C.3       1 MYA1001     0.0000 
     38 C4X       -13.7810   -0.0860   16.6400 C.3       1 MYA1001     0.0000 
     39 O4X       -13.1890    1.1580   17.0660 O.3       1 MYA1001     0.0000 
     40 C5A       -13.3490    5.5860   17.2120 C.ar      1 MYA1001     0.0000 
     41 O5A        -9.3860    0.7630   11.6470 O.co2     1 MYA1001     0.0000 
     42 C5M       -10.5840    8.1230   22.2270 C.3       1 MYA1001     0.0000 
     43 C5X       -13.2710   -0.4300   15.2380 C.3       1 MYA1001     0.0000 
     44 O5X       -11.8360   -0.5630   15.3060 O.3       1 MYA1001     0.0000 
     45 C6A       -12.9280    6.7440   18.0180 C.ar      1 MYA1001     0.0000 
     46 N6A       -12.7130    7.9160   17.4050 N.pl3     1 MYA1001     0.0000 
     47 O6A        -9.6200    2.5420   13.3770 O.3       1 MYA1001     0.0000 
     48 C6M       -10.3350    6.6220   22.3300 C.3       1 MYA1001     0.0000 
     49 N7A       -13.5840    5.3680   15.8950 N.2       1 MYA1001     0.0000 
     50 O7A       -18.1560   -0.3650   17.4850 O.co2     1 MYA1001     0.0000 
     51 C7M       -11.0100    6.0560   23.5800 C.3       1 MYA1001     0.0000 
     52 C8A       -13.9350    4.0660   15.7760 C.2       1 MYA1001     0.0000 
     53 O8A       -16.7580   -2.4790   17.8050 O.co2     1 MYA1001     0.0000 
     54 C8M       -10.1790    6.2950   24.8410 C.3       1 MYA1001     0.0000 
     55 N9A       -13.9250    3.4580   17.0010 N.pl3     1 MYA1001     0.0000 
     56 O9A       -17.2660   -0.9860   19.7920 O.co2     1 MYA1001     0.0000 
     57 C9M       -10.8390    5.6610   26.0680 C.3       1 MYA1001     0.0000 
     58 CAM       -10.1260    6.0900   27.3570 C.3       1 MYA1001     0.0000 
     59 CBM        -8.9210    5.1830   27.5790 C.3       1 MYA1001     0.0000 
     60 CCM        -8.0720    5.6070   28.7510 C.3       1 MYA1001     0.0000 
     61 CDM        -8.7100    5.1590   30.0570 C.3       1 MYA1001     0.0000 
     62 CEM        -7.8020    5.4440   31.2470 C.3       1 MYA1001     0.0000 
     63 CFM        -8.5220    5.0700   32.5180 C.3       1 MYA1001     0.0000 
@<TRIPOS>BOND
     1    1    2 1    
     2    1   25 1    
     3    2    3 1    
     4    3    4 1    
     5    4    5 am   
     6    5    6 2    
     7    5    7 1    
     8    7    8 1    
     9    8    9 1    
    10    9   10 am   
    11   10   11 2    
    12   10   12 1    
    13   12   13 1    
    14   12   14 1    
    15   14   15 1    
    16   14   16 1    
    17   14   17 1    
    18   15   47 1    
    19   18   22 ar   
    20   18   45 ar   
    21   19   20 ar   
    22   20   23 ar   
    23   20   30 1    
    24   20   44 1    
    25   21   27 1    
    26   21   39 1    
    27   21   55 1    
    28   22   29 ar   
    29   24   30 1    
    30   24   36 ar   
    31   24   41 ar   
    32   24   47 1    
    33   25   26 2    
    34   25   31 1    
    35   27   28 1    
    36   27   32 1    
    37   29   35 ar   
    38   31   37 1    
    39   32   33 1    
    40   32   38 1    
    41   33   34 1    
    42   34   50 ar   
    43   34   53 ar   
    44   34   56 ar   
    45   35   40 ar   
    46   35   55 1    
    47   37   42 1    
    48   38   39 1    
    49   38   43 1    
    50   40   45 ar   
    51   40   49 1    
    52   42   48 1    
    53   43   44 1    
    54   45   46 1    
    55   48   51 1    
    56   49   52 2    
    57   51   54 1    
    58   52   55 1    
    59   54   57 1    
    60   57   58 1    
    61   58   59 1    
    62   59   60 1    
    63   60   61 1    
    64   61   62 1    
    65   62   63 1    
@<TRIPOS>SUBSTRUCTURE
     1 MYA1001     1 GROUP   
@<TRIPOS>SET

