#    Name: 6fz3_1_MYA
#    Modification time : Fri May 22 19:25:36 2020

@<TRIPOS>MOLECULE
6fz3_1_MYA
   63    65     1     0     0
SMALL
NO_CHARGES


@<TRIPOS>ATOM
      1 S1         12.4660   16.9470   59.1280 S.3       1 MYA1001     0.0000 
      2 C2         14.2360   16.9410   59.1870 C.3       1 MYA1001     0.0000 
      3 C3         14.6950   18.3630   59.4730 C.3       1 MYA1001     0.0000 
      4 N4         16.1390   18.5210   59.3590 N.am      1 MYA1001     0.0000 
      5 C5         16.9890   18.4170   60.4040 C.2       1 MYA1001     0.0000 
      6 O5         16.6140   18.1940   61.5550 O.2       1 MYA1001     0.0000 
      7 C6         18.4690   18.5110   60.1040 C.3       1 MYA1001     0.0000 
      8 C7         19.2710   19.2720   61.1550 C.3       1 MYA1001     0.0000 
      9 N8         18.7820   20.6270   61.4090 N.am      1 MYA1001     0.0000 
     10 C9         18.8950   21.6000   60.4990 C.2       1 MYA1001     0.0000 
     11 O9         19.4590   21.4520   59.4260 O.2       1 MYA1001     0.0000 
     12 C10        18.2760   22.9350   60.8350 C.3       1 MYA1001     0.0000 
     13 O10        18.3670   23.1060   62.2510 O.3       1 MYA1001     0.0000 
     14 C11        16.8190   23.1320   60.3010 C.3       1 MYA1001     0.0000 
     15 C12        16.2220   24.3990   60.8870 C.3       1 MYA1001     0.0000 
     16 C13        15.8670   21.9860   60.6430 C.3       1 MYA1001     0.0000 
     17 C14        16.8700   23.2920   58.7940 C.3       1 MYA1001     0.0000 
     18 N1A        10.4800   21.4460   60.4560 N.ar      1 MYA1001     0.0000 
     19 O1A        16.3920   28.6480   60.0390 O.co2     1 MYA1001     0.0000 
     20 P1A        15.9480   28.7430   61.4810 P.3       1 MYA1001     0.0000 
     21 C1X        11.2940   25.9760   62.7210 C.3       1 MYA1001     0.0000 
     22 C2A         9.7520   22.5880   60.4280 C.ar      1 MYA1001     0.0000 
     23 O2A        16.3700   29.9520   62.3230 O.co2     1 MYA1001     0.0000 
     24 P2A        17.6340   26.4010   61.8640 P.3       1 MYA1001     0.0000 
     25 C2M        12.0950   17.4320   57.5320 C.2       1 MYA1001     0.0000 
     26 O2M        12.9340   17.4270   56.6670 O.2       1 MYA1001     0.0000 
     27 C2X        11.3660   26.5160   64.1380 C.3       1 MYA1001     0.0000 
     28 O2X        10.2470   26.0690   64.8930 O.3       1 MYA1001     0.0000 
     29 N3A        10.1020   23.7130   61.1060 N.ar      1 MYA1001     0.0000 
     30 O3A        16.4120   27.3980   62.2490 O.3       1 MYA1001     0.0000 
     31 C3M        10.7020   17.8920   57.1210 C.3       1 MYA1001     0.0000 
     32 C3X        11.3690   28.0060   63.8770 C.3       1 MYA1001     0.0000 
     33 O3X        10.0590   28.4550   63.5390 O.3       1 MYA1001     0.0000 
     34 P3X         9.1060   29.1910   64.5720 P.3       1 MYA1001     0.0000 
     35 C4A        11.2590   23.7280   61.8100 C.ar      1 MYA1001     0.0000 
     36 O4A        17.8340   25.5240   63.0830 O.co2     1 MYA1001     0.0000 
     37 C4M        10.6200   19.4280   57.1080 C.3       1 MYA1001     0.0000 
     38 C4X        12.2560   28.1100   62.6540 C.3       1 MYA1001     0.0000 
     39 O4X        12.0600   26.8720   61.9320 O.3       1 MYA1001     0.0000 
     40 C5A        12.1050   22.5210   61.8860 C.ar      1 MYA1001     0.0000 
     41 O5A        18.7980   27.1930   61.3370 O.co2     1 MYA1001     0.0000 
     42 C5M         9.1890   19.9580   57.1400 C.3       1 MYA1001     0.0000 
     43 C5X        13.7420   28.2830   62.9270 C.3       1 MYA1001     0.0000 
     44 O5X        14.3500   28.5330   61.6560 O.3       1 MYA1001     0.0000 
     45 C6A        11.6370   21.3490   61.1150 C.ar      1 MYA1001     0.0000 
     46 N6A        12.3430   20.2130   61.1110 N.pl3     1 MYA1001     0.0000 
     47 O6A        17.0990   25.4930   60.6530 O.3       1 MYA1001     0.0000 
     48 C6M         9.1070   21.4530   56.8490 C.3       1 MYA1001     0.0000 
     49 N7A        13.1670   22.8170   62.6670 N.2       1 MYA1001     0.0000 
     50 O7A         9.2180   28.3570   65.8160 O.co2     1 MYA1001     0.0000 
     51 C7M         7.6670   21.9660   56.8300 C.3       1 MYA1001     0.0000 
     52 C8A        13.0270   24.1140   63.0730 C.2       1 MYA1001     0.0000 
     53 O8A         9.7100   30.5460   64.6260 O.co2     1 MYA1001     0.0000 
     54 C8M         7.0400   21.8220   55.4480 C.3       1 MYA1001     0.0000 
     55 N9A        11.8710   24.6400   62.5610 N.pl3     1 MYA1001     0.0000 
     56 O9A         7.7080   29.1370   64.0100 O.co2     1 MYA1001     0.0000 
     57 C9M         5.6150   22.3370   55.3890 C.3       1 MYA1001     0.0000 
     58 CAM         4.9490   21.9360   54.0700 C.3       1 MYA1001     0.0000 
     59 CBM         5.4350   22.8110   52.9110 C.3       1 MYA1001     0.0000 
     60 CCM         4.7430   22.4750   51.5920 C.3       1 MYA1001     0.0000 
     61 CDM         3.2790   22.9010   51.5210 C.3       1 MYA1001     0.0000 
     62 CEM         2.6870   22.5510   50.1550 C.3       1 MYA1001     0.0000 
     63 CFM         1.1800   22.6340   50.1110 C.3       1 MYA1001     0.0000 
@<TRIPOS>BOND
     1    1    2 1    
     2    1   25 1    
     3    2    3 1    
     4    3    4 1    
     5    4    5 am   
     6    5    6 2    
     7    5    7 1    
     8    7    8 1    
     9    8    9 1    
    10    9   10 am   
    11   10   11 2    
    12   10   12 1    
    13   12   13 1    
    14   12   14 1    
    15   14   15 1    
    16   14   16 1    
    17   14   17 1    
    18   15   47 1    
    19   18   22 ar   
    20   18   45 ar   
    21   19   20 ar   
    22   20   23 ar   
    23   20   30 1    
    24   20   44 1    
    25   21   27 1    
    26   21   39 1    
    27   21   55 1    
    28   22   29 ar   
    29   24   30 1    
    30   24   36 ar   
    31   24   41 ar   
    32   24   47 1    
    33   25   26 2    
    34   25   31 1    
    35   27   28 1    
    36   27   32 1    
    37   29   35 ar   
    38   31   37 1    
    39   32   33 1    
    40   32   38 1    
    41   33   34 1    
    42   34   50 ar   
    43   34   53 ar   
    44   34   56 ar   
    45   35   40 ar   
    46   35   55 1    
    47   37   42 1    
    48   38   39 1    
    49   38   43 1    
    50   40   45 ar   
    51   40   49 1    
    52   42   48 1    
    53   43   44 1    
    54   45   46 1    
    55   48   51 1    
    56   49   52 2    
    57   51   54 1    
    58   52   55 1    
    59   54   57 1    
    60   57   58 1    
    61   58   59 1    
    62   59   60 1    
    63   60   61 1    
    64   61   62 1    
    65   62   63 1    
@<TRIPOS>SUBSTRUCTURE
     1 MYA1001     1 GROUP   
@<TRIPOS>SET

