#    Name: 5ub7_1_ATP
#    Modification time : Fri May 22 19:13:08 2020

@<TRIPOS>MOLECULE
5ub7_1_ATP
   13    12     1     0     0
SMALL
NO_CHARGES


@<TRIPOS>ATOM
      1 PG         13.7530   -1.2110   12.2700 P.3       1 ATP401      0.0000 
      2 O1G        13.7300   -2.5110   11.4950 O.3       1 ATP401      0.0000 
      3 O2G        15.1190   -0.5640   12.2750 O.co2     1 ATP401      0.0000 
      4 O3G        13.1170   -1.3250   13.6640 O.co2     1 ATP401      0.0000 
      5 PB         11.2780   -0.3050   11.0370 P.3       1 ATP401      0.0000 
      6 O1B        10.8740   -1.6950   10.5370 O.co2     1 ATP401      0.0000 
      7 O2B        10.4100    0.3430   12.0880 O.co2     1 ATP401      0.0000 
      8 O3B        12.8290   -0.1110   11.4810 O.3       1 ATP401      0.0000 
      9 PA         10.2270    1.7560    9.3390 P.3       1 ATP401      0.0000 
     10 O1A        10.7180    2.2530    8.0030 O.co2     1 ATP401      0.0000 
     11 O2A         8.8620    1.1020    9.4960 O.co2     1 ATP401      0.0000 
     12 O3A        11.3470    0.6630    9.7360 O.3       1 ATP401      0.0000 
     13 O5'        10.4700    2.9990   10.3760 O.co2     1 ATP401      0.0000 
@<TRIPOS>BOND
     1    1    2 1    
     2    1    3 ar   
     3    1    4 ar   
     4    1    8 1    
     5    5    6 ar   
     6    5    7 ar   
     7    5    8 1    
     8    5   12 1    
     9    9   10 ar   
    10    9   11 ar   
    11    9   12 1    
    12    9   13 ar   
@<TRIPOS>SUBSTRUCTURE
     1 ATP401      1 GROUP   
@<TRIPOS>SET

