#    Name: 5ub7_1_ATP_CAVITY_N1_6
#    Modification time : Fri May 22 19:13:09 2020

@<TRIPOS>MOLECULE
5ub7_1_ATP_CAVITY_N1_6
  105     0     7     0     0
SMALL
NO_CHARGES


@<TRIPOS>ATOM
      1 OG          5.6300   -0.6900   14.0000 O.3       1 SER1        0.0000 
      2 OG          5.3800    2.6500   13.7500 O.3       1 SER1        0.0000 
      3 OG          6.7200    0.0100   13.2300 O.3       1 SER1        0.0000 
      4 OG          7.3900   -1.3000   12.9800 O.3       1 SER1        0.0000 
      5 OG          5.7600    0.7900   15.5200 O.3       1 SER1        0.0000 
      6 OG          6.8400    1.4900   14.7500 O.3       1 SER1        0.0000 
      7 OG         11.4000   -2.9200   14.2200 O.3       1 SER1        0.0000 
      8 OG         12.4800   -2.2200   13.4500 O.3       1 SER1        0.0000 
      9 OG         13.5600   -1.5200   12.6800 O.3       1 SER1        0.0000 
     10 OG         13.9700    0.4900   12.1700 O.3       1 SER1        0.0000 
     11 N           3.7900    2.3300   11.2200 N.am      2 ALA2        0.0000 
     12 N           4.2000    4.3500   10.7100 N.am      2 ALA2        0.0000 
     13 N           4.8700    3.0300   10.4500 N.am      2 ALA2        0.0000 
     14 O           7.2200   -0.3700   16.5300 O.2       2 ALA2        0.0000 
     15 O           9.6400   -2.3100   15.2500 O.2       2 ALA2        0.0000 
     16 O          10.3100   -3.6200   14.9900 O.2       2 ALA2        0.0000 
     17 O           8.6900   -1.5300   17.5300 O.2       2 ALA2        0.0000 
     18 N          10.4400   -2.1500   16.5100 N.am      2 ALA2        0.0000 
     19 OD1         9.0400    0.4800    8.1500 O.co2     3 ASP3        0.0000 
     20 OD1         4.9900    4.5100   11.9700 O.co2     3 ASP3        0.0000 
     21 OD1         7.6700   -0.7600   10.9500 O.co2     3 ASP3        0.0000 
     22 OD1         6.0800    5.2100   11.2000 O.co2     3 ASP3        0.0000 
     23 OD1         8.0900    1.2500   10.4300 O.co2     3 ASP3        0.0000 
     24 OD1         8.7600   -0.0600   10.1800 O.co2     3 ASP3        0.0000 
     25 OD1         6.4900    7.2200   10.6900 O.co2     3 ASP3        0.0000 
     26 OD1         9.8400    0.6400    9.4100 O.co2     3 ASP3        0.0000 
     27 OD1        10.5100   -0.6800    9.1500 O.co2     3 ASP3        0.0000 
     28 OD1         9.5800    3.9700    9.1500 O.co2     3 ASP3        0.0000 
     29 OD1        10.2500    2.6500    8.9000 O.co2     3 ASP3        0.0000 
     30 OD1        10.9200    1.3400    8.6400 O.co2     3 ASP3        0.0000 
     31 OD1         8.0600   -2.6200   12.7200 O.co2     3 ASP3        0.0000 
     32 OD1         8.4700   -0.6100   12.2100 O.co2     3 ASP3        0.0000 
     33 OD1         6.8700    5.3600   12.4700 O.co2     3 ASP3        0.0000 
     34 OD1         8.8800    1.4100   11.7000 O.co2     3 ASP3        0.0000 
     35 OD1         9.5500    0.0900   11.4400 O.co2     3 ASP3        0.0000 
     36 OD1        10.2200   -1.2200   11.1800 O.co2     3 ASP3        0.0000 
     37 OD1        10.8900   -2.5400   10.9300 O.co2     3 ASP3        0.0000 
     38 OD1         7.9500    6.0600   11.7000 O.co2     3 ASP3        0.0000 
     39 OD1         9.9600    2.1100   10.9300 O.co2     3 ASP3        0.0000 
     40 OD1        10.6300    0.7900   10.6700 O.co2     3 ASP3        0.0000 
     41 OD1        10.3700    4.1300   10.4200 O.co2     3 ASP3        0.0000 
     42 OD1        11.0400    2.8100   10.1600 O.co2     3 ASP3        0.0000 
     43 OD1        11.7100    1.4900    9.9000 O.co2     3 ASP3        0.0000 
     44 OD1        10.7900    6.1500    9.9100 O.co2     3 ASP3        0.0000 
     45 OD1         9.5200   -3.7800   13.7300 O.co2     3 ASP3        0.0000 
     46 OD1         8.5900    0.8700   13.7300 O.co2     3 ASP3        0.0000 
     47 OD1         9.2600   -0.4500   13.4700 O.co2     3 ASP3        0.0000 
     48 OD1         9.9300   -1.7600   13.2100 O.co2     3 ASP3        0.0000 
     49 OD1         9.0000    2.8900   13.2200 O.co2     3 ASP3        0.0000 
     50 OD1        11.0100   -1.0600   12.4500 O.co2     3 ASP3        0.0000 
     51 OD1        11.6800   -2.3800   12.1900 O.co2     3 ASP3        0.0000 
     52 OD1        10.0900    3.5900   12.4500 O.co2     3 ASP3        0.0000 
     53 OD1        12.1000   -0.3700   11.6800 O.co2     3 ASP3        0.0000 
     54 OD1        11.8400    2.9700   11.4200 O.co2     3 ASP3        0.0000 
     55 OD1        12.5100    1.6500   11.1700 O.co2     3 ASP3        0.0000 
     56 OD1        13.5900    2.3500   10.4000 O.co2     3 ASP3        0.0000 
     57 OD1        11.8100   -0.9100   13.7100 O.co2     3 ASP3        0.0000 
     58 NZ          6.3000   -2.0000   13.7400 N.4       4 LYS4        0.0000 
     59 NZ          9.0300    6.7600   10.9300 N.4       4 LYS4        0.0000 
     60 NZ          6.4300   -0.5300   15.2600 N.4       4 LYS4        0.0000 
     61 NZ          7.1000   -1.8500   15.0100 N.4       4 LYS4        0.0000 
     62 NZ          8.1800   -1.1500   14.2400 N.4       4 LYS4        0.0000 
     63 NZ          8.8500   -2.4600   13.9800 N.4       4 LYS4        0.0000 
     64 NZ          8.7500    6.2200   12.9600 N.4       4 LYS4        0.0000 
     65 NZ          9.4200    4.9000   12.7000 N.4       4 LYS4        0.0000 
     66 NZ          9.8300    6.9200   12.1900 N.4       4 LYS4        0.0000 
     67 NZ         10.5000    5.6000   11.9400 N.4       4 LYS4        0.0000 
     68 NZ         11.1700    4.2900   11.6800 N.4       4 LYS4        0.0000 
     69 NZ          7.8900   -1.6900   16.2700 N.4       4 LYS4        0.0000 
     70 NZ          8.5600   -3.0100   16.0100 N.4       4 LYS4        0.0000 
     71 CZ          5.5400    1.7100   10.2000 C.ar      5 PHE5        0.0000 
     72 CZ          6.6200    2.4100    9.4300 C.ar      5 PHE5        0.0000 
     73 CZ          7.2900    1.1000    9.1700 C.ar      5 PHE5        0.0000 
     74 CZ          7.7000    3.1100    8.6600 C.ar      5 PHE5        0.0000 
     75 CZ          8.3700    1.8000    8.4000 C.ar      5 PHE5        0.0000 
     76 CZ          4.5800    2.4900   12.4800 C.ar      5 PHE5        0.0000 
     77 CZ          5.2500    1.1700   12.2300 C.ar      5 PHE5        0.0000 
     78 CZ          6.3300    1.8700   11.4600 C.ar      5 PHE5        0.0000 
     79 CZ          7.0000    0.5500   11.2000 C.ar      5 PHE5        0.0000 
     80 CZ          6.0500    1.3300   13.4900 C.ar      5 PHE5        0.0000 
     81 CZ          5.7900    4.6600   13.2300 C.ar      5 PHE5        0.0000 
     82 CZ          6.4600    3.3500   12.9800 C.ar      5 PHE5        0.0000 
     83 CZ          7.8000    0.7100   12.4600 C.ar      5 PHE5        0.0000 
     84 CZ          7.5400    4.0500   12.2100 C.ar      5 PHE5        0.0000 
     85 CZ          7.9200    2.1900   13.9800 C.ar      5 PHE5        0.0000 
     86 CA         11.3000   -0.5200   10.4200 C.3       6 GLY6        0.0000 
     87 CA         11.9700   -1.8400   10.1600 C.3       6 GLY6        0.0000 
     88 CA         12.7700   -1.6800   11.4200 C.3       6 GLY6        0.0000 
     89 CA         13.1800    0.3300   10.9100 C.3       6 GLY6        0.0000 
     90 CA          7.6300    1.6500   16.0100 C.3       6 GLY6        0.0000 
     91 CA          8.3000    0.3300   15.7600 C.3       6 GLY6        0.0000 
     92 CA          8.9700   -0.9900   15.5000 C.3       6 GLY6        0.0000 
     93 CA         10.7300   -1.6100   14.4800 C.3       6 GLY6        0.0000 
     94 CA          9.7700   -0.8300   16.7600 C.3       6 GLY6        0.0000 
     95 DU          6.7500    3.8900   10.9500 H         7 CUB7        0.0000 
     96 DU          7.4200    2.5700   10.6900 H         7 CUB7        0.0000 
     97 DU          8.5000    3.2700    9.9200 H         7 CUB7        0.0000 
     98 DU          9.1700    1.9500    9.6700 H         7 CUB7        0.0000 
     99 DU          4.9600    0.6300   14.2600 H         7 CUB7        0.0000 
    100 DU          7.1300    2.0300   12.7200 H         7 CUB7        0.0000 
    101 DU          8.2100    2.7300   11.9500 H         7 CUB7        0.0000 
    102 DU          8.6200    4.7500   11.4400 H         7 CUB7        0.0000 
    103 DU          9.2900    3.4300   11.1800 H         7 CUB7        0.0000 
    104 DU          9.7000    5.4500   10.6700 H         7 CUB7        0.0000 
    105 DU          7.5100    0.1700   14.5000 H         7 CUB7        0.0000 
@<TRIPOS>BOND
@<TRIPOS>SUBSTRUCTURE
     1 SER1        1 GROUP   
     2 ALA2       11 GROUP   
     3 ASP3       19 GROUP   
     4 LYS4       58 GROUP   
     5 PHE5       71 GROUP   
     6 GLY6       86 GROUP   
     7 CUB7       95 GROUP   
@<TRIPOS>SET

