#    Name: 5ub7_1_ATP_CAVITY_N1_4
#    Modification time : Fri May 22 19:13:09 2020

@<TRIPOS>MOLECULE
5ub7_1_ATP_CAVITY_N1_4
   73     0     7     0     0
SMALL
NO_CHARGES


@<TRIPOS>ATOM
      1 OG          6.7200    0.0100   13.2300 O.3       1 SER1        0.0000 
      2 OG          7.3900   -1.3000   12.9800 O.3       1 SER1        0.0000 
      3 OG         11.4000   -2.9200   14.2200 O.3       1 SER1        0.0000 
      4 OG         12.4800   -2.2200   13.4500 O.3       1 SER1        0.0000 
      5 OG         13.5600   -1.5200   12.6800 O.3       1 SER1        0.0000 
      6 OG         13.9700    0.4900   12.1700 O.3       1 SER1        0.0000 
      7 O           9.6400   -2.3100   15.2500 O.2       2 ALA2        0.0000 
      8 O          10.3100   -3.6200   14.9900 O.2       2 ALA2        0.0000 
      9 N          10.4400   -2.1500   16.5100 N.am      2 ALA2        0.0000 
     10 OD1         9.0400    0.4800    8.1500 O.co2     3 ASP3        0.0000 
     11 OD1         7.6700   -0.7600   10.9500 O.co2     3 ASP3        0.0000 
     12 OD1         8.0900    1.2500   10.4300 O.co2     3 ASP3        0.0000 
     13 OD1         8.7600   -0.0600   10.1800 O.co2     3 ASP3        0.0000 
     14 OD1         9.8400    0.6400    9.4100 O.co2     3 ASP3        0.0000 
     15 OD1        10.5100   -0.6800    9.1500 O.co2     3 ASP3        0.0000 
     16 OD1         9.5800    3.9700    9.1500 O.co2     3 ASP3        0.0000 
     17 OD1        10.2500    2.6500    8.9000 O.co2     3 ASP3        0.0000 
     18 OD1        10.9200    1.3400    8.6400 O.co2     3 ASP3        0.0000 
     19 OD1         8.0600   -2.6200   12.7200 O.co2     3 ASP3        0.0000 
     20 OD1         8.4700   -0.6100   12.2100 O.co2     3 ASP3        0.0000 
     21 OD1         8.8800    1.4100   11.7000 O.co2     3 ASP3        0.0000 
     22 OD1         9.5500    0.0900   11.4400 O.co2     3 ASP3        0.0000 
     23 OD1        10.2200   -1.2200   11.1800 O.co2     3 ASP3        0.0000 
     24 OD1        10.8900   -2.5400   10.9300 O.co2     3 ASP3        0.0000 
     25 OD1         9.9600    2.1100   10.9300 O.co2     3 ASP3        0.0000 
     26 OD1        10.6300    0.7900   10.6700 O.co2     3 ASP3        0.0000 
     27 OD1        10.3700    4.1300   10.4200 O.co2     3 ASP3        0.0000 
     28 OD1        11.0400    2.8100   10.1600 O.co2     3 ASP3        0.0000 
     29 OD1        11.7100    1.4900    9.9000 O.co2     3 ASP3        0.0000 
     30 OD1        10.7900    6.1500    9.9100 O.co2     3 ASP3        0.0000 
     31 OD1         8.5900    0.8700   13.7300 O.co2     3 ASP3        0.0000 
     32 OD1         9.2600   -0.4500   13.4700 O.co2     3 ASP3        0.0000 
     33 OD1         9.9300   -1.7600   13.2100 O.co2     3 ASP3        0.0000 
     34 OD1         9.0000    2.8900   13.2200 O.co2     3 ASP3        0.0000 
     35 OD1        11.0100   -1.0600   12.4500 O.co2     3 ASP3        0.0000 
     36 OD1        11.6800   -2.3800   12.1900 O.co2     3 ASP3        0.0000 
     37 OD1        10.0900    3.5900   12.4500 O.co2     3 ASP3        0.0000 
     38 OD1        12.1000   -0.3700   11.6800 O.co2     3 ASP3        0.0000 
     39 OD1        11.8400    2.9700   11.4200 O.co2     3 ASP3        0.0000 
     40 OD1        12.5100    1.6500   11.1700 O.co2     3 ASP3        0.0000 
     41 OD1        13.5900    2.3500   10.4000 O.co2     3 ASP3        0.0000 
     42 OD1        11.8100   -0.9100   13.7100 O.co2     3 ASP3        0.0000 
     43 NZ          8.1800   -1.1500   14.2400 N.4       4 LYS4        0.0000 
     44 NZ          8.8500   -2.4600   13.9800 N.4       4 LYS4        0.0000 
     45 NZ          9.4200    4.9000   12.7000 N.4       4 LYS4        0.0000 
     46 NZ         10.5000    5.6000   11.9400 N.4       4 LYS4        0.0000 
     47 NZ         11.1700    4.2900   11.6800 N.4       4 LYS4        0.0000 
     48 CZ          5.5400    1.7100   10.2000 C.ar      5 PHE5        0.0000 
     49 CZ          6.6200    2.4100    9.4300 C.ar      5 PHE5        0.0000 
     50 CZ          7.2900    1.1000    9.1700 C.ar      5 PHE5        0.0000 
     51 CZ          7.7000    3.1100    8.6600 C.ar      5 PHE5        0.0000 
     52 CZ          8.3700    1.8000    8.4000 C.ar      5 PHE5        0.0000 
     53 CZ          6.3300    1.8700   11.4600 C.ar      5 PHE5        0.0000 
     54 CZ          7.0000    0.5500   11.2000 C.ar      5 PHE5        0.0000 
     55 CZ          7.8000    0.7100   12.4600 C.ar      5 PHE5        0.0000 
     56 CZ          7.5400    4.0500   12.2100 C.ar      5 PHE5        0.0000 
     57 CZ          7.9200    2.1900   13.9800 C.ar      5 PHE5        0.0000 
     58 CA         11.3000   -0.5200   10.4200 C.3       6 GLY6        0.0000 
     59 CA         11.9700   -1.8400   10.1600 C.3       6 GLY6        0.0000 
     60 CA         12.7700   -1.6800   11.4200 C.3       6 GLY6        0.0000 
     61 CA         13.1800    0.3300   10.9100 C.3       6 GLY6        0.0000 
     62 CA          8.9700   -0.9900   15.5000 C.3       6 GLY6        0.0000 
     63 CA         10.7300   -1.6100   14.4800 C.3       6 GLY6        0.0000 
     64 DU          6.7500    3.8900   10.9500 H         7 CUB7        0.0000 
     65 DU          7.4200    2.5700   10.6900 H         7 CUB7        0.0000 
     66 DU          8.5000    3.2700    9.9200 H         7 CUB7        0.0000 
     67 DU          9.1700    1.9500    9.6700 H         7 CUB7        0.0000 
     68 DU          7.1300    2.0300   12.7200 H         7 CUB7        0.0000 
     69 DU          8.2100    2.7300   11.9500 H         7 CUB7        0.0000 
     70 DU          8.6200    4.7500   11.4400 H         7 CUB7        0.0000 
     71 DU          9.2900    3.4300   11.1800 H         7 CUB7        0.0000 
     72 DU          9.7000    5.4500   10.6700 H         7 CUB7        0.0000 
     73 DU          7.5100    0.1700   14.5000 H         7 CUB7        0.0000 
@<TRIPOS>BOND
@<TRIPOS>SUBSTRUCTURE
     1 SER1        1 GROUP   
     2 ALA2        7 GROUP   
     3 ASP3       10 GROUP   
     4 LYS4       43 GROUP   
     5 PHE5       48 GROUP   
     6 GLY6       58 GROUP   
     7 CUB7       64 GROUP   
@<TRIPOS>SET

