#    Name: 5ub7_2_ATP_CAVITY_N1_12
#    Modification time : Fri May 22 19:13:14 2020

@<TRIPOS>MOLECULE
5ub7_2_ATP_CAVITY_N1_12
  119     0     7     0     0
SMALL
NO_CHARGES


@<TRIPOS>ATOM
      1 OG         39.7300   -3.0700  -33.8700 O.3       1 SER1        0.0000 
      2 OG         41.8300   -3.1300  -28.0600 O.3       1 SER1        0.0000 
      3 OG         43.0300   -0.9600  -27.3000 O.3       1 SER1        0.0000 
      4 OG         43.7000   -2.2800  -27.5600 O.3       1 SER1        0.0000 
      5 OG         43.4500    1.0600  -27.8200 O.3       1 SER1        0.0000 
      6 O          38.1800    0.4900  -38.6900 O.2       2 ALA2        0.0000 
      7 O          38.9700    0.6500  -37.4200 O.2       2 ALA2        0.0000 
      8 O          39.7600    0.8100  -36.1600 O.2       2 ALA2        0.0000 
      9 N          40.1800    2.8300  -36.6700 N.am      2 ALA2        0.0000 
     10 N          40.9700    2.9800  -35.4100 N.am      2 ALA2        0.0000 
     11 N          41.3800    5.0000  -35.9200 N.am      2 ALA2        0.0000 
     12 N          42.8500    3.8400  -34.9100 N.am      2 ALA2        0.0000 
     13 N          42.6600   -5.3900  -31.8600 N.am      2 ALA2        0.0000 
     14 N          37.7900   -5.3900  -27.0100 N.am      2 ALA2        0.0000 
     15 O          38.4600   -6.7100  -27.2700 O.2       2 ALA2        0.0000 
     16 N          38.2000   -3.3700  -27.5300 N.am      2 ALA2        0.0000 
     17 O          38.8700   -4.6900  -27.7800 O.2       2 ALA2        0.0000 
     18 O          39.5400   -6.0100  -28.0400 O.2       2 ALA2        0.0000 
     19 O          40.2100   -7.3300  -28.2900 O.2       2 ALA2        0.0000 
     20 O          39.9500   -3.9900  -28.5500 O.2       2 ALA2        0.0000 
     21 O          40.6200   -5.3100  -28.8100 O.2       2 ALA2        0.0000 
     22 O          41.2900   -6.6300  -29.0600 O.2       2 ALA2        0.0000 
     23 O          39.6600   -4.5300  -26.5200 O.2       2 ALA2        0.0000 
     24 O          40.7500   -3.8300  -27.2900 O.2       2 ALA2        0.0000 
     25 N          41.1600   -1.8200  -27.8000 N.am      2 ALA2        0.0000 
     26 OD1        38.9300    3.0600  -32.3500 O.co2     3 ASP3        0.0000 
     27 OD1        39.6000    1.7400  -32.6100 O.co2     3 ASP3        0.0000 
     28 OD1        41.6100   -2.2100  -33.3800 O.co2     3 ASP3        0.0000 
     29 OD1        42.2800   -3.5300  -33.6400 O.co2     3 ASP3        0.0000 
     30 OD1        40.0100    3.7600  -33.1200 O.co2     3 ASP3        0.0000 
     31 OD1        40.6800    2.4400  -33.3800 O.co2     3 ASP3        0.0000 
     32 OD1        42.0200   -0.1900  -33.8900 O.co2     3 ASP3        0.0000 
     33 OD1        42.6900   -1.5100  -34.1500 O.co2     3 ASP3        0.0000 
     34 OD1        41.0900    4.4600  -33.8900 O.co2     3 ASP3        0.0000 
     35 OD1        41.7600    3.1400  -34.1500 O.co2     3 ASP3        0.0000 
     36 OD1        42.4300    1.8200  -34.4000 O.co2     3 ASP3        0.0000 
     37 OD1        43.1000    0.5100  -34.6600 O.co2     3 ASP3        0.0000 
     38 OD1        42.1800    5.1600  -34.6600 O.co2     3 ASP3        0.0000 
     39 OD1        40.6500   -1.4300  -31.0900 O.co2     3 ASP3        0.0000 
     40 OD1        41.9900   -4.0700  -31.6100 O.co2     3 ASP3        0.0000 
     41 OD1        40.3900    1.9000  -31.3500 O.co2     3 ASP3        0.0000 
     42 OD1        41.0600    0.5800  -31.6000 O.co2     3 ASP3        0.0000 
     43 OD1        42.4000   -2.0500  -32.1200 O.co2     3 ASP3        0.0000 
     44 OD1        40.8100    3.9200  -31.8600 O.co2     3 ASP3        0.0000 
     45 OD1        41.4800    2.6000  -32.1200 O.co2     3 ASP3        0.0000 
     46 OD1        42.1500    1.2800  -32.3700 O.co2     3 ASP3        0.0000 
     47 OD1        42.8200   -0.0300  -32.6300 O.co2     3 ASP3        0.0000 
     48 OD1        43.2300    1.9800  -33.1400 O.co2     3 ASP3        0.0000 
     49 OD1        41.4500   -1.2800  -29.8300 O.co2     3 ASP3        0.0000 
     50 OD1        42.7900   -3.9100  -30.3400 O.co2     3 ASP3        0.0000 
     51 OD1        41.1900    2.0600  -30.0900 O.co2     3 ASP3        0.0000 
     52 OD1        41.8600    0.7400  -30.3400 O.co2     3 ASP3        0.0000 
     53 OD1        43.2000   -1.8900  -30.8500 O.co2     3 ASP3        0.0000 
     54 OD1        41.6000    4.0800  -30.6000 O.co2     3 ASP3        0.0000 
     55 OD1        42.9400    1.4400  -31.1100 O.co2     3 ASP3        0.0000 
     56 OD1        41.5700    0.2000  -28.3100 O.co2     3 ASP3        0.0000 
     57 OD1        41.9800    2.2200  -28.8200 O.co2     3 ASP3        0.0000 
     58 OD1        42.6500    0.9000  -29.0800 O.co2     3 ASP3        0.0000 
     59 OD1        43.0600    2.9200  -29.5900 O.co2     3 ASP3        0.0000 
     60 NZ         37.7500    4.7600  -35.3900 N.4       4 LYS4        0.0000 
     61 NZ         38.8400    5.4600  -36.1600 N.4       4 LYS4        0.0000 
     62 NZ         38.1400    2.9000  -33.6200 N.4       4 LYS4        0.0000 
     63 NZ         37.8800    6.2400  -33.8700 N.4       4 LYS4        0.0000 
     64 NZ         38.5500    4.9200  -34.1300 N.4       4 LYS4        0.0000 
     65 NZ         38.2600    4.3800  -32.1000 N.4       4 LYS4        0.0000 
     66 NZ         39.0600    4.5400  -30.8400 N.4       4 LYS4        0.0000 
     67 NZ         39.7200    3.2200  -31.0900 N.4       4 LYS4        0.0000 
     68 NZ         40.5200    3.3800  -29.8300 N.4       4 LYS4        0.0000 
     69 CZ         40.8200   -2.3700  -34.6400 C.ar      5 PHE5        0.0000 
     70 CZ         41.2300   -0.3500  -35.1500 C.ar      5 PHE5        0.0000 
     71 CZ         40.1200   -4.9300  -32.1000 C.ar      5 PHE5        0.0000 
     72 CZ         40.7900   -6.2400  -32.3600 C.ar      5 PHE5        0.0000 
     73 CZ         40.5300   -2.9100  -32.6100 C.ar      5 PHE5        0.0000 
     74 CZ         41.2000   -4.2300  -32.8700 C.ar      5 PHE5        0.0000 
     75 CA         39.3800    2.6700  -37.9400 C.3       6 GLY6        0.0000 
     76 CA         40.0500    1.3500  -38.1900 C.3       6 GLY6        0.0000 
     77 CA         39.5100    4.1400  -36.4200 C.3       6 GLY6        0.0000 
     78 CA         40.8500    1.5100  -36.9300 C.3       6 GLY6        0.0000 
     79 CA         41.6400    1.6700  -35.6700 C.3       6 GLY6        0.0000 
     80 CA         38.6700    6.3900  -32.6100 C.3       6 GLY6        0.0000 
     81 CA         39.3400    5.0800  -32.8700 C.3       6 GLY6        0.0000 
     82 CA         40.4200    5.7800  -33.6300 C.3       6 GLY6        0.0000 
     83 CA         38.4900   -2.8300  -29.5600 C.3       6 GLY6        0.0000 
     84 CA         40.5000   -6.7900  -30.3300 C.3       6 GLY6        0.0000 
     85 CA         39.5700   -2.1300  -30.3200 C.3       6 GLY6        0.0000 
     86 CA         39.2800   -2.6700  -28.2900 C.3       6 GLY6        0.0000 
     87 CA         40.3600   -1.9800  -29.0600 C.3       6 GLY6        0.0000 
     88 CA         43.6100    0.1200  -31.3700 C.3       6 GLY6        0.0000 
     89 CA         43.3200   -0.4200  -29.3400 C.3       6 GLY6        0.0000 
     90 CA         43.7300    1.6000  -29.8500 C.3       6 GLY6        0.0000 
     91 CA         44.1200   -0.2600  -28.0700 C.3       6 GLY6        0.0000 
     92 DU         38.4200    3.4400  -35.6500 H         7 CUB7        0.0000 
     93 DU         39.0900    2.1300  -35.9000 H         7 CUB7        0.0000 
     94 DU         38.8100    1.5800  -33.8700 H         7 CUB7        0.0000 
     95 DU         40.1500   -1.0500  -34.3900 H         7 CUB7        0.0000 
     96 DU         39.2200    3.6000  -34.3900 H         7 CUB7        0.0000 
     97 DU         39.8900    2.2800  -34.6400 H         7 CUB7        0.0000 
     98 DU         40.5600    0.9700  -34.9000 H         7 CUB7        0.0000 
     99 DU         39.6300    5.6200  -34.9000 H         7 CUB7        0.0000 
    100 DU         40.3000    4.3000  -35.1500 H         7 CUB7        0.0000 
    101 DU         39.4500   -3.6100  -31.8400 H         7 CUB7        0.0000 
    102 DU         39.8600   -1.5900  -32.3600 H         7 CUB7        0.0000 
    103 DU         40.2700    0.4300  -32.8700 H         7 CUB7        0.0000 
    104 DU         40.9400   -0.8900  -33.1200 H         7 CUB7        0.0000 
    105 DU         41.3500    1.1200  -33.6400 H         7 CUB7        0.0000 
    106 DU         38.0800   -4.8500  -29.0400 H         7 CUB7        0.0000 
    107 DU         38.7500   -6.1700  -29.3000 H         7 CUB7        0.0000 
    108 DU         39.1600   -4.1500  -29.8100 H         7 CUB7        0.0000 
    109 DU         39.8300   -5.4700  -30.0700 H         7 CUB7        0.0000 
    110 DU         40.2400   -3.4500  -30.5800 H         7 CUB7        0.0000 
    111 DU         40.9100   -4.7700  -30.8400 H         7 CUB7        0.0000 
    112 DU         41.3200   -2.7500  -31.3500 H         7 CUB7        0.0000 
    113 DU         41.7300   -0.7300  -31.8600 H         7 CUB7        0.0000 
    114 DU         41.0300   -3.2900  -29.3200 H         7 CUB7        0.0000 
    115 DU         41.7000   -4.6100  -29.5700 H         7 CUB7        0.0000 
    116 DU         42.1200   -2.5900  -30.0900 H         7 CUB7        0.0000 
    117 DU         42.5300   -0.5800  -30.6000 H         7 CUB7        0.0000 
    118 DU         42.2400   -1.1200  -28.5700 H         7 CUB7        0.0000 
    119 DU         42.9100   -2.4300  -28.8200 H         7 CUB7        0.0000 
@<TRIPOS>BOND
@<TRIPOS>SUBSTRUCTURE
     1 SER1        1 GROUP   
     2 ALA2        6 GROUP   
     3 ASP3       26 GROUP   
     4 LYS4       60 GROUP   
     5 PHE5       69 GROUP   
     6 GLY6       75 GROUP   
     7 CUB7       92 GROUP   
@<TRIPOS>SET

