#    Name: 5ub7_2_ATP
#    Modification time : Fri May 22 19:13:12 2020

@<TRIPOS>MOLECULE
5ub7_2_ATP
   31    33     1     0     1
SMALL
NO_CHARGES


@<TRIPOS>ATOM
      1 PG         44.0160   -0.6490  -27.6050 P.3       1 ATP401      0.0000 
      2 O1G        45.2410   -1.5720  -27.7640 O.co2     1 ATP401      0.0000 
      3 O2G        44.3730    0.6600  -26.9550 O.co2     1 ATP401      0.0000 
      4 O3G        42.6830   -1.2700  -27.1520 O.co2     1 ATP401      0.0000 
      5 PB         42.6280    0.7830  -29.6000 P.3       1 ATP401      0.0000 
      6 O1B        43.3060    2.1440  -29.6610 O.co2     1 ATP401      0.0000 
      7 O2B        41.3400    0.5950  -28.8100 O.co2     1 ATP401      0.0000 
      8 O3B        43.6400   -0.3550  -29.1240 O.3       1 ATP401      0.0000 
      9 PA         42.0170    1.1810  -32.3330 P.3       1 ATP401      0.0000 
     10 O1A        43.1680    1.9310  -32.9800 O.co2     1 ATP401      0.0000 
     11 O2A        40.7610    1.9060  -31.8350 O.co2     1 ATP401      0.0000 
     12 O3A        42.5360    0.2240  -31.1240 O.3       1 ATP401      0.0000 
     13 O5'        41.4960    0.0680  -33.3280 O.3       1 ATP401      0.0000 
     14 C5'        42.3610   -0.9070  -33.8800 C.3       1 ATP401      0.0000 
     15 C4'        41.5530   -2.1960  -34.0340 C.3       1 ATP401      0.0000 
     16 O4'        41.4930   -2.8200  -32.7520 O.3       1 ATP401      0.0000 
     17 C3'        40.0940   -2.0160  -34.4950 C.3       1 ATP401      0.0000 
     18 O3'        39.7060   -3.0150  -35.4550 O.3       1 ATP401      0.0000 
     19 C2'        39.2590   -2.2140  -33.2570 C.3       1 ATP401      0.0000 
     20 O2'        37.9520   -2.7230  -33.5940 O.3       1 ATP401      0.0000 
     21 C1'        40.1450   -3.2010  -32.4940 C.3       1 ATP401      0.0000 
     22 N9         39.9020   -3.1480  -31.0520 N.pl3     1 ATP401      0.0000 
     23 C8         40.3160   -2.1760  -30.2200 C.2       1 ATP401      0.0000 
     24 N7         39.9140   -2.4340  -28.9610 N.2       1 ATP401      0.0000 
     25 C5         39.2130   -3.5950  -29.0070 C.ar      1 ATP401      0.0000 
     26 C6         38.4860   -4.4660  -28.0390 C.ar      1 ATP401      0.0000 
     27 N6         38.4300   -4.1220  -26.7350 N.pl3     1 ATP401      0.0000 
     28 N1         37.8960   -5.6030  -28.5020 N.ar      1 ATP401      0.0000 
     29 C2         37.9540   -5.9560  -29.8140 C.ar      1 ATP401      0.0000 
     30 N3         38.5960   -5.2150  -30.7530 N.ar      1 ATP401      0.0000 
     31 C4         39.2180   -4.0620  -30.4020 C.ar      1 ATP401      0.0000 
@<TRIPOS>BOND
     1    1    2 ar   
     2    1    3 ar   
     3    1    4 ar   
     4    1    8 1    
     5    5    6 ar   
     6    5    7 ar   
     7    5    8 1    
     8    5   12 1    
     9    9   10 ar   
    10    9   11 ar   
    11    9   12 1    
    12    9   13 1    
    13   13   14 1    
    14   14   15 1    
    15   15   16 1    
    16   15   17 1    
    17   16   21 1    
    18   17   18 1    
    19   17   19 1    
    20   19   20 1    
    21   19   21 1    
    22   21   22 1    
    23   22   23 1    
    24   22   31 1    
    25   23   24 2    
    26   24   25 1    
    27   25   26 ar   
    28   25   31 ar   
    29   26   27 1    
    30   26   28 ar   
    31   28   29 ar   
    32   29   30 ar   
    33   30   31 ar   
@<TRIPOS>SUBSTRUCTURE
     1 ATP401      1 GROUP   
@<TRIPOS>SET
ATOM$ORANGE STATIC     ATOMS   COLORGROUP SYSTEM 
20 14 14 15 15 17 17 19 19 21 21 23 23 25 25 26 26 29 \
29 31 31 

