#    Name: 5ol0_1_ARG_HIS_LYS_LEU_MET_PHE_LYS_ALY
#    Modification time : Fri May 22 19:15:03 2020

@<TRIPOS>MOLECULE
5ol0_1_ARG_HIS_LYS_LEU_MET_PHE_LYS_ALY
   78    79     8     0     0
SMALL
NO_CHARGES


@<TRIPOS>ATOM
      1 N          19.5000  -17.6640   76.3830 N.4       1 ARG379      0.0000 
      2 CA         20.2880  -16.4900   75.8820 C.3       1 ARG379      0.0000 
      3 C          21.3350  -16.9680   74.9210 C.2       1 ARG379      0.0000 
      4 O          22.1050  -17.8630   75.2630 O.2       1 ARG379      0.0000 
      5 CB         21.0110  -15.7280   77.0070 C.3       1 ARG379      0.0000 
      6 CG         20.1070  -15.3860   78.1730 C.3       1 ARG379      0.0000 
      7 CD         20.6640  -14.3180   79.1000 C.3       1 ARG379      0.0000 
      8 NE         19.5800  -13.7950   79.9490 N.pl3     1 ARG379      0.0000 
      9 CZ         19.5160  -12.5750   80.4940 C.cat     1 ARG379      0.0000 
     10 NH1        20.4670  -11.6680   80.3110 N.pl3     1 ARG379      0.0000 
     11 NH2        18.4580  -12.2460   81.2270 N.pl3     1 ARG379      0.0000 
     12 N          21.3470  -16.3990   73.7220 N.am      2 HIS380      0.0000 
     13 CA         22.4900  -16.5250   72.8130 C.3       2 HIS380      0.0000 
     14 C          22.7530  -15.2080   72.0850 C.2       2 HIS380      0.0000 
     15 O          21.9360  -14.3000   72.0670 O.2       2 HIS380      0.0000 
     16 CB         22.3100  -17.6930   71.8220 C.3       2 HIS380      0.0000 
     17 CG         21.1900  -17.5110   70.8470 C.2       2 HIS380      0.0000 
     18 ND1        21.2470  -16.6080   69.8040 N.pl3     2 HIS380      0.0000 
     19 CD2        19.9860  -18.1340   70.7460 C.2       2 HIS380      0.0000 
     20 CE1        20.1050  -16.6520   69.1270 C.2       2 HIS380      0.0000 
     21 NE2        19.3230  -17.5660   69.6860 N.2       2 HIS380      0.0000 
     22 N          23.9050  -15.1490   71.4620 N.am      3 LYS381      0.0000 
     23 CA         24.4050  -13.9580   70.7920 C.3       3 LYS381      0.0000 
     24 C          23.6950  -13.6590   69.4590 C.2       3 LYS381      0.0000 
     25 O          23.0430  -14.5310   68.8690 O.2       3 LYS381      0.0000 
     26 CB         25.9050  -14.1630   70.5840 C.3       3 LYS381      0.0000 
     27 CG         26.6030  -14.2530   71.9320 C.3       3 LYS381      0.0000 
     28 CD         28.0140  -14.7850   71.8130 C.3       3 LYS381      0.0000 
     29 CE         28.7530  -14.4360   73.0950 C.3       3 LYS381      0.0000 
     30 NZ         30.1000  -15.0160   73.1130 N.4       3 LYS381      0.0000 
     31 N          22.9460  -13.3490   65.8170 N.am      4 LEU383      0.0000 
     32 CA         23.3050  -14.2030   64.6910 C.3       4 LEU383      0.0000 
     33 C          22.3370  -14.1320   63.5630 C.2       4 LEU383      0.0000 
     34 O          21.2130  -13.5860   63.6700 O.2       4 LEU383      0.0000 
     35 CB         23.5040  -15.6800   65.1420 C.3       4 LEU383      0.0000 
     36 CG         22.3500  -16.4840   65.7520 C.3       4 LEU383      0.0000 
     37 CD1        21.5090  -17.1800   64.6840 C.3       4 LEU383      0.0000 
     38 CD2        22.8690  -17.5580   66.7170 C.3       4 LEU383      0.0000 
     39 N          22.7800  -14.6960   62.4450 N.am      5 MET384      0.0000 
     40 CA         21.9270  -14.8730   61.2880 C.3       5 MET384      0.0000 
     41 C          22.3070  -16.1080   60.5380 C.2       5 MET384      0.0000 
     42 O          23.4580  -16.5340   60.5900 O.2       5 MET384      0.0000 
     43 CB         21.9290  -13.6520   60.4280 C.3       5 MET384      0.0000 
     44 CG         22.9760  -13.5290   59.3540 C.3       5 MET384      0.0000 
     45 SD         22.5960  -11.9630   58.5320 S.3       5 MET384      0.0000 
     46 CE         20.9690  -12.2990   57.8330 C.3       5 MET384      0.0000 
     47 N          21.3190  -16.7270   59.9010 N.am      6 PHE385      0.0000 
     48 CA         21.5690  -17.9850   59.1810 C.3       6 PHE385      0.0000 
     49 C          22.0250  -17.6170   57.7810 C.2       6 PHE385      0.0000 
     50 O          21.3020  -16.9530   57.0550 O.2       6 PHE385      0.0000 
     51 CB         20.3480  -18.8950   59.1660 C.3       6 PHE385      0.0000 
     52 CG         20.0230  -19.4620   60.5100 C.ar      6 PHE385      0.0000 
     53 CD1        20.7240  -20.5700   60.9980 C.ar      6 PHE385      0.0000 
     54 CD2        19.0900  -18.8200   61.3530 C.ar      6 PHE385      0.0000 
     55 CE1        20.4570  -21.0840   62.2390 C.ar      6 PHE385      0.0000 
     56 CE2        18.8430  -19.3160   62.6040 C.ar      6 PHE385      0.0000 
     57 CZ         19.5060  -20.4650   63.0460 C.ar      6 PHE385      0.0000 
     58 N          23.2480  -18.0270   57.4440 N.am      7 LYS386      0.0000 
     59 CA         23.9230  -17.6070   56.2110 C.3       7 LYS386      0.0000 
     60 C          24.0060  -18.8370   55.3270 C.2       7 LYS386      0.0000 
     61 O          22.9620  -19.3460   54.9280 O.2       7 LYS386      0.0000 
     62 CB         25.3080  -16.9950   56.5320 C.3       7 LYS386      0.0000 
     63 CG         26.1980  -16.6480   55.3280 C.3       7 LYS386      0.0000 
     64 CD         25.6040  -15.6350   54.3290 C.3       7 LYS386      0.0000 
     65 CE         26.1800  -15.8140   52.9220 C.3       7 LYS386      0.0000 
     66 NZ         25.8150  -17.1270   52.2950 N.4       7 LYS386      0.0000 
     67 OH         21.9970   -5.8100   63.1930 O.2       8 ALY382      0.0000 
     68 CH         22.9160   -5.5880   63.9350 C.2       8 ALY382      0.0000 
     69 CH3        23.6730   -4.2910   63.8590 C.3       8 ALY382      0.0000 
     70 NZ         23.2940   -6.4320   64.8920 N.am      8 ALY382      0.0000 
     71 CE         22.7450   -7.7280   65.1600 C.3       8 ALY382      0.0000 
     72 CD         23.3860   -8.4420   66.3300 C.3       8 ALY382      0.0000 
     73 CG         23.0050   -9.9210   66.3690 C.3       8 ALY382      0.0000 
     74 CB         23.7450  -10.5440   67.5560 C.3       8 ALY382      0.0000 
     75 CA         23.3250  -11.9700   67.7770 C.3       8 ALY382      0.0000 
     76 N          23.8810  -12.4310   69.0070 N.am      8 ALY382      0.0000 
     77 C          23.8610  -12.8200   66.6270 C.2       8 ALY382      0.0000 
     78 O          25.0800  -13.0140   66.5070 O.2       8 ALY382      0.0000 
@<TRIPOS>BOND
     1    1    2 1    
     2    2    3 1    
     3    2    5 1    
     4    3    4 2    
     5    3   12 am   
     6    5    6 1    
     7    6    7 1    
     8    7    8 1    
     9    8    9 ar   
    10    9   10 ar   
    11    9   11 ar   
    12   12   13 1    
    13   13   14 1    
    14   13   16 1    
    15   14   15 2    
    16   14   22 am   
    17   16   17 1    
    18   17   18 1    
    19   17   19 2    
    20   18   20 1    
    21   19   21 1    
    22   20   21 2    
    23   22   23 1    
    24   23   24 1    
    25   23   26 1    
    26   24   25 2    
    27   24   76 du   
    28   26   27 1    
    29   27   28 1    
    30   28   29 1    
    31   29   30 1    
    32   31   32 1    
    33   31   77 am   
    34   32   33 1    
    35   32   35 1    
    36   33   34 2    
    37   33   39 am   
    38   35   36 1    
    39   36   37 1    
    40   36   38 1    
    41   39   40 1    
    42   40   41 1    
    43   40   43 1    
    44   41   42 2    
    45   41   47 am   
    46   43   44 1    
    47   44   45 1    
    48   45   46 1    
    49   47   48 1    
    50   48   49 1    
    51   48   51 1    
    52   49   50 2    
    53   49   58 am   
    54   51   52 1    
    55   52   53 ar   
    56   52   54 ar   
    57   53   55 ar   
    58   54   56 ar   
    59   55   57 ar   
    60   56   57 ar   
    61   58   59 1    
    62   59   60 1    
    63   59   62 1    
    64   60   61 2    
    65   62   63 1    
    66   63   64 1    
    67   64   65 1    
    68   65   66 1    
    69   67   68 2    
    70   68   69 1    
    71   68   70 am   
    72   70   71 1    
    73   71   72 1    
    74   72   73 1    
    75   73   74 1    
    76   74   75 1    
    77   75   76 1    
    78   75   77 1    
    79   77   78 2    
@<TRIPOS>SUBSTRUCTURE
     1 ARG379      1 RESIDUE 
     2 HIS380     12 RESIDUE 
     3 LYS381     22 RESIDUE 
     4 LEU383     31 RESIDUE 
     5 MET384     39 RESIDUE 
     6 PHE385     47 RESIDUE 
     7 LYS386     58 RESIDUE 
     8 ALY382     67 RESIDUE 
@<TRIPOS>SET

