#    Name: 5ol0_1_ARG_HIS_LYS_LEU_MET_PHE_LYS_ALY_CAVITY_N1_4
#    Modification time : Fri May 22 19:15:05 2020

@<TRIPOS>MOLECULE
5ol0_1_ARG_HIS_LYS_LEU_MET_PHE_LYS_ALY_CAVITY_N1_4
   59     0     5     0     0
SMALL
NO_CHARGES


@<TRIPOS>ATOM
      1 OG         22.2100   -5.1600   62.9100 O.3       1 SER1        0.0000 
      2 OG         21.7200   -9.1700   66.8000 O.3       1 SER1        0.0000 
      3 OG         21.9600   -7.2600   65.9100 O.3       1 SER1        0.0000 
      4 OG         22.6600   -8.5800   65.7900 O.3       1 SER1        0.0000 
      5 OG         22.2100   -5.3500   65.0200 O.3       1 SER1        0.0000 
      6 N          19.6200  -11.3000   59.1500 N.am      2 ALA2        0.0000 
      7 N          22.8700  -13.5300   65.3400 N.am      2 ALA2        0.0000 
      8 N          21.5200   -3.8400   63.0200 N.am      2 ALA2        0.0000 
      9 N          21.9200  -14.3100   68.4700 N.am      2 ALA2        0.0000 
     10 N          22.8700  -13.7200   67.4600 N.am      2 ALA2        0.0000 
     11 N          22.4100  -10.4900   66.6800 N.am      2 ALA2        0.0000 
     12 N          23.1100  -11.8200   66.5700 N.am      2 ALA2        0.0000 
     13 N          23.8100  -13.1400   66.4500 N.am      2 ALA2        0.0000 
     14 N          22.9000   -6.6700   64.9000 N.am      2 ALA2        0.0000 
     15 N          23.1500   -4.7600   64.0100 N.am      2 ALA2        0.0000 
     16 N          23.8500   -6.0900   63.8900 N.am      2 ALA2        0.0000 
     17 N          23.8000  -13.3300   68.5600 N.am      2 ALA2        0.0000 
     18 N          24.0500  -11.4200   67.6700 N.am      2 ALA2        0.0000 
     19 O          24.7400  -12.7400   67.5500 O.2       2 ALA2        0.0000 
     20 N          23.5900   -8.1900   66.9000 N.am      2 ALA2        0.0000 
     21 N          24.2900   -9.5100   66.7800 N.am      2 ALA2        0.0000 
     22 CZ         21.9700   -6.8800   61.6800 C.ar      3 PHE5        0.0000 
     23 CZ         22.9200   -6.2900   60.6800 C.ar      3 PHE5        0.0000 
     24 CZ         23.1600   -4.3800   59.7800 C.ar      3 PHE5        0.0000 
     25 CZ         23.8600   -5.7100   59.6700 C.ar      3 PHE5        0.0000 
     26 CZ         23.8200  -12.9500   64.3400 C.ar      3 PHE5        0.0000 
     27 CZ         21.9700   -7.0700   63.8000 C.ar      3 PHE5        0.0000 
     28 CZ         22.9100   -6.4800   62.7900 C.ar      3 PHE5        0.0000 
     29 CZ         23.1600   -4.5700   61.9000 C.ar      3 PHE5        0.0000 
     30 CZ         23.8500   -5.9000   61.7800 C.ar      3 PHE5        0.0000 
     31 CZ         23.3600   -9.9100   65.6700 C.ar      3 PHE5        0.0000 
     32 CZ         24.0500  -11.2300   65.5600 C.ar      3 PHE5        0.0000 
     33 CZ         24.7500  -12.5500   65.4400 C.ar      3 PHE5        0.0000 
     34 CZ         23.6000   -8.0000   64.7800 C.ar      3 PHE5        0.0000 
     35 CZ         24.5400   -7.4100   63.7700 C.ar      3 PHE5        0.0000 
     36 CZ         24.0900   -4.1800   63.0000 C.ar      3 PHE5        0.0000 
     37 CA         17.9900  -10.3700   58.1600 C.3       4 GLY6        0.0000 
     38 CA         18.9300   -9.7800   57.1500 C.3       4 GLY6        0.0000 
     39 CA         19.8700   -9.3900   58.2600 C.3       4 GLY6        0.0000 
     40 CA         20.5600  -10.7100   58.1400 C.3       4 GLY6        0.0000 
     41 CA         20.8100   -8.8000   57.2500 C.3       4 GLY6        0.0000 
     42 CA         20.8000   -8.9900   59.3600 C.3       4 GLY6        0.0000 
     43 CA         21.5000  -10.3100   59.2400 C.3       4 GLY6        0.0000 
     44 CA         20.3400   -5.9500   60.7000 C.3       4 GLY6        0.0000 
     45 CA         21.0400   -7.2700   60.5800 C.3       4 GLY6        0.0000 
     46 CA         21.9800   -6.6900   59.5700 C.3       4 GLY6        0.0000 
     47 CA         22.4500   -3.4400   64.1300 C.3       4 GLY6        0.0000 
     48 CA         23.3900   -2.8600   63.1200 C.3       4 GLY6        0.0000 
     49 CA         24.7900   -5.5000   62.8800 C.3       4 GLY6        0.0000 
     50 CA         22.8600  -13.9200   69.5700 C.3       4 GLY6        0.0000 
     51 CA         23.1000  -12.0100   68.6800 C.3       4 GLY6        0.0000 
     52 CA         22.6500   -8.7700   67.9000 C.3       4 GLY6        0.0000 
     53 CA         23.3500  -10.1000   67.7900 C.3       4 GLY6        0.0000 
     54 CA         24.9900  -10.8300   66.6600 C.3       4 GLY6        0.0000 
     55 DU         19.6400   -4.6300   60.8200 H         5 CUB7        0.0000 
     56 DU         21.2800   -5.3600   59.6900 H         5 CUB7        0.0000 
     57 DU         21.5200   -3.6500   60.9100 H         5 CUB7        0.0000 
     58 DU         22.2200   -4.9700   60.7900 H         5 CUB7        0.0000 
     59 DU         22.4600   -3.2500   62.0100 H         5 CUB7        0.0000 
@<TRIPOS>BOND
@<TRIPOS>SUBSTRUCTURE
     1 SER1        1 GROUP   
     2 ALA2        6 GROUP   
     3 PHE5       22 GROUP   
     4 GLY6       37 GROUP   
     5 CUB7       55 GROUP   
@<TRIPOS>SET

