#    Name: 6adj_1_FAD
#    Modification time : Fri May 22 19:30:42 2020

@<TRIPOS>MOLECULE
6adj_1_FAD
   53    58     1     0     1
SMALL
NO_CHARGES


@<TRIPOS>ATOM
      1 PA         22.5070   10.7480  -30.2720 P.3       1 FAD3004     0.0000 
      2 O1A        21.3250   11.5970  -30.0140 O.co2     1 FAD3004     0.0000 
      3 O2A        22.6490   10.0040  -31.5590 O.co2     1 FAD3004     0.0000 
      4 O5B        23.8800   11.5440  -29.8580 O.3       1 FAD3004     0.0000 
      5 C5B        23.8950   12.3370  -28.6500 C.3       1 FAD3004     0.0000 
      6 C4B        25.2680   12.9930  -28.3850 C.3       1 FAD3004     0.0000 
      7 O4B        26.3490   12.0910  -28.2380 O.3       1 FAD3004     0.0000 
      8 C3B        25.7070   13.8130  -29.5670 C.3       1 FAD3004     0.0000 
      9 O3B        26.4240   14.9060  -29.0580 O.3       1 FAD3004     0.0000 
     10 C2B        26.5880   12.9680  -30.4020 C.3       1 FAD3004     0.0000 
     11 O2B        27.4340   13.7720  -31.2610 O.3       1 FAD3004     0.0000 
     12 C1B        27.3000   12.2610  -29.2940 C.3       1 FAD3004     0.0000 
     13 N9A        27.8800   10.9110  -29.5650 N.pl3     1 FAD3004     0.0000 
     14 C8A        27.2030    9.7850  -29.7480 C.2       1 FAD3004     0.0000 
     15 N7A        28.0470    8.7560  -29.8990 N.2       1 FAD3004     0.0000 
     16 C5A        29.2980    9.2080  -29.7360 C.ar      1 FAD3004     0.0000 
     17 C6A        30.6530    8.6190  -29.7420 C.ar      1 FAD3004     0.0000 
     18 N6A        30.8920    7.3040  -29.9620 N.pl3     1 FAD3004     0.0000 
     19 N1A        31.6850    9.4650  -29.5480 N.ar      1 FAD3004     0.0000 
     20 C2A        31.4870   10.7830  -29.3360 C.ar      1 FAD3004     0.0000 
     21 N3A        30.2840   11.3890  -29.3240 N.ar      1 FAD3004     0.0000 
     22 C4A        29.1720   10.6360  -29.5230 C.ar      1 FAD3004     0.0000 
     23 N1         18.5810    9.6470  -20.4680 N.2       1 FAD3004     0.0000 
     24 C2         18.8110    9.2790  -19.1980 C.2       1 FAD3004     0.0000 
     25 O2         19.9870    9.3420  -18.7400 O.2       1 FAD3004     0.0000 
     26 N3         17.8420    8.8380  -18.4170 N.am      1 FAD3004     0.0000 
     27 C4         16.5650    8.6750  -18.8080 C.2       1 FAD3004     0.0000 
     28 O4         15.6790    8.2800  -18.0050 O.2       1 FAD3004     0.0000 
     29 C4X        16.2260    9.0610  -20.1740 C.2       1 FAD3004     0.0000 
     30 N5         14.9780    8.9950  -20.6680 N.2       1 FAD3004     0.0000 
     31 C5X        14.7460    9.3500  -21.9390 C.ar      1 FAD3004     0.0000 
     32 C6         13.4760    9.2700  -22.4300 C.ar      1 FAD3004     0.0000 
     33 C7         13.1780    9.6570  -23.7060 C.ar      1 FAD3004     0.0000 
     34 C7M        11.7420    9.5310  -24.1700 C.3       1 FAD3004     0.0000 
     35 C8         14.2520   10.1380  -24.5800 C.ar      1 FAD3004     0.0000 
     36 C8M        13.9780   10.5480  -26.0040 C.3       1 FAD3004     0.0000 
     37 C9         15.5420   10.2240  -24.0980 C.ar      1 FAD3004     0.0000 
     38 C9A        15.8350    9.8440  -22.8030 C.ar      1 FAD3004     0.0000 
     39 N10        17.1430    9.9480  -22.2580 N.pl3     1 FAD3004     0.0000 
     40 C10        17.3540    9.5620  -20.9740 C.2       1 FAD3004     0.0000 
     41 C1'        18.2920   10.3930  -23.0450 C.3       1 FAD3004     0.0000 
     42 C2'        18.7740    9.1580  -23.8600 C.3       1 FAD3004     0.0000 
     43 O2'        19.3470    8.1110  -23.0400 O.3       1 FAD3004     0.0000 
     44 C3'        19.9260    9.6180  -24.6720 C.3       1 FAD3004     0.0000 
     45 O3'        19.1540   10.4680  -25.5540 O.3       1 FAD3004     0.0000 
     46 C4'        20.6800    8.5000  -25.4100 C.3       1 FAD3004     0.0000 
     47 O4'        21.4930    7.6040  -24.6190 O.3       1 FAD3004     0.0000 
     48 C5'        21.5720    9.1600  -26.4120 C.3       1 FAD3004     0.0000 
     49 O5'        22.0810    8.1580  -27.2670 O.3       1 FAD3004     0.0000 
     50 P          21.8380    8.3040  -28.8360 P.3       1 FAD3004     0.0000 
     51 O1P        22.6230    7.1720  -29.4670 O.co2     1 FAD3004     0.0000 
     52 O2P        20.3590    8.5300  -29.1080 O.co2     1 FAD3004     0.0000 
     53 O3P        22.5470    9.7510  -28.9850 O.3       1 FAD3004     0.0000 
@<TRIPOS>BOND
     1    1    2 ar   
     2    1    3 ar   
     3    1    4 1    
     4    1   53 1    
     5    4    5 1    
     6    5    6 1    
     7    6    7 1    
     8    6    8 1    
     9    7   12 1    
    10    8    9 1    
    11    8   10 1    
    12   10   11 1    
    13   10   12 1    
    14   12   13 1    
    15   13   14 1    
    16   13   22 1    
    17   14   15 2    
    18   15   16 1    
    19   16   17 ar   
    20   16   22 ar   
    21   17   18 1    
    22   17   19 ar   
    23   19   20 ar   
    24   20   21 ar   
    25   21   22 ar   
    26   23   24 1    
    27   23   40 2    
    28   24   25 2    
    29   24   26 am   
    30   26   27 am   
    31   27   28 2    
    32   27   29 1    
    33   29   30 2    
    34   29   40 1    
    35   30   31 1    
    36   31   32 ar   
    37   31   38 ar   
    38   32   33 ar   
    39   33   34 1    
    40   33   35 ar   
    41   35   36 1    
    42   35   37 ar   
    43   37   38 ar   
    44   38   39 1    
    45   39   40 1    
    46   39   41 1    
    47   41   42 1    
    48   42   43 1    
    49   42   44 1    
    50   44   45 1    
    51   44   46 1    
    52   46   47 1    
    53   46   48 1    
    54   48   49 1    
    55   49   50 1    
    56   50   51 ar   
    57   50   52 ar   
    58   50   53 1    
@<TRIPOS>SUBSTRUCTURE
     1 FAD3004     1 GROUP   
@<TRIPOS>SET
ATOM$ORANGE STATIC     ATOMS   COLORGROUP SYSTEM 
54 5 5 6 6 8 8 10 10 12 12 14 14 16 16 17 17 20 \
20 22 22 24 24 27 27 29 29 31 31 32 32 33 33 34 34 35 \
35 36 36 37 37 38 38 40 40 41 41 42 42 44 44 46 46 48 \
48 

