#    Name: 6adj_2_FAD
#    Modification time : Fri May 22 19:31:01 2020

@<TRIPOS>MOLECULE
6adj_2_FAD
   53    58     1     0     1
SMALL
NO_CHARGES


@<TRIPOS>ATOM
      1 PA         -1.2060   22.4810  -88.3080 P.3       1 FAD4004     0.0000 
      2 O1A        -2.3080   21.6610  -87.6810 O.co2     1 FAD4004     0.0000 
      3 O2A        -0.2080   23.1680  -87.4760 O.co2     1 FAD4004     0.0000 
      4 O5B        -0.5100   21.6260  -89.4730 O.3       1 FAD4004     0.0000 
      5 C5B        -1.3380   21.0340  -90.4770 C.3       1 FAD4004     0.0000 
      6 C4B        -0.5300   20.3350  -91.5500 C.3       1 FAD4004     0.0000 
      7 O4B         0.1630   21.2290  -92.4970 O.3       1 FAD4004     0.0000 
      8 C3B         0.5200   19.4920  -90.8830 C.3       1 FAD4004     0.0000 
      9 O3B         0.7800   18.2620  -91.6130 O.3       1 FAD4004     0.0000 
     10 C2B         1.7510   20.3870  -90.9590 C.3       1 FAD4004     0.0000 
     11 O2B         2.9690   19.6530  -90.9000 O.3       1 FAD4004     0.0000 
     12 C1B         1.5820   21.0220  -92.3160 C.3       1 FAD4004     0.0000 
     13 N9A         2.1660   22.3470  -92.5160 N.pl3     1 FAD4004     0.0000 
     14 C8A         1.8720   23.4740  -91.8850 C.2       1 FAD4004     0.0000 
     15 N7A         2.5960   24.5390  -92.4190 N.2       1 FAD4004     0.0000 
     16 C5A         3.3640   24.0320  -93.3870 C.ar      1 FAD4004     0.0000 
     17 C6A         4.2490   24.5930  -94.3770 C.ar      1 FAD4004     0.0000 
     18 N6A         4.5220   25.8780  -94.3200 N.pl3     1 FAD4004     0.0000 
     19 N1A         4.8490   23.7730  -95.2460 N.ar      1 FAD4004     0.0000 
     20 C2A         4.5380   22.4760  -95.2580 C.ar      1 FAD4004     0.0000 
     21 N3A         3.6930   21.8620  -94.4130 N.ar      1 FAD4004     0.0000 
     22 C4A         3.0950   22.6150  -93.4650 C.ar      1 FAD4004     0.0000 
     23 N1        -10.8720   23.6540  -92.7870 N.2       1 FAD4004     0.0000 
     24 C2        -11.6760   24.0190  -93.8430 C.2       1 FAD4004     0.0000 
     25 O2        -11.2470   23.9180  -95.0150 O.2       1 FAD4004     0.0000 
     26 N3        -12.9550   24.4290  -93.7030 N.am      1 FAD4004     0.0000 
     27 C4        -13.5380   24.5580  -92.5220 C.2       1 FAD4004     0.0000 
     28 O4        -14.7410   24.9400  -92.4340 O.2       1 FAD4004     0.0000 
     29 C4X       -12.7320   24.2320  -91.3240 C.2       1 FAD4004     0.0000 
     30 N5        -13.2550   24.3360  -90.0800 N.2       1 FAD4004     0.0000 
     31 C5X       -12.5860   24.0050  -88.9980 C.ar      1 FAD4004     0.0000 
     32 C6        -13.1740   24.0680  -87.7500 C.ar      1 FAD4004     0.0000 
     33 C7        -12.4150   23.7810  -86.5880 C.ar      1 FAD4004     0.0000 
     34 C7M       -13.0660   23.8600  -85.2190 C.3       1 FAD4004     0.0000 
     35 C8        -11.0330   23.3490  -86.7270 C.ar      1 FAD4004     0.0000 
     36 C8M       -10.2160   22.9580  -85.5370 C.3       1 FAD4004     0.0000 
     37 C9        -10.4700   23.2240  -87.9840 C.ar      1 FAD4004     0.0000 
     38 C9A       -11.1840   23.5520  -89.1500 C.ar      1 FAD4004     0.0000 
     39 N10       -10.6020   23.4900  -90.4660 N.pl3     1 FAD4004     0.0000 
     40 C10       -11.3450   23.8130  -91.5520 C.2       1 FAD4004     0.0000 
     41 C1'        -9.2370   23.0360  -90.6660 C.3       1 FAD4004     0.0000 
     42 C2'        -8.3160   24.2580  -90.4700 C.3       1 FAD4004     0.0000 
     43 O2'        -8.2910   25.2590  -91.5590 O.3       1 FAD4004     0.0000 
     44 C3'        -6.9710   23.7040  -90.6330 C.3       1 FAD4004     0.0000 
     45 O3'        -6.9490   22.8050  -89.5180 O.3       1 FAD4004     0.0000 
     46 C4'        -5.8870   24.7590  -90.5410 C.3       1 FAD4004     0.0000 
     47 O4'        -5.8790   25.6410  -91.6710 O.3       1 FAD4004     0.0000 
     48 C5'        -4.5840   24.0170  -90.4100 C.3       1 FAD4004     0.0000 
     49 O5'        -3.5770   25.0180  -90.2220 O.3       1 FAD4004     0.0000 
     50 P          -2.6780   24.9200  -88.9550 P.3       1 FAD4004     0.0000 
     51 O1P        -1.6510   26.0390  -88.9940 O.co2     1 FAD4004     0.0000 
     52 O2P        -3.5760   24.8060  -87.7710 O.co2     1 FAD4004     0.0000 
     53 O3P        -1.9430   23.5420  -89.3090 O.3       1 FAD4004     0.0000 
@<TRIPOS>BOND
     1    1    2 ar   
     2    1    3 ar   
     3    1    4 1    
     4    1   53 1    
     5    4    5 1    
     6    5    6 1    
     7    6    7 1    
     8    6    8 1    
     9    7   12 1    
    10    8    9 1    
    11    8   10 1    
    12   10   11 1    
    13   10   12 1    
    14   12   13 1    
    15   13   14 1    
    16   13   22 1    
    17   14   15 2    
    18   15   16 1    
    19   16   17 ar   
    20   16   22 ar   
    21   17   18 1    
    22   17   19 ar   
    23   19   20 ar   
    24   20   21 ar   
    25   21   22 ar   
    26   23   24 1    
    27   23   40 2    
    28   24   25 2    
    29   24   26 am   
    30   26   27 am   
    31   27   28 2    
    32   27   29 1    
    33   29   30 2    
    34   29   40 1    
    35   30   31 1    
    36   31   32 ar   
    37   31   38 ar   
    38   32   33 ar   
    39   33   34 1    
    40   33   35 ar   
    41   35   36 1    
    42   35   37 ar   
    43   37   38 ar   
    44   38   39 1    
    45   39   40 1    
    46   39   41 1    
    47   41   42 1    
    48   42   43 1    
    49   42   44 1    
    50   44   45 1    
    51   44   46 1    
    52   46   47 1    
    53   46   48 1    
    54   48   49 1    
    55   49   50 1    
    56   50   51 ar   
    57   50   52 ar   
    58   50   53 1    
@<TRIPOS>SUBSTRUCTURE
     1 FAD4004     1 GROUP   
@<TRIPOS>SET
ATOM$ORANGE STATIC     ATOMS   COLORGROUP SYSTEM 
54 5 5 6 6 8 8 10 10 12 12 14 14 16 16 17 17 20 \
20 22 22 24 24 27 27 29 29 31 31 32 32 33 33 34 34 35 \
35 36 36 37 37 38 38 40 40 41 41 42 42 44 44 46 46 48 \
48 

