#    Name: 6eci_17_FAD
#    Modification time : Fri May 22 19:28:33 2020

@<TRIPOS>MOLECULE
6eci_17_FAD
   53    58     1     0     1
SMALL
NO_CHARGES


@<TRIPOS>ATOM
      1 PA         11.7960   36.2880   26.4050 P.3       1 FAD202      0.0000 
      2 O1A        11.1400   35.9090   27.6970 O.co2     1 FAD202      0.0000 
      3 O2A        11.5440   37.7150   25.8660 O.co2     1 FAD202      0.0000 
      4 O5B        11.4760   35.1730   25.2500 O.3       1 FAD202      0.0000 
      5 C5B        10.1270   34.8620   24.8330 C.3       1 FAD202      0.0000 
      6 C4B        10.1360   33.5130   24.1430 C.3       1 FAD202      0.0000 
      7 O4B        11.2180   33.4730   23.1950 O.3       1 FAD202      0.0000 
      8 C3B        10.3140   32.3230   25.0840 C.3       1 FAD202      0.0000 
      9 O3B         9.0680   31.6710   25.2990 O.3       1 FAD202      0.0000 
     10 C2B        11.3110   31.3930   24.3710 C.3       1 FAD202      0.0000 
     11 O2B        10.7120   30.1840   23.9160 O.3       1 FAD202      0.0000 
     12 C1B        11.8660   32.2220   23.2060 C.3       1 FAD202      0.0000 
     13 N9A        13.3030   32.4640   23.2850 N.pl3     1 FAD202      0.0000 
     14 C8A        13.9790   33.1050   24.2890 C.2       1 FAD202      0.0000 
     15 N7A        15.2730   33.1880   24.0950 N.2       1 FAD202      0.0000 
     16 C5A        15.4610   32.5580   22.8730 C.ar      1 FAD202      0.0000 
     17 C6A        16.6110   32.3050   22.1030 C.ar      1 FAD202      0.0000 
     18 N6A        17.8430   32.6780   22.4620 N.pl3     1 FAD202      0.0000 
     19 N1A        16.4490   31.6550   20.9290 N.ar      1 FAD202      0.0000 
     20 C2A        15.2200   31.2830   20.5630 C.ar      1 FAD202      0.0000 
     21 N3A        14.0660   31.4610   21.2070 N.ar      1 FAD202      0.0000 
     22 C4A        14.2550   32.1100   22.3630 C.ar      1 FAD202      0.0000 
     23 N1         21.8850   35.4240   28.1990 N.2       1 FAD202      0.0000 
     24 C2         22.5380   35.7110   29.3620 C.2       1 FAD202      0.0000 
     25 O2         21.9330   36.1250   30.3570 O.2       1 FAD202      0.0000 
     26 N3         23.9090   35.5430   29.4380 N.am      1 FAD202      0.0000 
     27 C4         24.7300   35.0930   28.4250 C.2       1 FAD202      0.0000 
     28 O4         25.9410   34.9830   28.6110 O.2       1 FAD202      0.0000 
     29 C4X        24.0260   34.7860   27.1940 C.2       1 FAD202      0.0000 
     30 N5         24.7240   34.3530   26.1820 N.2       1 FAD202      0.0000 
     31 C5X        24.0520   34.0560   25.0070 C.ar      1 FAD202      0.0000 
     32 C6         24.7860   33.5960   23.9130 C.ar      1 FAD202      0.0000 
     33 C7         24.1600   33.2880   22.7100 C.ar      1 FAD202      0.0000 
     34 C7M        24.9840   32.7900   21.5520 C.3       1 FAD202      0.0000 
     35 C8         22.7690   33.4450   22.5920 C.ar      1 FAD202      0.0000 
     36 C8M        22.0610   33.1210   21.3030 C.3       1 FAD202      0.0000 
     37 C9         22.0340   33.9060   23.6800 C.ar      1 FAD202      0.0000 
     38 C9A        22.6630   34.2160   24.8800 C.ar      1 FAD202      0.0000 
     39 N10        21.9460   34.6790   26.0030 N.pl3     1 FAD202      0.0000 
     40 C10        22.5990   34.9810   27.1770 C.2       1 FAD202      0.0000 
     41 C1'        20.4870   34.8720   25.9340 C.3       1 FAD202      0.0000 
     42 C2'        19.6990   33.8410   26.7380 C.3       1 FAD202      0.0000 
     43 O2'        20.1500   32.5190   26.4440 O.3       1 FAD202      0.0000 
     44 C3'        18.2120   33.9750   26.4080 C.3       1 FAD202      0.0000 
     45 O3'        18.0400   33.9680   24.9960 O.3       1 FAD202      0.0000 
     46 C4'        17.5790   35.2440   26.9790 C.3       1 FAD202      0.0000 
     47 O4'        18.2030   35.5070   28.2350 O.3       1 FAD202      0.0000 
     48 C5'        16.0700   35.1520   27.1050 C.3       1 FAD202      0.0000 
     49 O5'        15.5780   36.2970   27.8380 O.3       1 FAD202      0.0000 
     50 P          14.3300   37.1420   27.3390 P.3       1 FAD202      0.0000 
     51 O1P        14.8160   38.1890   26.3310 O.co2     1 FAD202      0.0000 
     52 O2P        13.6030   37.7240   28.5070 O.co2     1 FAD202      0.0000 
     53 O3P        13.3700   36.1440   26.5550 O.3       1 FAD202      0.0000 
@<TRIPOS>BOND
     1    1    2 ar   
     2    1    3 ar   
     3    1    4 1    
     4    1   53 1    
     5    4    5 1    
     6    5    6 1    
     7    6    7 1    
     8    6    8 1    
     9    7   12 1    
    10    8    9 1    
    11    8   10 1    
    12   10   11 1    
    13   10   12 1    
    14   12   13 1    
    15   13   14 1    
    16   13   22 1    
    17   14   15 2    
    18   15   16 1    
    19   16   17 ar   
    20   16   22 ar   
    21   17   18 1    
    22   17   19 ar   
    23   19   20 ar   
    24   20   21 ar   
    25   21   22 ar   
    26   23   24 1    
    27   23   40 2    
    28   24   25 2    
    29   24   26 am   
    30   26   27 am   
    31   27   28 2    
    32   27   29 1    
    33   29   30 2    
    34   29   40 1    
    35   30   31 1    
    36   31   32 ar   
    37   31   38 ar   
    38   32   33 ar   
    39   33   34 1    
    40   33   35 ar   
    41   35   36 1    
    42   35   37 ar   
    43   37   38 ar   
    44   38   39 1    
    45   39   40 1    
    46   39   41 1    
    47   41   42 1    
    48   42   43 1    
    49   42   44 1    
    50   44   45 1    
    51   44   46 1    
    52   46   47 1    
    53   46   48 1    
    54   48   49 1    
    55   49   50 1    
    56   50   51 ar   
    57   50   52 ar   
    58   50   53 1    
@<TRIPOS>SUBSTRUCTURE
     1 FAD202      1 GROUP   
@<TRIPOS>SET
ATOM$ORANGE STATIC     ATOMS   COLORGROUP SYSTEM 
54 5 5 6 6 8 8 10 10 12 12 14 14 16 16 17 17 20 \
20 22 22 24 24 27 27 29 29 31 31 32 32 33 33 34 34 35 \
35 36 36 37 37 38 38 40 40 41 41 42 42 44 44 46 46 48 \
48 

