#    Name: 6eci_10_FAD
#    Modification time : Fri May 22 19:27:50 2020

@<TRIPOS>MOLECULE
6eci_10_FAD
   53    58     1     0     1
SMALL
NO_CHARGES


@<TRIPOS>ATOM
      1 PA         33.9460  -30.9630  121.2130 P.3       1 FAD201      0.0000 
      2 O1A        33.9180  -29.8720  122.2180 O.co2     1 FAD201      0.0000 
      3 O2A        35.0860  -31.9710  121.3740 O.co2     1 FAD201      0.0000 
      4 O5B        32.5760  -31.7320  121.2340 O.3       1 FAD201      0.0000 
      5 C5B        31.9320  -32.0740  122.4800 C.3       1 FAD201      0.0000 
      6 C4B        30.5020  -32.4600  122.2020 C.3       1 FAD201      0.0000 
      7 O4B        29.8690  -31.3960  121.4710 O.3       1 FAD201      0.0000 
      8 C3B        30.3350  -33.7420  121.3870 C.3       1 FAD201      0.0000 
      9 O3B        29.7670  -34.7780  122.1810 O.3       1 FAD201      0.0000 
     10 C2B        29.4360  -33.3520  120.2000 C.3       1 FAD201      0.0000 
     11 O2B        28.2890  -34.1900  120.1060 O.3       1 FAD201      0.0000 
     12 C1B        29.0080  -31.9100  120.4870 C.3       1 FAD201      0.0000 
     13 N9A        29.1140  -31.0400  119.3210 N.pl3     1 FAD201      0.0000 
     14 C8A        30.2630  -30.4840  118.8240 C.2       1 FAD201      0.0000 
     15 N7A        30.0800  -29.7380  117.7610 N.2       1 FAD201      0.0000 
     16 C5A        28.7130  -29.8130  117.5410 C.ar      1 FAD201      0.0000 
     17 C6A        27.8780  -29.2420  116.5630 C.ar      1 FAD201      0.0000 
     18 N6A        28.3170  -28.4490  115.5810 N.pl3     1 FAD201      0.0000 
     19 N1A        26.5570  -29.5150  116.6310 N.ar      1 FAD201      0.0000 
     20 C2A        26.1110  -30.3010  117.6140 C.ar      1 FAD201      0.0000 
     21 N3A        26.8020  -30.8970  118.5880 N.ar      1 FAD201      0.0000 
     22 C4A        28.1040  -30.6100  118.4960 C.ar      1 FAD201      0.0000 
     23 N1         34.0860  -25.5010  112.7070 N.2       1 FAD201      0.0000 
     24 C2         35.1820  -25.2780  111.9260 C.2       1 FAD201      0.0000 
     25 O2         36.3150  -25.6030  112.2950 O.2       1 FAD201      0.0000 
     26 N3         35.0310  -24.6700  110.6910 N.am      1 FAD201      0.0000 
     27 C4         33.8420  -24.2460  110.1330 C.2       1 FAD201      0.0000 
     28 O4         33.8340  -23.7180  109.0210 O.2       1 FAD201      0.0000 
     29 C4X        32.6840  -24.4890  110.9720 C.2       1 FAD201      0.0000 
     30 N5         31.5120  -24.1200  110.5270 N.2       1 FAD201      0.0000 
     31 C5X        30.4080  -24.3530  111.3340 C.ar      1 FAD201      0.0000 
     32 C6         29.1480  -23.9670  110.8780 C.ar      1 FAD201      0.0000 
     33 C7         28.0110  -24.1800  111.6500 C.ar      1 FAD201      0.0000 
     34 C7M        26.6660  -23.7490  111.1260 C.3       1 FAD201      0.0000 
     35 C8         28.1310  -24.7950  112.9080 C.ar      1 FAD201      0.0000 
     36 C8M        26.9210  -25.0390  113.7690 C.3       1 FAD201      0.0000 
     37 C9         29.3870  -25.1800  113.3660 C.ar      1 FAD201      0.0000 
     38 C9A        30.5200  -24.9650  112.5910 C.ar      1 FAD201      0.0000 
     39 N10        31.8050  -25.3420  113.0300 N.pl3     1 FAD201      0.0000 
     40 C10        32.9090  -25.1240  112.2450 C.2       1 FAD201      0.0000 
     41 C1'        31.9900  -26.0020  114.3280 C.3       1 FAD201      0.0000 
     42 C2'        32.0140  -27.5230  114.2180 C.3       1 FAD201      0.0000 
     43 O2'        30.8090  -27.9970  113.6190 O.3       1 FAD201      0.0000 
     44 C3'        32.1570  -28.1310  115.6130 C.3       1 FAD201      0.0000 
     45 O3'        31.3910  -27.3670  116.5370 O.3       1 FAD201      0.0000 
     46 C4'        33.6010  -28.2100  116.1040 C.3       1 FAD201      0.0000 
     47 O4'        34.4710  -28.3550  114.9810 O.3       1 FAD201      0.0000 
     48 C5'        33.8140  -29.3390  117.0900 C.3       1 FAD201      0.0000 
     49 O5'        35.0160  -29.0800  117.8450 O.3       1 FAD201      0.0000 
     50 P          35.0220  -29.1410  119.4180 P.3       1 FAD201      0.0000 
     51 O1P        34.3970  -27.8660  119.9920 O.co2     1 FAD201      0.0000 
     52 O2P        36.3920  -29.4420  119.9070 O.co2     1 FAD201      0.0000 
     53 O3P        34.0470  -30.3500  119.7550 O.3       1 FAD201      0.0000 
@<TRIPOS>BOND
     1    1    2 ar   
     2    1    3 ar   
     3    1    4 1    
     4    1   53 1    
     5    4    5 1    
     6    5    6 1    
     7    6    7 1    
     8    6    8 1    
     9    7   12 1    
    10    8    9 1    
    11    8   10 1    
    12   10   11 1    
    13   10   12 1    
    14   12   13 1    
    15   13   14 1    
    16   13   22 1    
    17   14   15 2    
    18   15   16 1    
    19   16   17 ar   
    20   16   22 ar   
    21   17   18 1    
    22   17   19 ar   
    23   19   20 ar   
    24   20   21 ar   
    25   21   22 ar   
    26   23   24 1    
    27   23   40 2    
    28   24   25 2    
    29   24   26 am   
    30   26   27 am   
    31   27   28 2    
    32   27   29 1    
    33   29   30 2    
    34   29   40 1    
    35   30   31 1    
    36   31   32 ar   
    37   31   38 ar   
    38   32   33 ar   
    39   33   34 1    
    40   33   35 ar   
    41   35   36 1    
    42   35   37 ar   
    43   37   38 ar   
    44   38   39 1    
    45   39   40 1    
    46   39   41 1    
    47   41   42 1    
    48   42   43 1    
    49   42   44 1    
    50   44   45 1    
    51   44   46 1    
    52   46   47 1    
    53   46   48 1    
    54   48   49 1    
    55   49   50 1    
    56   50   51 ar   
    57   50   52 ar   
    58   50   53 1    
@<TRIPOS>SUBSTRUCTURE
     1 FAD201      1 GROUP   
@<TRIPOS>SET
ATOM$ORANGE STATIC     ATOMS   COLORGROUP SYSTEM 
54 5 5 6 6 8 8 10 10 12 12 14 14 16 16 17 17 20 \
20 22 22 24 24 27 27 29 29 31 31 32 32 33 33 34 34 35 \
35 36 36 37 37 38 38 40 40 41 41 42 42 44 44 46 46 48 \
48 

