#    Name: 6eci_7_FAD
#    Modification time : Fri May 22 19:27:32 2020

@<TRIPOS>MOLECULE
6eci_7_FAD
   53    58     1     0     1
SMALL
NO_CHARGES


@<TRIPOS>ATOM
      1 PA         12.6000  -30.1140   73.0000 P.3       1 FAD201      0.0000 
      2 O1A        11.7440  -31.3260   72.9870 O.co2     1 FAD201      0.0000 
      3 O2A        12.2250  -29.0350   71.9860 O.co2     1 FAD201      0.0000 
      4 O5B        12.5970  -29.4490   74.4340 O.3       1 FAD201      0.0000 
      5 C5B        11.3590  -29.1810   75.1270 C.3       1 FAD201      0.0000 
      6 C4B        11.6070  -28.3390   76.3550 C.3       1 FAD201      0.0000 
      7 O4B        12.9820  -28.4790   76.7760 O.3       1 FAD201      0.0000 
      8 C3B        11.3380  -26.8410   76.1940 C.3       1 FAD201      0.0000 
      9 O3B        10.4720  -26.3570   77.2140 O.3       1 FAD201      0.0000 
     10 C2B        12.7320  -26.2040   76.2740 C.3       1 FAD201      0.0000 
     11 O2B        12.6990  -24.9440   76.9350 O.3       1 FAD201      0.0000 
     12 C1B        13.5010  -27.2170   77.1190 C.3       1 FAD201      0.0000 
     13 N9A        14.9340  -27.2280   76.8480 N.pl3     1 FAD201      0.0000 
     14 C8A        15.5520  -27.6950   75.7190 C.2       1 FAD201      0.0000 
     15 N7A        16.8580  -27.5810   75.7350 N.2       1 FAD201      0.0000 
     16 C5A        17.1180  -26.9850   76.9600 C.ar      1 FAD201      0.0000 
     17 C6A        18.3160  -26.5980   77.5900 C.ar      1 FAD201      0.0000 
     18 N6A        19.5250  -26.7490   77.0450 N.pl3     1 FAD201      0.0000 
     19 N1A        18.2240  -26.0380   78.8170 N.ar      1 FAD201      0.0000 
     20 C2A        17.0180  -25.8850   79.3670 C.ar      1 FAD201      0.0000 
     21 N3A        15.8230  -26.2140   78.8710 N.ar      1 FAD201      0.0000 
     22 C4A        15.9430  -26.7650   77.6580 C.ar      1 FAD201      0.0000 
     23 N1         22.1070  -29.2540   70.6690 N.2       1 FAD201      0.0000 
     24 C2         22.6210  -29.2890   69.4040 C.2       1 FAD201      0.0000 
     25 O2         21.9230  -29.5840   68.4280 O.2       1 FAD201      0.0000 
     26 N3         23.9570  -28.9890   69.1990 N.am      1 FAD201      0.0000 
     27 C4         24.8720  -28.6400   70.1740 C.2       1 FAD201      0.0000 
     28 O4         26.0380  -28.3940   69.8700 O.2       1 FAD201      0.0000 
     29 C4X        24.3150  -28.6050   71.5130 C.2       1 FAD201      0.0000 
     30 N5         25.1080  -28.2840   72.4980 N.2       1 FAD201      0.0000 
     31 C5X        24.5760  -28.2500   73.7780 C.ar      1 FAD201      0.0000 
     32 C6         25.4100  -27.9110   74.8420 C.ar      1 FAD201      0.0000 
     33 C7         24.9240  -27.8630   76.1450 C.ar      1 FAD201      0.0000 
     34 C7M        25.8530  -27.4920   77.2710 C.3       1 FAD201      0.0000 
     35 C8         23.5730  -28.1590   76.3930 C.ar      1 FAD201      0.0000 
     36 C8M        23.0160  -28.1180   77.7910 C.3       1 FAD201      0.0000 
     37 C9         22.7380  -28.5000   75.3320 C.ar      1 FAD201      0.0000 
     38 C9A        23.2290  -28.5480   74.0330 C.ar      1 FAD201      0.0000 
     39 N10        22.4080  -28.8850   72.9380 N.pl3     1 FAD201      0.0000 
     40 C10        22.9200  -28.9260   71.6620 C.2       1 FAD201      0.0000 
     41 C1'        20.9900  -29.2110   73.1390 C.3       1 FAD201      0.0000 
     42 C2'        20.0570  -28.0430   72.8410 C.3       1 FAD201      0.0000 
     43 O2'        20.3920  -26.9080   73.6410 O.3       1 FAD201      0.0000 
     44 C3'        18.6140  -28.4650   73.1200 C.3       1 FAD201      0.0000 
     45 O3'        18.6010  -29.3260   74.2540 O.3       1 FAD201      0.0000 
     46 C4'        17.9260  -29.1780   71.9560 C.3       1 FAD201      0.0000 
     47 O4'        18.2920  -28.5580   70.7230 O.3       1 FAD201      0.0000 
     48 C5'        16.4200  -29.2090   72.1030 C.3       1 FAD201      0.0000 
     49 O5'        15.8600  -30.0090   71.0410 O.3       1 FAD201      0.0000 
     50 P          14.6380  -30.9690   71.2970 P.3       1 FAD201      0.0000 
     51 O1P        15.1310  -32.4160   71.4060 O.co2     1 FAD201      0.0000 
     52 O2P        13.5820  -30.7550   70.2730 O.co2     1 FAD201      0.0000 
     53 O3P        14.1100  -30.5160   72.7300 O.3       1 FAD201      0.0000 
@<TRIPOS>BOND
     1    1    2 ar   
     2    1    3 ar   
     3    1    4 1    
     4    1   53 1    
     5    4    5 1    
     6    5    6 1    
     7    6    7 1    
     8    6    8 1    
     9    7   12 1    
    10    8    9 1    
    11    8   10 1    
    12   10   11 1    
    13   10   12 1    
    14   12   13 1    
    15   13   14 1    
    16   13   22 1    
    17   14   15 2    
    18   15   16 1    
    19   16   17 ar   
    20   16   22 ar   
    21   17   18 1    
    22   17   19 ar   
    23   19   20 ar   
    24   20   21 ar   
    25   21   22 ar   
    26   23   24 1    
    27   23   40 2    
    28   24   25 2    
    29   24   26 am   
    30   26   27 am   
    31   27   28 2    
    32   27   29 1    
    33   29   30 2    
    34   29   40 1    
    35   30   31 1    
    36   31   32 ar   
    37   31   38 ar   
    38   32   33 ar   
    39   33   34 1    
    40   33   35 ar   
    41   35   36 1    
    42   35   37 ar   
    43   37   38 ar   
    44   38   39 1    
    45   39   40 1    
    46   39   41 1    
    47   41   42 1    
    48   42   43 1    
    49   42   44 1    
    50   44   45 1    
    51   44   46 1    
    52   46   47 1    
    53   46   48 1    
    54   48   49 1    
    55   49   50 1    
    56   50   51 ar   
    57   50   52 ar   
    58   50   53 1    
@<TRIPOS>SUBSTRUCTURE
     1 FAD201      1 GROUP   
@<TRIPOS>SET
ATOM$ORANGE STATIC     ATOMS   COLORGROUP SYSTEM 
54 5 5 6 6 8 8 10 10 12 12 14 14 16 16 17 17 20 \
20 22 22 24 24 27 27 29 29 31 31 32 32 33 33 34 34 35 \
35 36 36 37 37 38 38 40 40 41 41 42 42 44 44 46 46 48 \
48 

