#    Name: 6eci_1_FAD
#    Modification time : Fri May 22 19:26:48 2020

@<TRIPOS>MOLECULE
6eci_1_FAD
   53    58     1     0     1
SMALL
NO_CHARGES


@<TRIPOS>ATOM
      1 PA        -16.8740   -6.5830   14.1030 P.3       1 FAD201      0.0000 
      2 O1A       -18.3260   -6.8480   13.9460 O.co2     1 FAD201      0.0000 
      3 O2A       -16.3450   -5.3340   13.3890 O.co2     1 FAD201      0.0000 
      4 O5B       -16.4470   -6.5280   15.6210 O.3       1 FAD201      0.0000 
      5 C5B       -17.2030   -5.7750   16.5910 C.3       1 FAD201      0.0000 
      6 C4B       -16.6410   -6.0820   17.9560 C.3       1 FAD201      0.0000 
      7 O4B       -16.6600   -7.5080   18.1680 O.3       1 FAD201      0.0000 
      8 C3B       -15.1860   -5.6810   18.1620 C.3       1 FAD201      0.0000 
      9 O3B       -15.0770   -4.3180   18.5560 O.3       1 FAD201      0.0000 
     10 C2B       -14.7330   -6.6370   19.2710 C.3       1 FAD201      0.0000 
     11 O2B       -14.9830   -6.1410   20.5810 O.3       1 FAD201      0.0000 
     12 C1B       -15.5660   -7.8930   18.9840 C.3       1 FAD201      0.0000 
     13 N9A       -14.8150   -8.9310   18.2930 N.pl3     1 FAD201      0.0000 
     14 C8A       -14.5360   -9.0000   16.9530 C.2       1 FAD201      0.0000 
     15 N7A       -13.8200  -10.0410   16.6070 N.2       1 FAD201      0.0000 
     16 C5A       -13.6040  -10.7030   17.8120 C.ar      1 FAD201      0.0000 
     17 C6A       -12.9110  -11.8850   18.1270 C.ar      1 FAD201      0.0000 
     18 N6A       -12.2830  -12.6460   17.2300 N.pl3     1 FAD201      0.0000 
     19 N1A       -12.8930  -12.2670   19.4250 N.ar      1 FAD201      0.0000 
     20 C2A       -13.5250  -11.5140   20.3270 C.ar      1 FAD201      0.0000 
     21 N3A       -14.2050  -10.3810   20.1450 N.ar      1 FAD201      0.0000 
     22 C4A       -14.2090  -10.0270   18.8500 C.ar      1 FAD201      0.0000 
     23 N1        -10.7320  -13.7570   10.0390 N.2       1 FAD201      0.0000 
     24 C2        -10.0790  -13.7370    8.8420 C.2       1 FAD201      0.0000 
     25 O2        -10.3450  -12.8970    7.9760 O.2       1 FAD201      0.0000 
     26 N3         -9.0960  -14.6770    8.5830 N.am      1 FAD201      0.0000 
     27 C4         -8.6810  -15.6770    9.4390 C.2       1 FAD201      0.0000 
     28 O4         -7.7940  -16.4560    9.0940 O.2       1 FAD201      0.0000 
     29 C4X        -9.3820  -15.6890   10.7100 C.2       1 FAD201      0.0000 
     30 N5         -9.0560  -16.6020   11.5840 N.2       1 FAD201      0.0000 
     31 C5X        -9.7260  -16.6100   12.7990 C.ar      1 FAD201      0.0000 
     32 C6         -9.3910  -17.5760   13.7450 C.ar      1 FAD201      0.0000 
     33 C7        -10.0330  -17.6260   14.9780 C.ar      1 FAD201      0.0000 
     34 C7M        -9.6450  -18.6860   15.9740 C.3       1 FAD201      0.0000 
     35 C8        -11.0330  -16.6850   15.2770 C.ar      1 FAD201      0.0000 
     36 C8M       -11.7500  -16.7160   16.6000 C.3       1 FAD201      0.0000 
     37 C9        -11.3720  -15.7190   14.3340 C.ar      1 FAD201      0.0000 
     38 C9A       -10.7260  -15.6750   13.1040 C.ar      1 FAD201      0.0000 
     39 N10       -11.0440  -14.7070   12.1300 N.pl3     1 FAD201      0.0000 
     40 C10       -10.3910  -14.6850   10.9200 C.2       1 FAD201      0.0000 
     41 C1'       -12.0790  -13.6990   12.3860 C.3       1 FAD201      0.0000 
     42 C2'       -11.5050  -12.3130   12.6530 C.3       1 FAD201      0.0000 
     43 O2'       -11.1690  -12.1760   14.0340 O.3       1 FAD201      0.0000 
     44 C3'       -12.5390  -11.2570   12.2610 C.3       1 FAD201      0.0000 
     45 O3'       -12.0060  -10.3920   11.2650 O.3       1 FAD201      0.0000 
     46 C4'       -13.0130  -10.4270   13.4480 C.3       1 FAD201      0.0000 
     47 O4'       -13.9060  -11.2440   14.2030 O.3       1 FAD201      0.0000 
     48 C5'       -13.6500   -9.1130   13.0410 C.3       1 FAD201      0.0000 
     49 O5'       -14.7610   -9.3790   12.1610 O.3       1 FAD201      0.0000 
     50 P         -16.0280   -8.4410   12.1290 P.3       1 FAD201      0.0000 
     51 O1P       -17.2890   -9.2960   11.9700 O.co2     1 FAD201      0.0000 
     52 O2P       -15.8810   -7.3620   11.1270 O.co2     1 FAD201      0.0000 
     53 O3P       -16.0370   -7.8280   13.5920 O.3       1 FAD201      0.0000 
@<TRIPOS>BOND
     1    1    2 ar   
     2    1    3 ar   
     3    1    4 1    
     4    1   53 1    
     5    4    5 1    
     6    5    6 1    
     7    6    7 1    
     8    6    8 1    
     9    7   12 1    
    10    8    9 1    
    11    8   10 1    
    12   10   11 1    
    13   10   12 1    
    14   12   13 1    
    15   13   14 1    
    16   13   22 1    
    17   14   15 2    
    18   15   16 1    
    19   16   17 ar   
    20   16   22 ar   
    21   17   18 1    
    22   17   19 ar   
    23   19   20 ar   
    24   20   21 ar   
    25   21   22 ar   
    26   23   24 1    
    27   23   40 2    
    28   24   25 2    
    29   24   26 am   
    30   26   27 am   
    31   27   28 2    
    32   27   29 1    
    33   29   30 2    
    34   29   40 1    
    35   30   31 1    
    36   31   32 ar   
    37   31   38 ar   
    38   32   33 ar   
    39   33   34 1    
    40   33   35 ar   
    41   35   36 1    
    42   35   37 ar   
    43   37   38 ar   
    44   38   39 1    
    45   39   40 1    
    46   39   41 1    
    47   41   42 1    
    48   42   43 1    
    49   42   44 1    
    50   44   45 1    
    51   44   46 1    
    52   46   47 1    
    53   46   48 1    
    54   48   49 1    
    55   49   50 1    
    56   50   51 ar   
    57   50   52 ar   
    58   50   53 1    
@<TRIPOS>SUBSTRUCTURE
     1 FAD201      1 GROUP   
@<TRIPOS>SET
ATOM$ORANGE STATIC     ATOMS   COLORGROUP SYSTEM 
54 5 5 6 6 8 8 10 10 12 12 14 14 16 16 17 17 20 \
20 22 22 24 24 27 27 29 29 31 31 32 32 33 33 34 34 35 \
35 36 36 37 37 38 38 40 40 41 41 42 42 44 44 46 46 48 \
48 

