#    Name: 6eci_5_FAD
#    Modification time : Fri May 22 19:27:20 2020

@<TRIPOS>MOLECULE
6eci_5_FAD
   53    58     1     0     1
SMALL
NO_CHARGES


@<TRIPOS>ATOM
      1 PA        -22.7260    0.7200   71.5030 P.3       1 FAD201      0.0000 
      2 O1A       -23.9140    1.6100   71.5440 O.co2     1 FAD201      0.0000 
      3 O2A       -21.3750    1.4260   71.6410 O.co2     1 FAD201      0.0000 
      4 O5B       -22.8040   -0.4330   72.5560 O.3       1 FAD201      0.0000 
      5 C5B       -23.3110   -0.2030   73.8860 C.3       1 FAD201      0.0000 
      6 C4B       -23.6130   -1.5460   74.4980 C.3       1 FAD201      0.0000 
      7 O4B       -24.8820   -2.0230   74.0040 O.3       1 FAD201      0.0000 
      8 C3B       -22.6270   -2.6520   74.1490 C.3       1 FAD201      0.0000 
      9 O3B       -21.4880   -2.6300   75.0020 O.3       1 FAD201      0.0000 
     10 C2B       -23.4740   -3.9100   74.3520 C.3       1 FAD201      0.0000 
     11 O2B       -23.5100   -4.3230   75.7130 O.3       1 FAD201      0.0000 
     12 C1B       -24.8580   -3.4360   73.8940 C.3       1 FAD201      0.0000 
     13 N9A       -25.1790   -3.8020   72.5180 N.pl3     1 FAD201      0.0000 
     14 C8A       -24.7450   -3.1940   71.3710 C.2       1 FAD201      0.0000 
     15 N7A       -25.1900   -3.7510   70.2690 N.2       1 FAD201      0.0000 
     16 C5A       -25.9650   -4.8060   70.7260 C.ar      1 FAD201      0.0000 
     17 C6A       -26.7190   -5.7900   70.0580 C.ar      1 FAD201      0.0000 
     18 N6A       -26.8190   -5.8760   68.7280 N.pl3     1 FAD201      0.0000 
     19 N1A       -27.3800   -6.6950   70.8160 N.ar      1 FAD201      0.0000 
     20 C2A       -27.2910   -6.6100   72.1450 C.ar      1 FAD201      0.0000 
     21 N3A       -26.6090   -5.7320   72.8840 N.ar      1 FAD201      0.0000 
     22 C4A       -25.9670   -4.8490   72.1100 C.ar      1 FAD201      0.0000 
     23 N1        -24.0600   -3.7020   62.5900 N.2       1 FAD201      0.0000 
     24 C2        -23.2790   -3.5260   61.4850 C.2       1 FAD201      0.0000 
     25 O2        -22.3570   -2.7030   61.4670 O.2       1 FAD201      0.0000 
     26 N3        -23.5170   -4.2830   60.3510 N.am      1 FAD201      0.0000 
     27 C4        -24.5010   -5.2420   60.2040 C.2       1 FAD201      0.0000 
     28 O4        -24.6160   -5.8530   59.1420 O.2       1 FAD201      0.0000 
     29 C4X       -25.3220   -5.4220   61.3850 C.2       1 FAD201      0.0000 
     30 N5        -26.2800   -6.3090   61.3390 N.2       1 FAD201      0.0000 
     31 C5X       -27.0660   -6.4760   62.4710 C.ar      1 FAD201      0.0000 
     32 C6        -28.0940   -7.4180   62.4440 C.ar      1 FAD201      0.0000 
     33 C7        -28.9070   -7.6220   63.5560 C.ar      1 FAD201      0.0000 
     34 C7M       -30.0100   -8.6460   63.4930 C.3       1 FAD201      0.0000 
     35 C8        -28.6870   -6.8710   64.7230 C.ar      1 FAD201      0.0000 
     36 C8M       -29.5510   -7.0650   65.9400 C.3       1 FAD201      0.0000 
     37 C9        -27.6630   -5.9290   64.7510 C.ar      1 FAD201      0.0000 
     38 C9A       -26.8550   -5.7270   63.6390 C.ar      1 FAD201      0.0000 
     39 N10       -25.8110   -4.7810   63.6390 N.pl3     1 FAD201      0.0000 
     40 C10       -25.0240   -4.6030   62.5310 C.2       1 FAD201      0.0000 
     41 C1'       -25.5310   -3.9720   64.8290 C.3       1 FAD201      0.0000 
     42 C2'       -24.4590   -4.5830   65.7230 C.3       1 FAD201      0.0000 
     43 O2'       -24.8370   -5.9020   66.1190 O.3       1 FAD201      0.0000 
     44 C3'       -24.2860   -3.7130   66.9670 C.3       1 FAD201      0.0000 
     45 O3'       -25.5740   -3.3410   67.4450 O.3       1 FAD201      0.0000 
     46 C4'       -23.4660   -2.4490   66.7140 C.3       1 FAD201      0.0000 
     47 O4'       -22.5290   -2.6890   65.6620 O.3       1 FAD201      0.0000 
     48 C5'       -22.7530   -1.9510   67.9510 C.3       1 FAD201      0.0000 
     49 O5'       -22.3970   -0.5660   67.7570 O.3       1 FAD201      0.0000 
     50 P         -22.9270    0.5540   68.7260 P.3       1 FAD201      0.0000 
     51 O1P       -22.0010    1.7700   68.6110 O.co2     1 FAD201      0.0000 
     52 O2P       -24.3670    0.8200   68.5010 O.co2     1 FAD201      0.0000 
     53 O3P       -22.7100   -0.0950   70.1450 O.3       1 FAD201      0.0000 
@<TRIPOS>BOND
     1    1    2 ar   
     2    1    3 ar   
     3    1    4 1    
     4    1   53 1    
     5    4    5 1    
     6    5    6 1    
     7    6    7 1    
     8    6    8 1    
     9    7   12 1    
    10    8    9 1    
    11    8   10 1    
    12   10   11 1    
    13   10   12 1    
    14   12   13 1    
    15   13   14 1    
    16   13   22 1    
    17   14   15 2    
    18   15   16 1    
    19   16   17 ar   
    20   16   22 ar   
    21   17   18 1    
    22   17   19 ar   
    23   19   20 ar   
    24   20   21 ar   
    25   21   22 ar   
    26   23   24 1    
    27   23   40 2    
    28   24   25 2    
    29   24   26 am   
    30   26   27 am   
    31   27   28 2    
    32   27   29 1    
    33   29   30 2    
    34   29   40 1    
    35   30   31 1    
    36   31   32 ar   
    37   31   38 ar   
    38   32   33 ar   
    39   33   34 1    
    40   33   35 ar   
    41   35   36 1    
    42   35   37 ar   
    43   37   38 ar   
    44   38   39 1    
    45   39   40 1    
    46   39   41 1    
    47   41   42 1    
    48   42   43 1    
    49   42   44 1    
    50   44   45 1    
    51   44   46 1    
    52   46   47 1    
    53   46   48 1    
    54   48   49 1    
    55   49   50 1    
    56   50   51 ar   
    57   50   52 ar   
    58   50   53 1    
@<TRIPOS>SUBSTRUCTURE
     1 FAD201      1 GROUP   
@<TRIPOS>SET
ATOM$ORANGE STATIC     ATOMS   COLORGROUP SYSTEM 
54 5 5 6 6 8 8 10 10 12 12 14 14 16 16 17 17 20 \
20 22 22 24 24 27 27 29 29 31 31 32 32 33 33 34 34 35 \
35 36 36 37 37 38 38 40 40 41 41 42 42 44 44 46 46 48 \
48 

