#    Name: 6eci_11_FAD
#    Modification time : Fri May 22 19:27:56 2020

@<TRIPOS>MOLECULE
6eci_11_FAD
   53    58     1     0     1
SMALL
NO_CHARGES


@<TRIPOS>ATOM
      1 PA        -11.9380   31.7920   22.5640 P.3       1 FAD201      0.0000 
      2 O1A       -11.5020   31.0860   21.3340 O.co2     1 FAD201      0.0000 
      3 O2A       -11.2630   33.1410   22.8500 O.co2     1 FAD201      0.0000 
      4 O5B       -11.7960   30.8340   23.7950 O.3       1 FAD201      0.0000 
      5 C5B       -10.6110   30.8370   24.6180 C.3       1 FAD201      0.0000 
      6 C4B       -10.7870   29.7670   25.6630 C.3       1 FAD201      0.0000 
      7 O4B       -12.0650   29.9430   26.3100 O.3       1 FAD201      0.0000 
      8 C3B       -10.7380   28.3330   25.1310 C.3       1 FAD201      0.0000 
      9 O3B        -9.7430   27.5550   25.7860 O.3       1 FAD201      0.0000 
     10 C2B       -12.1590   27.7920   25.3520 C.3       1 FAD201      0.0000 
     11 O2B       -12.1390   26.4480   25.8200 O.3       1 FAD201      0.0000 
     12 C1B       -12.7240   28.7070   26.4370 C.3       1 FAD201      0.0000 
     13 N9A       -14.1580   28.9460   26.2910 N.pl3     1 FAD201      0.0000 
     14 C8A       -14.8030   29.3700   25.1590 C.2       1 FAD201      0.0000 
     15 N7A       -16.1010   29.4970   25.2970 N.2       1 FAD201      0.0000 
     16 C5A       -16.3270   29.1260   26.6140 C.ar      1 FAD201      0.0000 
     17 C6A       -17.5000   29.0420   27.3880 C.ar      1 FAD201      0.0000 
     18 N6A       -18.7180   29.3430   26.9280 N.pl3     1 FAD201      0.0000 
     19 N1A       -17.3770   28.6390   28.6720 N.ar      1 FAD201      0.0000 
     20 C2A       -16.1620   28.3460   29.1410 C.ar      1 FAD201      0.0000 
     21 N3A       -14.9890   28.3790   28.5050 N.ar      1 FAD201      0.0000 
     22 C4A       -15.1390   28.7830   27.2390 C.ar      1 FAD201      0.0000 
     23 N1        -21.9210   32.0570   21.1350 N.2       1 FAD201      0.0000 
     24 C2        -22.5710   32.1810   19.9420 C.2       1 FAD201      0.0000 
     25 O2        -21.9550   32.3370   18.8810 O.2       1 FAD201      0.0000 
     26 N3        -23.9540   32.1330   19.9080 N.am      1 FAD201      0.0000 
     27 C4        -24.7900   31.9660   20.9960 C.2       1 FAD201      0.0000 
     28 O4        -26.0100   31.9410   20.8410 O.2       1 FAD201      0.0000 
     29 C4X       -24.0880   31.8330   22.2580 C.2       1 FAD201      0.0000 
     30 N5        -24.7970   31.6700   23.3410 N.2       1 FAD201      0.0000 
     31 C5X       -24.1230   31.5420   24.5480 C.ar      1 FAD201      0.0000 
     32 C6        -24.8650   31.3690   25.7170 C.ar      1 FAD201      0.0000 
     33 C7        -24.2360   31.2370   26.9510 C.ar      1 FAD201      0.0000 
     34 C7M       -25.0700   31.0500   28.1910 C.3       1 FAD201      0.0000 
     35 C8        -22.8340   31.2770   27.0220 C.ar      1 FAD201      0.0000 
     36 C8M       -22.1230   31.1400   28.3430 C.3       1 FAD201      0.0000 
     37 C9        -22.0910   31.4510   25.8580 C.ar      1 FAD201      0.0000 
     38 C9A       -22.7240   31.5850   24.6280 C.ar      1 FAD201      0.0000 
     39 N10       -22.0000   31.7640   23.4310 N.pl3     1 FAD201      0.0000 
     40 C10       -22.6500   31.8900   22.2280 C.2       1 FAD201      0.0000 
     41 C1'       -20.5340   31.8090   23.4430 C.3       1 FAD201      0.0000 
     42 C2'       -19.8970   30.5070   22.9700 C.3       1 FAD201      0.0000 
     43 O2'       -20.0800   29.4800   23.9430 O.3       1 FAD201      0.0000 
     44 C3'       -18.4060   30.7350   22.7310 C.3       1 FAD201      0.0000 
     45 O3'       -17.9130   31.6230   23.7280 O.3       1 FAD201      0.0000 
     46 C4'       -18.0950   31.3150   21.3520 C.3       1 FAD201      0.0000 
     47 O4'       -18.9810   30.7500   20.3850 O.3       1 FAD201      0.0000 
     48 C5'       -16.6530   31.1000   20.9450 C.3       1 FAD201      0.0000 
     49 O5'       -15.8170   31.9880   21.7140 O.3       1 FAD201      0.0000 
     50 P         -14.3640   32.3600   21.2390 P.3       1 FAD201      0.0000 
     51 O1P       -13.9400   31.3970   20.1260 O.co2     1 FAD201      0.0000 
     52 O2P       -14.2630   33.8060   20.9110 O.co2     1 FAD201      0.0000 
     53 O3P       -13.5040   32.0350   22.5270 O.3       1 FAD201      0.0000 
@<TRIPOS>BOND
     1    1    2 ar   
     2    1    3 ar   
     3    1    4 1    
     4    1   53 1    
     5    4    5 1    
     6    5    6 1    
     7    6    7 1    
     8    6    8 1    
     9    7   12 1    
    10    8    9 1    
    11    8   10 1    
    12   10   11 1    
    13   10   12 1    
    14   12   13 1    
    15   13   14 1    
    16   13   22 1    
    17   14   15 2    
    18   15   16 1    
    19   16   17 ar   
    20   16   22 ar   
    21   17   18 1    
    22   17   19 ar   
    23   19   20 ar   
    24   20   21 ar   
    25   21   22 ar   
    26   23   24 1    
    27   23   40 2    
    28   24   25 2    
    29   24   26 am   
    30   26   27 am   
    31   27   28 2    
    32   27   29 1    
    33   29   30 2    
    34   29   40 1    
    35   30   31 1    
    36   31   32 ar   
    37   31   38 ar   
    38   32   33 ar   
    39   33   34 1    
    40   33   35 ar   
    41   35   36 1    
    42   35   37 ar   
    43   37   38 ar   
    44   38   39 1    
    45   39   40 1    
    46   39   41 1    
    47   41   42 1    
    48   42   43 1    
    49   42   44 1    
    50   44   45 1    
    51   44   46 1    
    52   46   47 1    
    53   46   48 1    
    54   48   49 1    
    55   49   50 1    
    56   50   51 ar   
    57   50   52 ar   
    58   50   53 1    
@<TRIPOS>SUBSTRUCTURE
     1 FAD201      1 GROUP   
@<TRIPOS>SET
ATOM$ORANGE STATIC     ATOMS   COLORGROUP SYSTEM 
54 5 5 6 6 8 8 10 10 12 12 14 14 16 16 17 17 20 \
20 22 22 24 24 27 27 29 29 31 31 32 32 33 33 34 34 35 \
35 36 36 37 37 38 38 40 40 41 41 42 42 44 44 46 46 48 \
48 

