#    Name: 6eci_6_FAD
#    Modification time : Fri May 22 19:27:26 2020

@<TRIPOS>MOLECULE
6eci_6_FAD
   53    58     1     0     1
SMALL
NO_CHARGES


@<TRIPOS>ATOM
      1 PA        -12.7730  -29.1270   70.9400 P.3       1 FAD202      0.0000 
      2 O1A       -12.1160  -28.8960   72.2490 O.co2     1 FAD202      0.0000 
      3 O2A       -12.3640  -30.4170   70.2190 O.co2     1 FAD202      0.0000 
      4 O5B       -12.5420  -27.8810   69.9910 O.3       1 FAD202      0.0000 
      5 C5B       -11.3600  -27.7690   69.1680 C.3       1 FAD202      0.0000 
      6 C4B       -11.6680  -26.8110   68.0440 C.3       1 FAD202      0.0000 
      7 O4B       -12.9530  -27.1490   67.4980 O.3       1 FAD202      0.0000 
      8 C3B       -11.7520  -25.3480   68.4690 C.3       1 FAD202      0.0000 
      9 O3B       -10.5370  -24.6720   68.1650 O.3       1 FAD202      0.0000 
     10 C2B       -12.9280  -24.7730   67.6590 C.3       1 FAD202      0.0000 
     11 O2B       -12.5050  -23.8510   66.6600 O.3       1 FAD202      0.0000 
     12 C1B       -13.6070  -25.9950   67.0290 C.3       1 FAD202      0.0000 
     13 N9A       -15.0200  -26.1190   67.3700 N.pl3     1 FAD202      0.0000 
     14 C8A       -15.5360  -26.5980   68.5450 C.2       1 FAD202      0.0000 
     15 N7A       -16.8460  -26.6040   68.5920 N.2       1 FAD202      0.0000 
     16 C5A       -17.2190  -26.0920   67.3560 C.ar      1 FAD202      0.0000 
     17 C6A       -18.4780  -25.8390   66.7780 C.ar      1 FAD202      0.0000 
     18 N6A       -19.6410  -26.0800   67.3880 N.pl3     1 FAD202      0.0000 
     19 N1A       -18.4990  -25.3270   65.5260 N.ar      1 FAD202      0.0000 
     20 C2A       -17.3390  -25.0890   64.9090 C.ar      1 FAD202      0.0000 
     21 N3A       -16.0970  -25.2840   65.3560 N.ar      1 FAD202      0.0000 
     22 C4A       -16.1050  -25.7920   66.5950 C.ar      1 FAD202      0.0000 
     23 N1        -22.8130  -28.7100   73.6900 N.2       1 FAD202      0.0000 
     24 C2        -23.4050  -28.8030   74.9150 C.2       1 FAD202      0.0000 
     25 O2        -22.7690  -29.1530   75.9140 O.2       1 FAD202      0.0000 
     26 N3        -24.7510  -28.5050   75.0490 N.am      1 FAD202      0.0000 
     27 C4        -25.5990  -28.1010   74.0360 C.2       1 FAD202      0.0000 
     28 O4        -26.7810  -27.8620   74.2770 O.2       1 FAD202      0.0000 
     29 C4X       -24.9570  -28.0010   72.7390 C.2       1 FAD202      0.0000 
     30 N5        -25.6830  -27.6260   71.7210 N.2       1 FAD202      0.0000 
     31 C5X       -25.0680  -27.5320   70.4820 C.ar      1 FAD202      0.0000 
     32 C6        -25.8280  -27.1330   69.3830 C.ar      1 FAD202      0.0000 
     33 C7        -25.2570  -27.0230   68.1190 C.ar      1 FAD202      0.0000 
     34 C7M       -26.1090  -26.5890   66.9550 C.3       1 FAD202      0.0000 
     35 C8        -23.8940  -27.3150   67.9460 C.ar      1 FAD202      0.0000 
     36 C8M       -23.2460  -27.2090   66.5920 C.3       1 FAD202      0.0000 
     37 C9        -23.1320  -27.7140   69.0410 C.ar      1 FAD202      0.0000 
     38 C9A       -23.7070  -27.8250   70.3010 C.ar      1 FAD202      0.0000 
     39 N10       -22.9600  -28.2210   71.4300 N.pl3     1 FAD202      0.0000 
     40 C10       -23.5550  -28.3250   72.6660 C.2       1 FAD202      0.0000 
     41 C1'       -21.5320  -28.5480   71.3050 C.3       1 FAD202      0.0000 
     42 C2'       -20.6140  -27.5060   71.9360 C.3       1 FAD202      0.0000 
     43 O2'       -20.4030  -26.4150   71.0380 O.3       1 FAD202      0.0000 
     44 C3'       -19.2760  -28.1610   72.2790 C.3       1 FAD202      0.0000 
     45 O3'       -18.9080  -27.8240   73.6120 O.3       1 FAD202      0.0000 
     46 C4'       -18.1430  -27.7700   71.3320 C.3       1 FAD202      0.0000 
     47 O4'       -18.2960  -28.4870   70.1070 O.3       1 FAD202      0.0000 
     48 C5'       -16.7690  -27.9990   71.9270 C.3       1 FAD202      0.0000 
     49 O5'       -16.5870  -29.4100   72.1670 O.3       1 FAD202      0.0000 
     50 P         -15.1530  -30.0640   72.1550 P.3       1 FAD202      0.0000 
     51 O1P       -15.2410  -31.4800   71.5750 O.co2     1 FAD202      0.0000 
     52 O2P       -14.5330  -29.9750   73.5010 O.co2     1 FAD202      0.0000 
     53 O3P       -14.3490  -29.1540   71.1220 O.3       1 FAD202      0.0000 
@<TRIPOS>BOND
     1    1    2 ar   
     2    1    3 ar   
     3    1    4 1    
     4    1   53 1    
     5    4    5 1    
     6    5    6 1    
     7    6    7 1    
     8    6    8 1    
     9    7   12 1    
    10    8    9 1    
    11    8   10 1    
    12   10   11 1    
    13   10   12 1    
    14   12   13 1    
    15   13   14 1    
    16   13   22 1    
    17   14   15 2    
    18   15   16 1    
    19   16   17 ar   
    20   16   22 ar   
    21   17   18 1    
    22   17   19 ar   
    23   19   20 ar   
    24   20   21 ar   
    25   21   22 ar   
    26   23   24 1    
    27   23   40 2    
    28   24   25 2    
    29   24   26 am   
    30   26   27 am   
    31   27   28 2    
    32   27   29 1    
    33   29   30 2    
    34   29   40 1    
    35   30   31 1    
    36   31   32 ar   
    37   31   38 ar   
    38   32   33 ar   
    39   33   34 1    
    40   33   35 ar   
    41   35   36 1    
    42   35   37 ar   
    43   37   38 ar   
    44   38   39 1    
    45   39   40 1    
    46   39   41 1    
    47   41   42 1    
    48   42   43 1    
    49   42   44 1    
    50   44   45 1    
    51   44   46 1    
    52   46   47 1    
    53   46   48 1    
    54   48   49 1    
    55   49   50 1    
    56   50   51 ar   
    57   50   52 ar   
    58   50   53 1    
@<TRIPOS>SUBSTRUCTURE
     1 FAD202      1 GROUP   
@<TRIPOS>SET
ATOM$ORANGE STATIC     ATOMS   COLORGROUP SYSTEM 
54 5 5 6 6 8 8 10 10 12 12 14 14 16 16 17 17 20 \
20 22 22 24 24 27 27 29 29 31 31 32 32 33 33 34 34 35 \
35 36 36 37 37 38 38 40 40 41 41 42 42 44 44 46 46 48 \
48 

