#    Name: 6eci_14_FAD
#    Modification time : Fri May 22 19:28:15 2020

@<TRIPOS>MOLECULE
6eci_14_FAD
   53    58     1     0     1
SMALL
NO_CHARGES


@<TRIPOS>ATOM
      1 PA         31.4990  -59.7510   25.2130 P.3       1 FAD201      0.0000 
      2 O1A        32.5070  -58.7700   24.7410 O.co2     1 FAD201      0.0000 
      3 O2A        31.4390  -61.0460   24.3940 O.co2     1 FAD201      0.0000 
      4 O5B        30.0540  -59.1000   25.2670 O.3       1 FAD201      0.0000 
      5 C5B        29.2500  -58.9670   24.0750 C.3       1 FAD201      0.0000 
      6 C4B        27.8370  -58.5770   24.4340 C.3       1 FAD201      0.0000 
      7 O4B        27.2660  -59.5840   25.2910 O.3       1 FAD201      0.0000 
      8 C3B        27.6850  -57.2290   25.1420 C.3       1 FAD201      0.0000 
      9 O3B        26.8830  -56.3270   24.3860 O.3       1 FAD201      0.0000 
     10 C2B        27.0630  -57.5680   26.5060 C.3       1 FAD201      0.0000 
     11 O2B        25.9930  -56.6870   26.8300 O.3       1 FAD201      0.0000 
     12 C1B        26.5280  -58.9900   26.3290 C.3       1 FAD201      0.0000 
     13 N9A        26.7130  -59.8110   27.5190 N.pl3     1 FAD201      0.0000 
     14 C8A        27.9050  -60.2790   28.0010 C.2       1 FAD201      0.0000 
     15 N7A        27.7990  -60.9900   29.0970 N.2       1 FAD201      0.0000 
     16 C5A        26.4380  -60.9860   29.3580 C.ar      1 FAD201      0.0000 
     17 C6A        25.6680  -61.5640   30.3850 C.ar      1 FAD201      0.0000 
     18 N6A        26.1830  -62.2910   31.3810 N.pl3     1 FAD201      0.0000 
     19 N1A        24.3310  -61.3700   30.3500 N.ar      1 FAD201      0.0000 
     20 C2A        23.8100  -60.6510   29.3530 C.ar      1 FAD201      0.0000 
     21 N3A        24.4340  -60.0550   28.3340 N.ar      1 FAD201      0.0000 
     22 C4A        25.7540  -60.2630   28.3940 C.ar      1 FAD201      0.0000 
     23 N1         32.2150  -64.2940   34.3880 N.2       1 FAD201      0.0000 
     24 C2         33.3330  -64.3720   35.1650 C.2       1 FAD201      0.0000 
     25 O2         34.4260  -63.9500   34.7710 O.2       1 FAD201      0.0000 
     26 N3         33.2520  -64.9370   36.4280 N.am      1 FAD201      0.0000 
     27 C4         32.1130  -65.4530   37.0170 C.2       1 FAD201      0.0000 
     28 O4         32.1640  -65.9310   38.1500 O.2       1 FAD201      0.0000 
     29 C4X        30.9300  -65.3630   36.1820 C.2       1 FAD201      0.0000 
     30 N5         29.8040  -65.8260   36.6560 N.2       1 FAD201      0.0000 
     31 C5X        28.6750  -65.7390   35.8550 C.ar      1 FAD201      0.0000 
     32 C6         27.4640  -66.2290   36.3440 C.ar      1 FAD201      0.0000 
     33 C7         26.3050  -66.1630   35.5780 C.ar      1 FAD201      0.0000 
     34 C7M        25.0150  -66.7020   36.1370 C.3       1 FAD201      0.0000 
     35 C8         26.3520  -65.5930   34.2950 C.ar      1 FAD201      0.0000 
     36 C8M        25.1170  -65.5100   33.4400 C.3       1 FAD201      0.0000 
     37 C9         27.5590  -65.1040   33.8030 C.ar      1 FAD201      0.0000 
     38 C9A        28.7150  -65.1740   34.5710 C.ar      1 FAD201      0.0000 
     39 N10        29.9520  -64.6900   34.1010 N.pl3     1 FAD201      0.0000 
     40 C10        31.0810  -64.7660   34.8800 C.2       1 FAD201      0.0000 
     41 C1'        30.0590  -64.0770   32.7730 C.3       1 FAD201      0.0000 
     42 C2'        30.0870  -62.5530   32.8260 C.3       1 FAD201      0.0000 
     43 O2'        28.9750  -62.0570   33.5720 O.3       1 FAD201      0.0000 
     44 C3'        30.0420  -61.9990   31.4030 C.3       1 FAD201      0.0000 
     45 O3'        29.2480  -62.8700   30.6070 O.3       1 FAD201      0.0000 
     46 C4'        31.4230  -61.8540   30.7640 C.3       1 FAD201      0.0000 
     47 O4'        32.3180  -61.2420   31.6940 O.3       1 FAD201      0.0000 
     48 C5'        31.3920  -61.0740   29.4670 C.3       1 FAD201      0.0000 
     49 O5'        32.6070  -61.3350   28.7340 O.3       1 FAD201      0.0000 
     50 P          32.6080  -61.4370   27.1630 P.3       1 FAD201      0.0000 
     51 O1P        34.0460  -61.2860   26.6570 O.co2     1 FAD201      0.0000 
     52 O2P        31.9020  -62.6640   26.7110 O.co2     1 FAD201      0.0000 
     53 O3P        31.7920  -60.1450   26.7210 O.3       1 FAD201      0.0000 
@<TRIPOS>BOND
     1    1    2 ar   
     2    1    3 ar   
     3    1    4 1    
     4    1   53 1    
     5    4    5 1    
     6    5    6 1    
     7    6    7 1    
     8    6    8 1    
     9    7   12 1    
    10    8    9 1    
    11    8   10 1    
    12   10   11 1    
    13   10   12 1    
    14   12   13 1    
    15   13   14 1    
    16   13   22 1    
    17   14   15 2    
    18   15   16 1    
    19   16   17 ar   
    20   16   22 ar   
    21   17   18 1    
    22   17   19 ar   
    23   19   20 ar   
    24   20   21 ar   
    25   21   22 ar   
    26   23   24 1    
    27   23   40 2    
    28   24   25 2    
    29   24   26 am   
    30   26   27 am   
    31   27   28 2    
    32   27   29 1    
    33   29   30 2    
    34   29   40 1    
    35   30   31 1    
    36   31   32 ar   
    37   31   38 ar   
    38   32   33 ar   
    39   33   34 1    
    40   33   35 ar   
    41   35   36 1    
    42   35   37 ar   
    43   37   38 ar   
    44   38   39 1    
    45   39   40 1    
    46   39   41 1    
    47   41   42 1    
    48   42   43 1    
    49   42   44 1    
    50   44   45 1    
    51   44   46 1    
    52   46   47 1    
    53   46   48 1    
    54   48   49 1    
    55   49   50 1    
    56   50   51 ar   
    57   50   52 ar   
    58   50   53 1    
@<TRIPOS>SUBSTRUCTURE
     1 FAD201      1 GROUP   
@<TRIPOS>SET
ATOM$ORANGE STATIC     ATOMS   COLORGROUP SYSTEM 
54 5 5 6 6 8 8 10 10 12 12 14 14 16 16 17 17 20 \
20 22 22 24 24 27 27 29 29 31 31 32 32 33 33 34 34 35 \
35 36 36 37 37 38 38 40 40 41 41 42 42 44 44 46 46 48 \
48 

