#    Name: 6eci_9_FAD
#    Modification time : Fri May 22 19:27:44 2020

@<TRIPOS>MOLECULE
6eci_9_FAD
   53    58     1     0     1
SMALL
NO_CHARGES


@<TRIPOS>ATOM
      1 PA        -33.9750  -31.0340   22.7050 P.3       1 FAD201      0.0000 
      2 O1A       -35.1090  -31.7340   22.0780 O.co2     1 FAD201      0.0000 
      3 O2A       -33.5450  -29.7640   21.9570 O.co2     1 FAD201      0.0000 
      4 O5B       -32.7600  -32.0290   22.9400 O.3       1 FAD201      0.0000 
      5 C5B       -31.8830  -32.4270   21.8630 C.3       1 FAD201      0.0000 
      6 C4B       -30.5330  -32.8030   22.4360 C.3       1 FAD201      0.0000 
      7 O4B       -29.9370  -31.6390   23.0330 O.3       1 FAD201      0.0000 
      8 C3B       -30.5580  -33.8440   23.5500 C.3       1 FAD201      0.0000 
      9 O3B       -30.4780  -35.1620   23.0180 O.3       1 FAD201      0.0000 
     10 C2B       -29.3090  -33.5050   24.3790 C.3       1 FAD201      0.0000 
     11 O2B       -28.1830  -34.3170   24.0650 O.3       1 FAD201      0.0000 
     12 C1B       -29.0350  -32.0310   24.0470 C.3       1 FAD201      0.0000 
     13 N9A       -29.2130  -31.1340   25.1850 N.pl3     1 FAD201      0.0000 
     14 C8A       -30.3890  -30.5880   25.6240 C.2       1 FAD201      0.0000 
     15 N7A       -30.2630  -29.8200   26.6800 N.2       1 FAD201      0.0000 
     16 C5A       -28.9040  -29.8700   26.9590 C.ar      1 FAD201      0.0000 
     17 C6A       -28.1200  -29.2680   27.9610 C.ar      1 FAD201      0.0000 
     18 N6A       -28.6110  -28.4660   28.9090 N.pl3     1 FAD201      0.0000 
     19 N1A       -26.7920  -29.5220   27.9520 N.ar      1 FAD201      0.0000 
     20 C2A       -26.2950  -30.3210   27.0050 C.ar      1 FAD201      0.0000 
     21 N3A       -26.9360  -30.9430   26.0140 N.ar      1 FAD201      0.0000 
     22 C4A       -28.2460  -30.6730   26.0450 C.ar      1 FAD201      0.0000 
     23 N1        -34.4860  -25.6390   31.6230 N.2       1 FAD201      0.0000 
     24 C2        -35.5980  -25.3830   32.3690 C.2       1 FAD201      0.0000 
     25 O2        -36.7180  -25.7530   32.0040 O.2       1 FAD201      0.0000 
     26 N3        -35.4770  -24.6890   33.5620 N.am      1 FAD201      0.0000 
     27 C4        -34.3040  -24.2070   34.1060 C.2       1 FAD201      0.0000 
     28 O4        -34.3220  -23.6040   35.1790 O.2       1 FAD201      0.0000 
     29 C4X       -33.1280  -24.4860   33.3030 C.2       1 FAD201      0.0000 
     30 N5        -31.9720  -24.0670   33.7380 N.2       1 FAD201      0.0000 
     31 C5X       -30.8490  -24.3380   32.9680 C.ar      1 FAD201      0.0000 
     32 C6        -29.6040  -23.8950   33.4160 C.ar      1 FAD201      0.0000 
     33 C7        -28.4500  -24.1400   32.6790 C.ar      1 FAD201      0.0000 
     34 C7M       -27.1220  -23.6490   33.1940 C.3       1 FAD201      0.0000 
     35 C8        -28.5390  -24.8420   31.4650 C.ar      1 FAD201      0.0000 
     36 C8M       -27.3100  -25.1210   30.6410 C.3       1 FAD201      0.0000 
     37 C9        -29.7790  -25.2840   31.0140 C.ar      1 FAD201      0.0000 
     38 C9A       -30.9290  -25.0370   31.7540 C.ar      1 FAD201      0.0000 
     39 N10       -32.2000  -25.4680   31.3230 N.pl3     1 FAD201      0.0000 
     40 C10       -33.3220  -25.2120   32.0740 C.2       1 FAD201      0.0000 
     41 C1'       -32.3550  -26.2130   30.0660 C.3       1 FAD201      0.0000 
     42 C2'       -32.4500  -27.7210   30.2790 C.3       1 FAD201      0.0000 
     43 O2'       -31.4050  -28.1700   31.1450 O.3       1 FAD201      0.0000 
     44 C3'       -32.3610  -28.4260   28.9250 C.3       1 FAD201      0.0000 
     45 O3'       -31.3510  -27.7830   28.1580 O.3       1 FAD201      0.0000 
     46 C4'       -33.6680  -28.4480   28.1330 C.3       1 FAD201      0.0000 
     47 O4'       -34.7340  -28.8370   29.0010 O.3       1 FAD201      0.0000 
     48 C5'       -33.5980  -29.3470   26.9180 C.3       1 FAD201      0.0000 
     49 O5'       -34.8920  -29.3670   26.2810 O.3       1 FAD201      0.0000 
     50 P         -35.0390  -29.2570   24.7120 P.3       1 FAD201      0.0000 
     51 O1P       -36.5280  -29.3640   24.3710 O.co2     1 FAD201      0.0000 
     52 O2P       -34.3300  -28.0920   24.1780 O.co2     1 FAD201      0.0000 
     53 O3P       -34.3510  -30.5840   24.1800 O.3       1 FAD201      0.0000 
@<TRIPOS>BOND
     1    1    2 ar   
     2    1    3 ar   
     3    1    4 1    
     4    1   53 1    
     5    4    5 1    
     6    5    6 1    
     7    6    7 1    
     8    6    8 1    
     9    7   12 1    
    10    8    9 1    
    11    8   10 1    
    12   10   11 1    
    13   10   12 1    
    14   12   13 1    
    15   13   14 1    
    16   13   22 1    
    17   14   15 2    
    18   15   16 1    
    19   16   17 ar   
    20   16   22 ar   
    21   17   18 1    
    22   17   19 ar   
    23   19   20 ar   
    24   20   21 ar   
    25   21   22 ar   
    26   23   24 1    
    27   23   40 2    
    28   24   25 2    
    29   24   26 am   
    30   26   27 am   
    31   27   28 2    
    32   27   29 1    
    33   29   30 2    
    34   29   40 1    
    35   30   31 1    
    36   31   32 ar   
    37   31   38 ar   
    38   32   33 ar   
    39   33   34 1    
    40   33   35 ar   
    41   35   36 1    
    42   35   37 ar   
    43   37   38 ar   
    44   38   39 1    
    45   39   40 1    
    46   39   41 1    
    47   41   42 1    
    48   42   43 1    
    49   42   44 1    
    50   44   45 1    
    51   44   46 1    
    52   46   47 1    
    53   46   48 1    
    54   48   49 1    
    55   49   50 1    
    56   50   51 ar   
    57   50   52 ar   
    58   50   53 1    
@<TRIPOS>SUBSTRUCTURE
     1 FAD201      1 GROUP   
@<TRIPOS>SET
ATOM$ORANGE STATIC     ATOMS   COLORGROUP SYSTEM 
54 5 5 6 6 8 8 10 10 12 12 14 14 16 16 17 17 20 \
20 22 22 24 24 27 27 29 29 31 31 32 32 33 33 34 34 35 \
35 36 36 37 37 38 38 40 40 41 41 42 42 44 44 46 46 48 \
48 

