#    Name: 6eci_12_FAD
#    Modification time : Fri May 22 19:28:02 2020

@<TRIPOS>MOLECULE
6eci_12_FAD
   53    58     1     0     1
SMALL
NO_CHARGES


@<TRIPOS>ATOM
      1 PA        -25.5370    3.3630   24.0010 P.3       1 FAD202      0.0000 
      2 O1A       -24.2480    2.6610   23.7840 O.co2     1 FAD202      0.0000 
      3 O2A       -26.7960    2.4920   23.9310 O.co2     1 FAD202      0.0000 
      4 O5B       -25.6650    4.5620   22.9880 O.3       1 FAD202      0.0000 
      5 C5B       -25.9120    4.3350   21.5840 C.3       1 FAD202      0.0000 
      6 C4B       -26.5140    5.5850   20.9930 C.3       1 FAD202      0.0000 
      7 O4B       -27.5900    6.0420   21.8340 O.3       1 FAD202      0.0000 
      8 C3B       -25.5720    6.7770   20.8940 C.3       1 FAD202      0.0000 
      9 O3B       -24.8040    6.7160   19.6980 O.3       1 FAD202      0.0000 
     10 C2B       -26.5400    7.9660   20.8910 C.3       1 FAD202      0.0000 
     11 O2B       -26.9820    8.3130   19.5830 O.3       1 FAD202      0.0000 
     12 C1B       -27.7110    7.4510   21.7390 C.3       1 FAD202      0.0000 
     13 N9A       -27.7540    8.0020   23.0870 N.pl3     1 FAD202      0.0000 
     14 C8A       -27.1290    7.5100   24.2020 C.2       1 FAD202      0.0000 
     15 N7A       -27.3380    8.2140   25.2880 N.2       1 FAD202      0.0000 
     16 C5A       -28.1610    9.2460   24.8550 C.ar      1 FAD202      0.0000 
     17 C6A       -28.7430   10.3370   25.5270 C.ar      1 FAD202      0.0000 
     18 N6A       -28.5830   10.5830   26.8290 N.pl3     1 FAD202      0.0000 
     19 N1A       -29.5110   11.1790   24.8000 N.ar      1 FAD202      0.0000 
     20 C2A       -29.6770   10.9380   23.4980 C.ar      1 FAD202      0.0000 
     21 N3A       -29.1770    9.9450   22.7590 N.ar      1 FAD202      0.0000 
     22 C4A       -28.4220    9.1260   23.5040 C.ar      1 FAD202      0.0000 
     23 N1        -25.3940    7.8670   33.0950 N.2       1 FAD202      0.0000 
     24 C2        -24.4950    7.6470   34.0960 C.2       1 FAD202      0.0000 
     25 O2        -23.7020    6.7020   34.0540 O.2       1 FAD202      0.0000 
     26 N3        -24.4680    8.4930   35.1890 N.am      1 FAD202      0.0000 
     27 C4        -25.2820    9.5890   35.3880 C.2       1 FAD202      0.0000 
     28 O4        -25.1630   10.2700   36.4060 O.2       1 FAD202      0.0000 
     29 C4X       -26.2300    9.8170   34.3160 C.2       1 FAD202      0.0000 
     30 N5        -27.0430   10.8330   34.4210 N.2       1 FAD202      0.0000 
     31 C5X       -27.9510   11.0490   33.3940 C.ar      1 FAD202      0.0000 
     32 C6        -28.8260   12.1300   33.4880 C.ar      1 FAD202      0.0000 
     33 C7        -29.7530   12.3900   32.4840 C.ar      1 FAD202      0.0000 
     34 C7M       -30.6840   13.5660   32.6200 C.3       1 FAD202      0.0000 
     35 C8        -29.8080   11.5540   31.3560 C.ar      1 FAD202      0.0000 
     36 C8M       -30.8010   11.8070   30.2540 C.3       1 FAD202      0.0000 
     37 C9        -28.9360   10.4730   31.2600 C.ar      1 FAD202      0.0000 
     38 C9A       -28.0130   10.2160   32.2670 C.ar      1 FAD202      0.0000 
     39 N10       -27.1090    9.1360   32.1920 N.pl3     1 FAD202      0.0000 
     40 C10       -26.2090    8.9010   33.2060 C.2       1 FAD202      0.0000 
     41 C1'       -27.1320    8.2200   31.0440 C.3       1 FAD202      0.0000 
     42 C2'       -25.8920    8.3210   30.1590 C.3       1 FAD202      0.0000 
     43 O2'       -26.0020    9.4200   29.2540 O.3       1 FAD202      0.0000 
     44 C3'       -25.7230    7.0100   29.3870 C.3       1 FAD202      0.0000 
     45 O3'       -24.3410    6.7760   29.1400 O.3       1 FAD202      0.0000 
     46 C4'       -26.4750    6.9480   28.0580 C.3       1 FAD202      0.0000 
     47 O4'       -27.5740    7.8610   28.0710 O.3       1 FAD202      0.0000 
     48 C5'       -26.9600    5.5510   27.7310 C.3       1 FAD202      0.0000 
     49 O5'       -25.8470    4.6360   27.8040 O.3       1 FAD202      0.0000 
     50 P         -25.7360    3.4060   26.8270 P.3       1 FAD202      0.0000 
     51 O1P       -27.0760    2.6640   26.8040 O.co2     1 FAD202      0.0000 
     52 O2P       -24.5540    2.5780   27.1670 O.co2     1 FAD202      0.0000 
     53 O3P       -25.5280    4.0960   25.4080 O.3       1 FAD202      0.0000 
@<TRIPOS>BOND
     1    1    2 ar   
     2    1    3 ar   
     3    1    4 1    
     4    1   53 1    
     5    4    5 1    
     6    5    6 1    
     7    6    7 1    
     8    6    8 1    
     9    7   12 1    
    10    8    9 1    
    11    8   10 1    
    12   10   11 1    
    13   10   12 1    
    14   12   13 1    
    15   13   14 1    
    16   13   22 1    
    17   14   15 2    
    18   15   16 1    
    19   16   17 ar   
    20   16   22 ar   
    21   17   18 1    
    22   17   19 ar   
    23   19   20 ar   
    24   20   21 ar   
    25   21   22 ar   
    26   23   24 1    
    27   23   40 2    
    28   24   25 2    
    29   24   26 am   
    30   26   27 am   
    31   27   28 2    
    32   27   29 1    
    33   29   30 2    
    34   29   40 1    
    35   30   31 1    
    36   31   32 ar   
    37   31   38 ar   
    38   32   33 ar   
    39   33   34 1    
    40   33   35 ar   
    41   35   36 1    
    42   35   37 ar   
    43   37   38 ar   
    44   38   39 1    
    45   39   40 1    
    46   39   41 1    
    47   41   42 1    
    48   42   43 1    
    49   42   44 1    
    50   44   45 1    
    51   44   46 1    
    52   46   47 1    
    53   46   48 1    
    54   48   49 1    
    55   49   50 1    
    56   50   51 ar   
    57   50   52 ar   
    58   50   53 1    
@<TRIPOS>SUBSTRUCTURE
     1 FAD202      1 GROUP   
@<TRIPOS>SET
ATOM$ORANGE STATIC     ATOMS   COLORGROUP SYSTEM 
54 5 5 6 6 8 8 10 10 12 12 14 14 16 16 17 17 20 \
20 22 22 24 24 27 27 29 29 31 31 32 32 33 33 34 34 35 \
35 36 36 37 37 38 38 40 40 41 41 42 42 44 44 46 46 48 \
48 

