#    Name: 6eci_16_FAD
#    Modification time : Fri May 22 19:28:27 2020

@<TRIPOS>MOLECULE
6eci_16_FAD
   53    58     1     0     1
SMALL
NO_CHARGES


@<TRIPOS>ATOM
      1 PA         20.9070    6.4720   30.1330 P.3       1 FAD201      0.0000 
      2 O1A        21.2510    5.0290   30.1620 O.co2     1 FAD201      0.0000 
      3 O2A        19.5710    6.8430   30.7800 O.co2     1 FAD201      0.0000 
      4 O5B        22.0670    7.2960   30.8250 O.3       1 FAD201      0.0000 
      5 C5B        22.2180    7.3170   32.2610 C.3       1 FAD201      0.0000 
      6 C4B        22.3510    8.7620   32.6640 C.3       1 FAD201      0.0000 
      7 O4B        23.2170    9.4120   31.7220 O.3       1 FAD201      0.0000 
      8 C3B        21.0360    9.5360   32.6410 C.3       1 FAD201      0.0000 
      9 O3B        20.4930    9.6290   33.9540 O.3       1 FAD201      0.0000 
     10 C2B        21.4040   10.9120   32.0550 C.3       1 FAD201      0.0000 
     11 O2B        21.2400   11.9590   33.0060 O.3       1 FAD201      0.0000 
     12 C1B        22.8620   10.7670   31.5910 C.3       1 FAD201      0.0000 
     13 N9A        23.0750   11.1430   30.1920 N.pl3     1 FAD201      0.0000 
     14 C8A        22.2210   10.8840   29.1520 C.2       1 FAD201      0.0000 
     15 N7A        22.6460   11.3150   27.9900 N.2       1 FAD201      0.0000 
     16 C5A        23.8670   11.9010   28.2820 C.ar      1 FAD201      0.0000 
     17 C6A        24.8300   12.5340   27.4750 C.ar      1 FAD201      0.0000 
     18 N6A        24.6950   12.7070   26.1560 N.pl3     1 FAD201      0.0000 
     19 N1A        25.9470   13.0000   28.0770 N.ar      1 FAD201      0.0000 
     20 C2A        26.0870   12.8260   29.3940 C.ar      1 FAD201      0.0000 
     21 N3A        25.2520   12.2380   30.2560 N.ar      1 FAD201      0.0000 
     22 C4A        24.1500   11.7980   29.6360 C.ar      1 FAD201      0.0000 
     23 N1         21.2020    9.5170   20.6860 N.2       1 FAD201      0.0000 
     24 C2         20.2430    9.2360   19.7570 C.2       1 FAD201      0.0000 
     25 O2         19.2820    8.5060   20.0210 O.2       1 FAD201      0.0000 
     26 N3         20.3420    9.7760   18.4860 N.am      1 FAD201      0.0000 
     27 C4         21.3470   10.6070   18.0310 C.2       1 FAD201      0.0000 
     28 O4         21.3270   11.0270   16.8750 O.2       1 FAD201      0.0000 
     29 C4X        22.3590   10.9000   19.0270 C.2       1 FAD201      0.0000 
     30 N5         23.3490   11.6770   18.6860 N.2       1 FAD201      0.0000 
     31 C5X        24.3150   11.9560   19.6400 C.ar      1 FAD201      0.0000 
     32 C6         25.3810   12.7850   19.2940 C.ar      1 FAD201      0.0000 
     33 C7         26.3750   13.0940   20.2160 C.ar      1 FAD201      0.0000 
     34 C7M        27.5120   13.9930   19.8070 C.3       1 FAD201      0.0000 
     35 C8         26.3050   12.5640   21.5150 C.ar      1 FAD201      0.0000 
     36 C8M        27.3660   12.8770   22.5360 C.3       1 FAD201      0.0000 
     37 C9         25.2430   11.7350   21.8640 C.ar      1 FAD201      0.0000 
     38 C9A        24.2530   11.4290   20.9380 C.ar      1 FAD201      0.0000 
     39 N10        23.1660   10.5920   21.2590 N.pl3     1 FAD201      0.0000 
     40 C10        22.1990   10.3080   20.3290 C.2       1 FAD201      0.0000 
     41 C1'        23.0360   10.0120   22.6000 C.3       1 FAD201      0.0000 
     42 C2'        22.0750   10.7890   23.4910 C.3       1 FAD201      0.0000 
     43 O2'        22.5410   12.1270   23.6650 O.3       1 FAD201      0.0000 
     44 C3'        21.9740   10.0960   24.8500 C.3       1 FAD201      0.0000 
     45 O3'        23.1980    9.4240   25.1220 O.3       1 FAD201      0.0000 
     46 C4'        20.8280    9.0900   24.9410 C.3       1 FAD201      0.0000 
     47 O4'        19.6030    9.7380   24.5960 O.3       1 FAD201      0.0000 
     48 C5'        20.7220    8.4490   26.3080 C.3       1 FAD201      0.0000 
     49 O5'        20.6030    7.0210   26.1450 O.3       1 FAD201      0.0000 
     50 P          20.5370    6.0560   27.3890 P.3       1 FAD201      0.0000 
     51 O1P        21.6440    5.0020   27.2760 O.co2     1 FAD201      0.0000 
     52 O2P        19.1650    5.5070   27.5240 O.co2     1 FAD201      0.0000 
     53 O3P        20.8790    6.9910   28.6340 O.3       1 FAD201      0.0000 
@<TRIPOS>BOND
     1    1    2 ar   
     2    1    3 ar   
     3    1    4 1    
     4    1   53 1    
     5    4    5 1    
     6    5    6 1    
     7    6    7 1    
     8    6    8 1    
     9    7   12 1    
    10    8    9 1    
    11    8   10 1    
    12   10   11 1    
    13   10   12 1    
    14   12   13 1    
    15   13   14 1    
    16   13   22 1    
    17   14   15 2    
    18   15   16 1    
    19   16   17 ar   
    20   16   22 ar   
    21   17   18 1    
    22   17   19 ar   
    23   19   20 ar   
    24   20   21 ar   
    25   21   22 ar   
    26   23   24 1    
    27   23   40 2    
    28   24   25 2    
    29   24   26 am   
    30   26   27 am   
    31   27   28 2    
    32   27   29 1    
    33   29   30 2    
    34   29   40 1    
    35   30   31 1    
    36   31   32 ar   
    37   31   38 ar   
    38   32   33 ar   
    39   33   34 1    
    40   33   35 ar   
    41   35   36 1    
    42   35   37 ar   
    43   37   38 ar   
    44   38   39 1    
    45   39   40 1    
    46   39   41 1    
    47   41   42 1    
    48   42   43 1    
    49   42   44 1    
    50   44   45 1    
    51   44   46 1    
    52   46   47 1    
    53   46   48 1    
    54   48   49 1    
    55   49   50 1    
    56   50   51 ar   
    57   50   52 ar   
    58   50   53 1    
@<TRIPOS>SUBSTRUCTURE
     1 FAD201      1 GROUP   
@<TRIPOS>SET
ATOM$ORANGE STATIC     ATOMS   COLORGROUP SYSTEM 
54 5 5 6 6 8 8 10 10 12 12 14 14 16 16 17 17 20 \
20 22 22 24 24 27 27 29 29 31 31 32 32 33 33 34 34 35 \
35 36 36 37 37 38 38 40 40 41 41 42 42 44 44 46 46 48 \
48 

