#    Name: 6eci_4_FAD
#    Modification time : Fri May 22 19:27:13 2020

@<TRIPOS>MOLECULE
6eci_4_FAD
   53    58     1     0     1
SMALL
NO_CHARGES


@<TRIPOS>ATOM
      1 PA         14.0550    6.2460   65.7270 P.3       1 FAD201      0.0000 
      2 O1A        14.6180    7.5970   65.4850 O.co2     1 FAD201      0.0000 
      3 O2A        14.8270    5.0940   65.0770 O.co2     1 FAD201      0.0000 
      4 O5B        13.8960    5.9800   67.2730 O.3       1 FAD201      0.0000 
      5 C5B        15.0200    6.0860   68.1700 C.3       1 FAD201      0.0000 
      6 C4B        14.5320    6.5400   69.5220 C.3       1 FAD201      0.0000 
      7 O4B        14.2330    7.9470   69.4680 O.3       1 FAD201      0.0000 
      8 C3B        13.2820    5.8250   70.0350 C.3       1 FAD201      0.0000 
      9 O3B        13.5470    5.1290   71.2480 O.3       1 FAD201      0.0000 
     10 C2B        12.2330    6.9360   70.2020 C.3       1 FAD201      0.0000 
     11 O2B        11.5560    6.8260   71.4490 O.3       1 FAD201      0.0000 
     12 C1B        13.0520    8.2270   70.1740 C.3       1 FAD201      0.0000 
     13 N9A        12.3750    9.3120   69.4730 N.pl3     1 FAD201      0.0000 
     14 C8A        12.1390    9.3770   68.1260 C.2       1 FAD201      0.0000 
     15 N7A        11.5070   10.4590   67.7440 N.2       1 FAD201      0.0000 
     16 C5A        11.3130   11.1580   68.9270 C.ar      1 FAD201      0.0000 
     17 C6A        10.6990   12.3940   69.2040 C.ar      1 FAD201      0.0000 
     18 N6A        10.1440   13.1740   68.2730 N.pl3     1 FAD201      0.0000 
     19 N1A        10.6760   12.8050   70.4920 N.ar      1 FAD201      0.0000 
     20 C2A        11.2300   12.0280   71.4260 C.ar      1 FAD201      0.0000 
     21 N3A        11.8340   10.8460   71.2820 N.ar      1 FAD201      0.0000 
     22 C4A        11.8430   10.4640   69.9980 C.ar      1 FAD201      0.0000 
     23 N1          7.9020   13.3010   61.3790 N.2       1 FAD201      0.0000 
     24 C2          7.1450   13.1340   60.2570 C.2       1 FAD201      0.0000 
     25 O2          7.3030   12.1610   59.5110 O.2       1 FAD201      0.0000 
     26 N3          6.1810   14.0760   59.9390 N.am      1 FAD201      0.0000 
     27 C4          5.8760   15.2090   60.6690 C.2       1 FAD201      0.0000 
     28 O4          4.9980   15.9790   60.2820 O.2       1 FAD201      0.0000 
     29 C4X         6.6930   15.3790   61.8550 C.2       1 FAD201      0.0000 
     30 N5          6.4810   16.4280   62.6030 N.2       1 FAD201      0.0000 
     31 C5X         7.2550   16.5810   63.7430 C.ar      1 FAD201      0.0000 
     32 C6          7.0440   17.6950   64.5540 C.ar      1 FAD201      0.0000 
     33 C7          7.7970   17.8940   65.7070 C.ar      1 FAD201      0.0000 
     34 C7M         7.5410   19.1110   66.5580 C.3       1 FAD201      0.0000 
     35 C8          8.7830   16.9590   66.0620 C.ar      1 FAD201      0.0000 
     36 C8M         9.6150   17.1440   67.3030 C.3       1 FAD201      0.0000 
     37 C9          8.9960   15.8450   65.2540 C.ar      1 FAD201      0.0000 
     38 C9A         8.2430   15.6530   64.1020 C.ar      1 FAD201      0.0000 
     39 N10         8.4320   14.5330   63.2670 N.pl3     1 FAD201      0.0000 
     40 C10         7.6760   14.3670   62.1320 C.2       1 FAD201      0.0000 
     41 C1'         9.4480   13.5280   63.5850 C.3       1 FAD201      0.0000 
     42 C2'         8.8600   12.2020   64.0520 C.3       1 FAD201      0.0000 
     43 O2'         8.7460   12.1840   65.4750 O.3       1 FAD201      0.0000 
     44 C3'         9.7650   11.0640   63.5800 C.3       1 FAD201      0.0000 
     45 O3'         8.9730    9.9520   63.1780 O.3       1 FAD201      0.0000 
     46 C4'        10.7690   10.6060   64.6360 C.3       1 FAD201      0.0000 
     47 O4'        11.3030   11.7460   65.3110 O.3       1 FAD201      0.0000 
     48 C5'        11.8800    9.7590   64.0570 C.3       1 FAD201      0.0000 
     49 O5'        11.9530    8.5210   64.7930 O.3       1 FAD201      0.0000 
     50 P          12.0570    7.1390   64.0530 P.3       1 FAD201      0.0000 
     51 O1P        10.6560    6.6800   63.6370 O.co2     1 FAD201      0.0000 
     52 O2P        13.0770    7.2140   62.9700 O.co2     1 FAD201      0.0000 
     53 O3P        12.5620    6.1830   65.2030 O.3       1 FAD201      0.0000 
@<TRIPOS>BOND
     1    1    2 ar   
     2    1    3 ar   
     3    1    4 1    
     4    1   53 1    
     5    4    5 1    
     6    5    6 1    
     7    6    7 1    
     8    6    8 1    
     9    7   12 1    
    10    8    9 1    
    11    8   10 1    
    12   10   11 1    
    13   10   12 1    
    14   12   13 1    
    15   13   14 1    
    16   13   22 1    
    17   14   15 2    
    18   15   16 1    
    19   16   17 ar   
    20   16   22 ar   
    21   17   18 1    
    22   17   19 ar   
    23   19   20 ar   
    24   20   21 ar   
    25   21   22 ar   
    26   23   24 1    
    27   23   40 2    
    28   24   25 2    
    29   24   26 am   
    30   26   27 am   
    31   27   28 2    
    32   27   29 1    
    33   29   30 2    
    34   29   40 1    
    35   30   31 1    
    36   31   32 ar   
    37   31   38 ar   
    38   32   33 ar   
    39   33   34 1    
    40   33   35 ar   
    41   35   36 1    
    42   35   37 ar   
    43   37   38 ar   
    44   38   39 1    
    45   39   40 1    
    46   39   41 1    
    47   41   42 1    
    48   42   43 1    
    49   42   44 1    
    50   44   45 1    
    51   44   46 1    
    52   46   47 1    
    53   46   48 1    
    54   48   49 1    
    55   49   50 1    
    56   50   51 ar   
    57   50   52 ar   
    58   50   53 1    
@<TRIPOS>SUBSTRUCTURE
     1 FAD201      1 GROUP   
@<TRIPOS>SET
ATOM$ORANGE STATIC     ATOMS   COLORGROUP SYSTEM 
54 5 5 6 6 8 8 10 10 12 12 14 14 16 16 17 17 20 \
20 22 22 24 24 27 27 29 29 31 31 32 32 33 33 34 34 35 \
35 36 36 37 37 38 38 40 40 41 41 42 42 44 44 46 46 48 \
48 

