#    Name: 6eci_8_FAD
#    Modification time : Fri May 22 19:27:38 2020

@<TRIPOS>MOLECULE
6eci_8_FAD
   53    58     1     0     1
SMALL
NO_CHARGES


@<TRIPOS>ATOM
      1 PA         22.1360    0.0720   73.2760 P.3       1 FAD201      0.0000 
      2 O1A        23.1760    1.1180   73.1130 O.co2     1 FAD201      0.0000 
      3 O2A        20.6960    0.5740   73.2000 O.co2     1 FAD201      0.0000 
      4 O5B        22.3300   -1.0990   72.2310 O.3       1 FAD201      0.0000 
      5 C5B        22.3140   -0.8500   70.8100 C.3       1 FAD201      0.0000 
      6 C4B        22.8000   -2.0950   70.1110 C.3       1 FAD201      0.0000 
      7 O4B        24.0450   -2.5050   70.7050 O.3       1 FAD201      0.0000 
      8 C3B        21.8720   -3.2970   70.2360 C.3       1 FAD201      0.0000 
      9 O3B        20.9520   -3.3250   69.1500 O.3       1 FAD201      0.0000 
     10 C2B        22.8310   -4.4950   70.1870 C.3       1 FAD201      0.0000 
     11 O2B        22.9700   -5.0620   68.8890 O.3       1 FAD201      0.0000 
     12 C1B        24.1580   -3.9140   70.6950 C.3       1 FAD201      0.0000 
     13 N9A        24.5140   -4.3510   72.0390 N.pl3     1 FAD201      0.0000 
     14 C8A        24.0550   -3.8380   73.2230 C.2       1 FAD201      0.0000 
     15 N7A        24.5420   -4.4300   74.2860 N.2       1 FAD201      0.0000 
     16 C5A        25.3800   -5.4040   73.7640 C.ar      1 FAD201      0.0000 
     17 C6A        26.1990   -6.3760   74.3700 C.ar      1 FAD201      0.0000 
     18 N6A        26.3120   -6.5340   75.6920 N.pl3     1 FAD201      0.0000 
     19 N1A        26.9090   -7.1920   73.5580 N.ar      1 FAD201      0.0000 
     20 C2A        26.8060   -7.0330   72.2360 C.ar      1 FAD201      0.0000 
     21 N3A        26.0620   -6.1600   71.5530 N.ar      1 FAD201      0.0000 
     22 C4A        25.3720   -5.3670   72.3810 C.ar      1 FAD201      0.0000 
     23 N1         23.4600   -4.5750   81.9460 N.2       1 FAD201      0.0000 
     24 C2         22.7010   -4.4030   83.0680 C.2       1 FAD201      0.0000 
     25 O2         21.7720   -3.5890   83.1050 O.2       1 FAD201      0.0000 
     26 N3         22.9720   -5.1530   84.1980 N.am      1 FAD201      0.0000 
     27 C4         23.9690   -6.1010   84.3270 C.2       1 FAD201      0.0000 
     28 O4         24.1150   -6.7070   85.3870 O.2       1 FAD201      0.0000 
     29 C4X        24.7670   -6.2760   83.1280 C.2       1 FAD201      0.0000 
     30 N5         25.7330   -7.1520   83.1570 N.2       1 FAD201      0.0000 
     31 C5X        26.4960   -7.3170   82.0120 C.ar      1 FAD201      0.0000 
     32 C6         27.5320   -8.2480   82.0240 C.ar      1 FAD201      0.0000 
     33 C7         28.3240   -8.4520   80.8990 C.ar      1 FAD201      0.0000 
     34 C7M        29.4360   -9.4670   80.9490 C.3       1 FAD201      0.0000 
     35 C8         28.0770   -7.7100   79.7330 C.ar      1 FAD201      0.0000 
     36 C8M        28.9180   -7.9030   78.5010 C.3       1 FAD201      0.0000 
     37 C9         27.0440   -6.7780   79.7180 C.ar      1 FAD201      0.0000 
     38 C9A        26.2550   -6.5770   80.8450 C.ar      1 FAD201      0.0000 
     39 N10        25.1990   -5.6430   80.8610 N.pl3     1 FAD201      0.0000 
     40 C10        24.4350   -5.4660   81.9860 C.2       1 FAD201      0.0000 
     41 C1'        24.8940   -4.8350   79.6760 C.3       1 FAD201      0.0000 
     42 C2'        23.7760   -5.4230   78.8260 C.3       1 FAD201      0.0000 
     43 O2'        24.1490   -6.7180   78.3530 O.3       1 FAD201      0.0000 
     44 C3'        23.5240   -4.5060   77.6310 C.3       1 FAD201      0.0000 
     45 O3'        24.7800   -4.2170   77.0290 O.3       1 FAD201      0.0000 
     46 C4'        22.8360   -3.1880   77.9900 C.3       1 FAD201      0.0000 
     47 O4'        21.7690   -3.4300   78.9080 O.3       1 FAD201      0.0000 
     48 C5'        22.3280   -2.4420   76.7750 C.3       1 FAD201      0.0000 
     49 O5'        22.1860   -1.0450   77.1080 O.3       1 FAD201      0.0000 
     50 P          22.5180    0.0830   76.0600 P.3       1 FAD201      0.0000 
     51 O1P        21.4650    1.1920   76.1550 O.co2     1 FAD201      0.0000 
     52 O2P        23.9330    0.5250   76.2010 O.co2     1 FAD201      0.0000 
     53 O3P        22.3160   -0.6580   74.6720 O.3       1 FAD201      0.0000 
@<TRIPOS>BOND
     1    1    2 ar   
     2    1    3 ar   
     3    1    4 1    
     4    1   53 1    
     5    4    5 1    
     6    5    6 1    
     7    6    7 1    
     8    6    8 1    
     9    7   12 1    
    10    8    9 1    
    11    8   10 1    
    12   10   11 1    
    13   10   12 1    
    14   12   13 1    
    15   13   14 1    
    16   13   22 1    
    17   14   15 2    
    18   15   16 1    
    19   16   17 ar   
    20   16   22 ar   
    21   17   18 1    
    22   17   19 ar   
    23   19   20 ar   
    24   20   21 ar   
    25   21   22 ar   
    26   23   24 1    
    27   23   40 2    
    28   24   25 2    
    29   24   26 am   
    30   26   27 am   
    31   27   28 2    
    32   27   29 1    
    33   29   30 2    
    34   29   40 1    
    35   30   31 1    
    36   31   32 ar   
    37   31   38 ar   
    38   32   33 ar   
    39   33   34 1    
    40   33   35 ar   
    41   35   36 1    
    42   35   37 ar   
    43   37   38 ar   
    44   38   39 1    
    45   39   40 1    
    46   39   41 1    
    47   41   42 1    
    48   42   43 1    
    49   42   44 1    
    50   44   45 1    
    51   44   46 1    
    52   46   47 1    
    53   46   48 1    
    54   48   49 1    
    55   49   50 1    
    56   50   51 ar   
    57   50   52 ar   
    58   50   53 1    
@<TRIPOS>SUBSTRUCTURE
     1 FAD201      1 GROUP   
@<TRIPOS>SET
ATOM$ORANGE STATIC     ATOMS   COLORGROUP SYSTEM 
54 5 5 6 6 8 8 10 10 12 12 14 14 16 16 17 17 20 \
20 22 22 24 24 27 27 29 29 31 31 32 32 33 33 34 34 35 \
35 36 36 37 37 38 38 40 40 41 41 42 42 44 44 46 46 48 \
48 

