#    Name: 6eci_2_FAD
#    Modification time : Fri May 22 19:26:58 2020

@<TRIPOS>MOLECULE
6eci_2_FAD
   53    58     1     0     1
SMALL
NO_CHARGES


@<TRIPOS>ATOM
      1 PA         11.8170   -4.1260   26.1090 P.3       1 FAD201      0.0000 
      2 O1A        13.1560   -4.7590   26.2040 O.co2     1 FAD201      0.0000 
      3 O2A        11.7490   -2.6620   26.5480 O.co2     1 FAD201      0.0000 
      4 O5B        11.2230   -4.2620   24.6550 O.3       1 FAD201      0.0000 
      5 C5B        11.9710   -3.8400   23.4950 C.3       1 FAD201      0.0000 
      6 C4B        11.3240   -4.4210   22.2640 C.3       1 FAD201      0.0000 
      7 O4B        11.4610   -5.8560   22.2870 O.3       1 FAD201      0.0000 
      8 C3B         9.8260   -4.1790   22.1400 C.3       1 FAD201      0.0000 
      9 O3B         9.5500   -2.9190   21.5380 O.3       1 FAD201      0.0000 
     10 C2B         9.3760   -5.3410   21.2510 C.3       1 FAD201      0.0000 
     11 O2B         9.4790   -5.0370   19.8650 O.3       1 FAD201      0.0000 
     12 C1B        10.3480   -6.4590   21.6500 C.3       1 FAD201      0.0000 
     13 N9A         9.7710   -7.4440   22.5570 N.pl3     1 FAD201      0.0000 
     14 C8A         9.6230   -7.3400   23.9160 C.2       1 FAD201      0.0000 
     15 N7A         9.0570   -8.3810   24.4770 N.2       1 FAD201      0.0000 
     16 C5A         8.8090   -9.2340   23.4020 C.ar      1 FAD201      0.0000 
     17 C6A         8.2230  -10.5090   23.3270 C.ar      1 FAD201      0.0000 
     18 N6A         7.7600  -11.1860   24.3790 N.pl3     1 FAD201      0.0000 
     19 N1A         8.1350  -11.0800   22.1020 N.ar      1 FAD201      0.0000 
     20 C2A         8.6010  -10.4130   21.0450 C.ar      1 FAD201      0.0000 
     21 N3A         9.1660   -9.2060   20.9980 N.ar      1 FAD201      0.0000 
     22 C4A         9.2450   -8.6640   22.2250 C.ar      1 FAD201      0.0000 
     23 N1          6.1310  -10.9880   31.2820 N.2       1 FAD201      0.0000 
     24 C2          5.4970  -10.8440   32.4810 C.2       1 FAD201      0.0000 
     25 O2          5.6270   -9.8220   33.1630 O.2       1 FAD201      0.0000 
     26 N3          4.6860  -11.8590   32.9540 N.am      1 FAD201      0.0000 
     27 C4          4.4320  -13.0590   32.3210 C.2       1 FAD201      0.0000 
     28 O4          3.6890  -13.8900   32.8420 O.2       1 FAD201      0.0000 
     29 C4X         5.1120  -13.2020   31.0480 C.2       1 FAD201      0.0000 
     30 N5          4.9320  -14.3070   30.3780 N.2       1 FAD201      0.0000 
     31 C5X         5.5830  -14.4410   29.1610 C.ar      1 FAD201      0.0000 
     32 C6          5.4040  -15.6150   28.4320 C.ar      1 FAD201      0.0000 
     33 C7          6.0350  -15.7990   27.2060 C.ar      1 FAD201      0.0000 
     34 C7M         5.8170  -17.0800   26.4450 C.3       1 FAD201      0.0000 
     35 C8          6.8640  -14.7870   26.6940 C.ar      1 FAD201      0.0000 
     36 C8M         7.5640  -14.9560   25.3730 C.3       1 FAD201      0.0000 
     37 C9          7.0460  -13.6130   27.4200 C.ar      1 FAD201      0.0000 
     38 C9A         6.4140  -13.4360   28.6450 C.ar      1 FAD201      0.0000 
     39 N10         6.5820  -12.2620   29.4080 N.pl3     1 FAD201      0.0000 
     40 C10         5.9410  -12.1100   30.6120 C.2       1 FAD201      0.0000 
     41 C1'         7.4220  -11.1620   28.9190 C.3       1 FAD201      0.0000 
     42 C2'         6.6080  -10.0480   28.2680 C.3       1 FAD201      0.0000 
     43 O2'         5.7240  -10.5940   27.2900 O.3       1 FAD201      0.0000 
     44 C3'         7.5530   -9.0530   27.5950 C.3       1 FAD201      0.0000 
     45 O3'         8.5770   -9.7720   26.9200 O.3       1 FAD201      0.0000 
     46 C4'         8.1990   -8.0580   28.5580 C.3       1 FAD201      0.0000 
     47 O4'         7.1920   -7.4670   29.3810 O.3       1 FAD201      0.0000 
     48 C5'         8.9810   -6.9850   27.8330 C.3       1 FAD201      0.0000 
     49 O5'         9.6520   -6.1550   28.8030 O.3       1 FAD201      0.0000 
     50 P          11.0100   -5.4380   28.4590 P.3       1 FAD201      0.0000 
     51 O1P        12.1280   -6.4840   28.4230 O.co2     1 FAD201      0.0000 
     52 O2P        11.2340   -4.2790   29.3530 O.co2     1 FAD201      0.0000 
     53 O3P        10.7700   -4.9390   26.9770 O.3       1 FAD201      0.0000 
@<TRIPOS>BOND
     1    1    2 ar   
     2    1    3 ar   
     3    1    4 1    
     4    1   53 1    
     5    4    5 1    
     6    5    6 1    
     7    6    7 1    
     8    6    8 1    
     9    7   12 1    
    10    8    9 1    
    11    8   10 1    
    12   10   11 1    
    13   10   12 1    
    14   12   13 1    
    15   13   14 1    
    16   13   22 1    
    17   14   15 2    
    18   15   16 1    
    19   16   17 ar   
    20   16   22 ar   
    21   17   18 1    
    22   17   19 ar   
    23   19   20 ar   
    24   20   21 ar   
    25   21   22 ar   
    26   23   24 1    
    27   23   40 2    
    28   24   25 2    
    29   24   26 am   
    30   26   27 am   
    31   27   28 2    
    32   27   29 1    
    33   29   30 2    
    34   29   40 1    
    35   30   31 1    
    36   31   32 ar   
    37   31   38 ar   
    38   32   33 ar   
    39   33   34 1    
    40   33   35 ar   
    41   35   36 1    
    42   35   37 ar   
    43   37   38 ar   
    44   38   39 1    
    45   39   40 1    
    46   39   41 1    
    47   41   42 1    
    48   42   43 1    
    49   42   44 1    
    50   44   45 1    
    51   44   46 1    
    52   46   47 1    
    53   46   48 1    
    54   48   49 1    
    55   49   50 1    
    56   50   51 ar   
    57   50   52 ar   
    58   50   53 1    
@<TRIPOS>SUBSTRUCTURE
     1 FAD201      1 GROUP   
@<TRIPOS>SET
ATOM$ORANGE STATIC     ATOMS   COLORGROUP SYSTEM 
54 5 5 6 6 8 8 10 10 12 12 14 14 16 16 17 17 20 \
20 22 22 24 24 27 27 29 29 31 31 32 32 33 33 34 34 35 \
35 36 36 37 37 38 38 40 40 41 41 42 42 44 44 46 46 48 \
48 

