#    Name: 6eci_13_FAD
#    Modification time : Fri May 22 19:28:08 2020

@<TRIPOS>MOLECULE
6eci_13_FAD
   53    58     1     0     1
SMALL
NO_CHARGES


@<TRIPOS>ATOM
      1 PA         31.2000  -29.6770   22.4320 P.3       1 FAD201      0.0000 
      2 O1A        32.4640  -29.2720   23.1030 O.co2     1 FAD201      0.0000 
      3 O2A        30.9960  -31.1700   22.2110 O.co2     1 FAD201      0.0000 
      4 O5B        29.9130  -29.2420   23.1980 O.3       1 FAD201      0.0000 
      5 C5B        28.6590  -29.0840   22.5050 C.3       1 FAD201      0.0000 
      6 C4B        27.5790  -29.9910   23.0430 C.3       1 FAD201      0.0000 
      7 O4B        26.2940  -29.5040   22.6100 O.3       1 FAD201      0.0000 
      8 C3B        27.6770  -31.4580   22.6190 C.3       1 FAD201      0.0000 
      9 O3B        27.7400  -32.3010   23.7630 O.3       1 FAD201      0.0000 
     10 C2B        26.3990  -31.7300   21.8050 C.3       1 FAD201      0.0000 
     11 O2B        25.4980  -32.5930   22.4900 O.3       1 FAD201      0.0000 
     12 C1B        25.7610  -30.3520   21.6200 C.3       1 FAD201      0.0000 
     13 N9A        25.9530  -29.7520   20.2980 N.pl3     1 FAD201      0.0000 
     14 C8A        27.1250  -29.3500   19.7130 C.2       1 FAD201      0.0000 
     15 N7A        26.9820  -28.8510   18.5090 N.2       1 FAD201      0.0000 
     16 C5A        25.6160  -28.9380   18.2810 C.ar      1 FAD201      0.0000 
     17 C6A        24.8140  -28.5790   17.1800 C.ar      1 FAD201      0.0000 
     18 N6A        25.2890  -28.0340   16.0570 N.pl3     1 FAD201      0.0000 
     19 N1A        23.4850  -28.8030   17.2770 N.ar      1 FAD201      0.0000 
     20 C2A        23.0020  -29.3440   18.3970 C.ar      1 FAD201      0.0000 
     21 N3A        23.6590  -29.7250   19.4930 N.ar      1 FAD201      0.0000 
     22 C4A        24.9730  -29.4940   19.3710 C.ar      1 FAD201      0.0000 
     23 N1         31.1460  -25.4440   13.0980 N.2       1 FAD201      0.0000 
     24 C2         32.2680  -25.3020   12.3360 C.2       1 FAD201      0.0000 
     25 O2         33.3880  -25.5830   12.7740 O.2       1 FAD201      0.0000 
     26 N3         32.1600  -24.8310   11.0400 N.am      1 FAD201      0.0000 
     27 C4         30.9940  -24.4740   10.4000 C.2       1 FAD201      0.0000 
     28 O4         31.0240  -24.0660    9.2400 O.2       1 FAD201      0.0000 
     29 C4X        29.8070  -24.6290   11.2180 C.2       1 FAD201      0.0000 
     30 N5         28.6560  -24.3140   10.6950 N.2       1 FAD201      0.0000 
     31 C5X        27.5220  -24.4620   11.4790 C.ar      1 FAD201      0.0000 
     32 C6         26.2840  -24.1290   10.9360 C.ar      1 FAD201      0.0000 
     33 C7         25.1160  -24.2620   11.6800 C.ar      1 FAD201      0.0000 
     34 C7M        23.7950  -23.8920   11.0570 C.3       1 FAD201      0.0000 
     35 C8         25.1850  -24.7410   12.9990 C.ar      1 FAD201      0.0000 
     36 C8M        23.9400  -24.8920   13.8330 C.3       1 FAD201      0.0000 
     37 C9         26.4210  -25.0740   13.5450 C.ar      1 FAD201      0.0000 
     38 C9A        27.5850  -24.9370   12.7980 C.ar      1 FAD201      0.0000 
     39 N10        28.8530  -25.2680   13.3210 N.pl3     1 FAD201      0.0000 
     40 C10        29.9850  -25.1240   12.5580 C.2       1 FAD201      0.0000 
     41 C1'        28.9920  -25.7710   14.6930 C.3       1 FAD201      0.0000 
     42 C2'        29.1630  -27.2860   14.7590 C.3       1 FAD201      0.0000 
     43 O2'        28.0820  -27.9350   14.0900 O.3       1 FAD201      0.0000 
     44 C3'        29.1900  -27.7240   16.2230 C.3       1 FAD201      0.0000 
     45 O3'        28.2730  -26.9150   16.9500 O.3       1 FAD201      0.0000 
     46 C4'        30.5670  -27.6220   16.8810 C.3       1 FAD201      0.0000 
     47 O4'        31.5570  -28.1740   16.0120 O.3       1 FAD201      0.0000 
     48 C5'        30.6190  -28.2890   18.2400 C.3       1 FAD201      0.0000 
     49 O5'        31.8750  -27.9670   18.8740 O.3       1 FAD201      0.0000 
     50 P          31.9800  -27.7750   20.4350 P.3       1 FAD201      0.0000 
     51 O1P        33.4310  -28.0220   20.8600 O.co2     1 FAD201      0.0000 
     52 O2P        31.4290  -26.4540   20.8240 O.co2     1 FAD201      0.0000 
     53 O3P        31.0640  -28.9510   21.0270 O.3       1 FAD201      0.0000 
@<TRIPOS>BOND
     1    1    2 ar   
     2    1    3 ar   
     3    1    4 1    
     4    1   53 1    
     5    4    5 1    
     6    5    6 1    
     7    6    7 1    
     8    6    8 1    
     9    7   12 1    
    10    8    9 1    
    11    8   10 1    
    12   10   11 1    
    13   10   12 1    
    14   12   13 1    
    15   13   14 1    
    16   13   22 1    
    17   14   15 2    
    18   15   16 1    
    19   16   17 ar   
    20   16   22 ar   
    21   17   18 1    
    22   17   19 ar   
    23   19   20 ar   
    24   20   21 ar   
    25   21   22 ar   
    26   23   24 1    
    27   23   40 2    
    28   24   25 2    
    29   24   26 am   
    30   26   27 am   
    31   27   28 2    
    32   27   29 1    
    33   29   30 2    
    34   29   40 1    
    35   30   31 1    
    36   31   32 ar   
    37   31   38 ar   
    38   32   33 ar   
    39   33   34 1    
    40   33   35 ar   
    41   35   36 1    
    42   35   37 ar   
    43   37   38 ar   
    44   38   39 1    
    45   39   40 1    
    46   39   41 1    
    47   41   42 1    
    48   42   43 1    
    49   42   44 1    
    50   44   45 1    
    51   44   46 1    
    52   46   47 1    
    53   46   48 1    
    54   48   49 1    
    55   49   50 1    
    56   50   51 ar   
    57   50   52 ar   
    58   50   53 1    
@<TRIPOS>SUBSTRUCTURE
     1 FAD201      1 GROUP   
@<TRIPOS>SET
ATOM$ORANGE STATIC     ATOMS   COLORGROUP SYSTEM 
54 5 5 6 6 8 8 10 10 12 12 14 14 16 16 17 17 20 \
20 22 22 24 24 27 27 29 29 31 31 32 32 33 33 34 34 35 \
35 36 36 37 37 38 38 40 40 41 41 42 42 44 44 46 46 48 \
48 

