#    Name: 6eci_3_FAD
#    Modification time : Fri May 22 19:27:04 2020

@<TRIPOS>MOLECULE
6eci_3_FAD
   53    58     1     0     1
SMALL
NO_CHARGES


@<TRIPOS>ATOM
      1 PA        -14.1680    6.7780   78.9540 P.3       1 FAD201      0.0000 
      2 O1A       -14.3850    5.5060   79.6870 O.co2     1 FAD201      0.0000 
      3 O2A       -15.3280    7.7820   79.0090 O.co2     1 FAD201      0.0000 
      4 O5B       -13.8070    6.4830   77.4480 O.3       1 FAD201      0.0000 
      5 C5B       -14.8360    6.2730   76.4570 C.3       1 FAD201      0.0000 
      6 C4B       -14.2860    6.7100   75.1250 C.3       1 FAD201      0.0000 
      7 O4B       -14.1090    8.1340   75.1540 O.3       1 FAD201      0.0000 
      8 C3B       -12.9270    6.1030   74.7850 C.3       1 FAD201      0.0000 
      9 O3B       -13.0810    5.0500   73.8400 O.3       1 FAD201      0.0000 
     10 C2B       -12.1100    7.2650   74.1970 C.3       1 FAD201      0.0000 
     11 O2B       -11.8250    7.0600   72.8180 O.3       1 FAD201      0.0000 
     12 C1B       -12.9830    8.5100   74.4030 C.3       1 FAD201      0.0000 
     13 N9A       -12.3110    9.5800   75.1330 N.pl3     1 FAD201      0.0000 
     14 C8A       -12.0560    9.6150   76.4780 C.2       1 FAD201      0.0000 
     15 N7A       -11.4380   10.7000   76.8780 N.2       1 FAD201      0.0000 
     16 C5A       -11.2740   11.4320   75.7120 C.ar      1 FAD201      0.0000 
     17 C6A       -10.6850   12.6840   75.4520 C.ar      1 FAD201      0.0000 
     18 N6A       -10.1300   13.4530   76.3940 N.pl3     1 FAD201      0.0000 
     19 N1A       -10.6920   13.1280   74.1740 N.ar      1 FAD201      0.0000 
     20 C2A       -11.2490   12.3650   73.2300 C.ar      1 FAD201      0.0000 
     21 N3A       -11.8280   11.1690   73.3550 N.ar      1 FAD201      0.0000 
     22 C4A       -11.8110   10.7560   74.6280 C.ar      1 FAD201      0.0000 
     23 N1         -7.9090   13.3470   83.3150 N.2       1 FAD201      0.0000 
     24 C2         -7.2570   13.1220   84.4920 C.2       1 FAD201      0.0000 
     25 O2         -7.5000   12.1290   85.1880 O.2       1 FAD201      0.0000 
     26 N3         -6.3000   14.0230   84.9260 N.am      1 FAD201      0.0000 
     27 C4         -5.9100   15.1740   84.2710 C.2       1 FAD201      0.0000 
     28 O4         -5.0440   15.8990   84.7570 O.2       1 FAD201      0.0000 
     29 C4X        -6.6100   15.4030   83.0230 C.2       1 FAD201      0.0000 
     30 N5         -6.3070   16.4690   82.3350 N.2       1 FAD201      0.0000 
     31 C5X        -6.9780   16.6860   81.1400 C.ar      1 FAD201      0.0000 
     32 C6         -6.6690   17.8210   80.3910 C.ar      1 FAD201      0.0000 
     33 C7         -7.3150   18.0810   79.1860 C.ar      1 FAD201      0.0000 
     34 C7M        -6.9560   19.3150   78.4020 C.3       1 FAD201      0.0000 
     35 C8         -8.2920   17.1870   78.7160 C.ar      1 FAD201      0.0000 
     36 C8M        -9.0090   17.4380   77.4150 C.3       1 FAD201      0.0000 
     37 C9         -8.6030   16.0540   79.4620 C.ar      1 FAD201      0.0000 
     38 C9A        -7.9560   15.8000   80.6660 C.ar      1 FAD201      0.0000 
     39 N10        -8.2510   14.6630   81.4450 N.pl3     1 FAD201      0.0000 
     40 C10        -7.5940   14.4310   82.6270 C.2       1 FAD201      0.0000 
     41 C1'        -9.2460   13.6840   80.9960 C.3       1 FAD201      0.0000 
     42 C2'        -8.6120   12.4320   80.3950 C.3       1 FAD201      0.0000 
     43 O2'        -7.6360   12.7830   79.4130 O.3       1 FAD201      0.0000 
     44 C3'        -9.6980   11.5790   79.7440 C.3       1 FAD201      0.0000 
     45 O3'       -10.5610   12.4320   79.0020 O.3       1 FAD201      0.0000 
     46 C4'       -10.5300   10.7880   80.7520 C.3       1 FAD201      0.0000 
     47 O4'        -9.6800    9.9220   81.5030 O.3       1 FAD201      0.0000 
     48 C5'       -11.6400    9.9980   80.0930 C.3       1 FAD201      0.0000 
     49 O5'       -12.4050    9.3280   81.1150 O.3       1 FAD201      0.0000 
     50 P         -12.6560    7.7770   81.0590 P.3       1 FAD201      0.0000 
     51 O1P       -11.3780    7.0440   81.4800 O.co2     1 FAD201      0.0000 
     52 O2P       -13.8860    7.4280   81.8200 O.co2     1 FAD201      0.0000 
     53 O3P       -12.8800    7.5100   79.5130 O.3       1 FAD201      0.0000 
@<TRIPOS>BOND
     1    1    2 ar   
     2    1    3 ar   
     3    1    4 1    
     4    1   53 1    
     5    4    5 1    
     6    5    6 1    
     7    6    7 1    
     8    6    8 1    
     9    7   12 1    
    10    8    9 1    
    11    8   10 1    
    12   10   11 1    
    13   10   12 1    
    14   12   13 1    
    15   13   14 1    
    16   13   22 1    
    17   14   15 2    
    18   15   16 1    
    19   16   17 ar   
    20   16   22 ar   
    21   17   18 1    
    22   17   19 ar   
    23   19   20 ar   
    24   20   21 ar   
    25   21   22 ar   
    26   23   24 1    
    27   23   40 2    
    28   24   25 2    
    29   24   26 am   
    30   26   27 am   
    31   27   28 2    
    32   27   29 1    
    33   29   30 2    
    34   29   40 1    
    35   30   31 1    
    36   31   32 ar   
    37   31   38 ar   
    38   32   33 ar   
    39   33   34 1    
    40   33   35 ar   
    41   35   36 1    
    42   35   37 ar   
    43   37   38 ar   
    44   38   39 1    
    45   39   40 1    
    46   39   41 1    
    47   41   42 1    
    48   42   43 1    
    49   42   44 1    
    50   44   45 1    
    51   44   46 1    
    52   46   47 1    
    53   46   48 1    
    54   48   49 1    
    55   49   50 1    
    56   50   51 ar   
    57   50   52 ar   
    58   50   53 1    
@<TRIPOS>SUBSTRUCTURE
     1 FAD201      1 GROUP   
@<TRIPOS>SET
ATOM$ORANGE STATIC     ATOMS   COLORGROUP SYSTEM 
54 5 5 6 6 8 8 10 10 12 12 14 14 16 16 17 17 20 \
20 22 22 24 24 27 27 29 29 31 31 32 32 33 33 34 34 35 \
35 36 36 37 37 38 38 40 40 41 41 42 42 44 44 46 46 48 \
48 

