#    Name: 6eci_15_FAD
#    Modification time : Fri May 22 19:28:21 2020

@<TRIPOS>MOLECULE
6eci_15_FAD
   53    58     1     0     1
SMALL
NO_CHARGES


@<TRIPOS>ATOM
      1 PA         19.1880  -43.4410   49.7830 P.3       1 FAD202      0.0000 
      2 O1A        18.0990  -43.9570   50.6460 O.co2     1 FAD202      0.0000 
      3 O2A        19.1120  -41.9420   49.4880 O.co2     1 FAD202      0.0000 
      4 O5B        20.5940  -43.7930   50.3850 O.3       1 FAD202      0.0000 
      5 C5B        21.8030  -43.1970   49.8690 C.3       1 FAD202      0.0000 
      6 C4B        22.8610  -44.2700   49.8500 C.3       1 FAD202      0.0000 
      7 O4B        22.2480  -45.5190   50.2080 O.3       1 FAD202      0.0000 
      8 C3B        23.5450  -44.4650   48.4990 C.3       1 FAD202      0.0000 
      9 O3B        24.8810  -43.9770   48.5450 O.3       1 FAD202      0.0000 
     10 C2B        23.5110  -45.9810   48.2390 C.3       1 FAD202      0.0000 
     11 O2B        24.8180  -46.5410   48.1690 O.3       1 FAD202      0.0000 
     12 C1B        22.7350  -46.5760   49.4200 C.3       1 FAD202      0.0000 
     13 N9A        21.5930  -47.3880   49.0160 N.pl3     1 FAD202      0.0000 
     14 C8A        20.3990  -46.9360   48.5210 C.2       1 FAD202      0.0000 
     15 N7A        19.5410  -47.8870   48.2400 N.2       1 FAD202      0.0000 
     16 C5A        20.2200  -49.0480   48.5730 C.ar      1 FAD202      0.0000 
     17 C6A        19.8620  -50.4090   48.5120 C.ar      1 FAD202      0.0000 
     18 N6A        18.6790  -50.8470   48.0730 N.pl3     1 FAD202      0.0000 
     19 N1A        20.7740  -51.3160   48.9260 N.ar      1 FAD202      0.0000 
     20 C2A        21.9580  -50.8850   49.3680 C.ar      1 FAD202      0.0000 
     21 N3A        22.4070  -49.6330   49.4700 N.ar      1 FAD202      0.0000 
     22 C4A        21.4860  -48.7560   49.0560 C.ar      1 FAD202      0.0000 
     23 N1         12.3460  -48.9410   45.0570 N.2       1 FAD202      0.0000 
     24 C2         11.3580  -48.5230   44.2150 C.2       1 FAD202      0.0000 
     25 O2         11.1980  -47.3270   43.9500 O.2       1 FAD202      0.0000 
     26 N3         10.5080  -49.4530   43.6430 N.am      1 FAD202      0.0000 
     27 C4         10.5510  -50.8220   43.8340 C.2       1 FAD202      0.0000 
     28 O4          9.7390  -51.5520   43.2680 O.2       1 FAD202      0.0000 
     29 C4X        11.6090  -51.2550   44.7280 C.2       1 FAD202      0.0000 
     30 N5         11.7270  -52.5350   44.9670 N.2       1 FAD202      0.0000 
     31 C5X        12.7400  -52.9470   45.8220 C.ar      1 FAD202      0.0000 
     32 C6         12.8810  -54.3090   46.0900 C.ar      1 FAD202      0.0000 
     33 C7         13.8810  -54.7720   46.9410 C.ar      1 FAD202      0.0000 
     34 C7M        14.0040  -56.2490   47.2110 C.3       1 FAD202      0.0000 
     35 C8         14.7620  -53.8550   47.5370 C.ar      1 FAD202      0.0000 
     36 C8M        15.8530  -54.3230   48.4640 C.3       1 FAD202      0.0000 
     37 C9         14.6270  -52.4960   47.2670 C.ar      1 FAD202      0.0000 
     38 C9A        13.6230  -52.0360   46.4230 C.ar      1 FAD202      0.0000 
     39 N10        13.4630  -50.6650   46.1300 N.pl3     1 FAD202      0.0000 
     40 C10        12.4600  -50.2390   45.2910 C.2       1 FAD202      0.0000 
     41 C1'        14.3500  -49.6590   46.7380 C.3       1 FAD202      0.0000 
     42 C2'        15.3270  -49.0330   45.7470 C.3       1 FAD202      0.0000 
     43 O2'        16.1380  -50.0450   45.1510 O.3       1 FAD202      0.0000 
     44 C3'        16.2110  -48.0260   46.4830 C.3       1 FAD202      0.0000 
     45 O3'        16.8100  -48.6960   47.5860 O.3       1 FAD202      0.0000 
     46 C4'        15.4810  -46.7850   47.0030 C.3       1 FAD202      0.0000 
     47 O4'        14.9790  -46.0170   45.9080 O.3       1 FAD202      0.0000 
     48 C5'        16.3620  -45.9230   47.8830 C.3       1 FAD202      0.0000 
     49 O5'        17.4300  -45.3730   47.0840 O.3       1 FAD202      0.0000 
     50 P          18.0160  -43.9350   47.3610 P.3       1 FAD202      0.0000 
     51 O1P        17.0350  -42.9700   48.0360 O.co2     1 FAD202      0.0000 
     52 O2P        18.5730  -43.4140   46.1050 O.co2     1 FAD202      0.0000 
     53 O3P        19.1770  -44.1990   48.3920 O.3       1 FAD202      0.0000 
@<TRIPOS>BOND
     1    1    2 ar   
     2    1    3 ar   
     3    1    4 1    
     4    1   53 1    
     5    4    5 1    
     6    5    6 1    
     7    6    7 1    
     8    6    8 1    
     9    7   12 1    
    10    8    9 1    
    11    8   10 1    
    12   10   11 1    
    13   10   12 1    
    14   12   13 1    
    15   13   14 1    
    16   13   22 1    
    17   14   15 2    
    18   15   16 1    
    19   16   17 ar   
    20   16   22 ar   
    21   17   18 1    
    22   17   19 ar   
    23   19   20 ar   
    24   20   21 ar   
    25   21   22 ar   
    26   23   24 1    
    27   23   40 2    
    28   24   25 2    
    29   24   26 am   
    30   26   27 am   
    31   27   28 2    
    32   27   29 1    
    33   29   30 2    
    34   29   40 1    
    35   30   31 1    
    36   31   32 ar   
    37   31   38 ar   
    38   32   33 ar   
    39   33   34 1    
    40   33   35 ar   
    41   35   36 1    
    42   35   37 ar   
    43   37   38 ar   
    44   38   39 1    
    45   39   40 1    
    46   39   41 1    
    47   41   42 1    
    48   42   43 1    
    49   42   44 1    
    50   44   45 1    
    51   44   46 1    
    52   46   47 1    
    53   46   48 1    
    54   48   49 1    
    55   49   50 1    
    56   50   51 ar   
    57   50   52 ar   
    58   50   53 1    
@<TRIPOS>SUBSTRUCTURE
     1 FAD202      1 GROUP   
@<TRIPOS>SET
ATOM$ORANGE STATIC     ATOMS   COLORGROUP SYSTEM 
54 5 5 6 6 8 8 10 10 12 12 14 14 16 16 17 17 20 \
20 22 22 24 24 27 27 29 29 31 31 32 32 33 33 34 34 35 \
35 36 36 37 37 38 38 40 40 41 41 42 42 44 44 46 46 48 \
48 

