#    Name: 6p8w_2_GDP
#    Modification time : Fri May 22 19:28:42 2020

@<TRIPOS>MOLECULE
6p8w_2_GDP
   28    30     1     0     1
SMALL
NO_CHARGES


@<TRIPOS>ATOM
      1 PB         33.1230   65.7700  -83.2220 P.3       1 GDP303      0.0000 
      2 O1B        33.0490   67.0960  -83.8920 O.co2     1 GDP303      0.0000 
      3 O2B        32.0200   65.5540  -82.2510 O.co2     1 GDP303      0.0000 
      4 O3B        34.4720   65.4850  -82.6770 O.co2     1 GDP303      0.0000 
      5 O3A        32.9010   64.7140  -84.3960 O.3       1 GDP303      0.0000 
      6 PA         32.9520   65.0520  -85.9700 P.3       1 GDP303      0.0000 
      7 O1A        34.3130   65.4830  -86.3310 O.co2     1 GDP303      0.0000 
      8 O2A        31.8120   65.9220  -86.3230 O.co2     1 GDP303      0.0000 
      9 O5'        32.6820   63.6440  -86.6390 O.3       1 GDP303      0.0000 
     10 C5'        33.4260   62.5030  -86.2490 C.3       1 GDP303      0.0000 
     11 C4'        33.2760   61.4010  -87.2810 C.3       1 GDP303      0.0000 
     12 O4'        31.9180   60.9860  -87.4040 O.3       1 GDP303      0.0000 
     13 C3'        33.6960   61.9020  -88.6400 C.3       1 GDP303      0.0000 
     14 O3'        34.4000   60.8560  -89.2940 O.3       1 GDP303      0.0000 
     15 C2'        32.3880   62.1540  -89.3410 C.3       1 GDP303      0.0000 
     16 O2'        32.5120   62.0040  -90.7470 O.3       1 GDP303      0.0000 
     17 C1'        31.4960   61.0850  -88.7560 C.3       1 GDP303      0.0000 
     18 N9         30.0890   61.4980  -88.7960 N.pl3     1 GDP303      0.0000 
     19 C8         29.6410   62.6600  -88.3220 C.2       1 GDP303      0.0000 
     20 N7         28.3160   62.7650  -88.4810 N.2       1 GDP303      0.0000 
     21 C5         27.8980   61.6400  -89.0680 C.2       1 GDP303      0.0000 
     22 C6         26.6030   61.1170  -89.5070 C.2       1 GDP303      0.0000 
     23 O6         25.5910   61.8000  -89.3420 O.2       1 GDP303      0.0000 
     24 N1         26.5590   59.9190  -90.0810 N.am      1 GDP303      0.0000 
     25 C2         27.6650   59.1820  -90.2520 C.2       1 GDP303      0.0000 
     26 N2         27.5440   57.9700  -90.8330 N.pl3     1 GDP303      0.0000 
     27 N3         28.8960   59.5990  -89.8630 N.2       1 GDP303      0.0000 
     28 C4         29.0680   60.8010  -89.2790 C.2       1 GDP303      0.0000 
@<TRIPOS>BOND
     1    1    2 ar   
     2    1    3 ar   
     3    1    4 ar   
     4    1    5 1    
     5    5    6 1    
     6    6    7 ar   
     7    6    8 ar   
     8    6    9 1    
     9    9   10 1    
    10   10   11 1    
    11   11   12 1    
    12   11   13 1    
    13   12   17 1    
    14   13   14 1    
    15   13   15 1    
    16   15   16 1    
    17   15   17 1    
    18   17   18 1    
    19   18   19 1    
    20   18   28 1    
    21   19   20 2    
    22   20   21 1    
    23   21   22 1    
    24   21   28 2    
    25   22   23 2    
    26   22   24 am   
    27   24   25 1    
    28   25   26 1    
    29   25   27 2    
    30   27   28 1    
@<TRIPOS>SUBSTRUCTURE
     1 GDP303      1 GROUP   
@<TRIPOS>SET
ATOM$ORANGE STATIC     ATOMS   COLORGROUP SYSTEM 
20 10 10 11 11 13 13 15 15 17 17 19 19 21 21 22 22 25 \
25 28 28 

