#    Name: 6on2_1_ALA_ALA_ALA_ALA_ALA_ALA_ALA
#    Modification time : Fri May 22 19:41:46 2020

@<TRIPOS>MOLECULE
6on2_1_ALA_ALA_ALA_ALA_ALA_ALA_ALA
   36    35     7     0     0
SMALL
NO_CHARGES


@<TRIPOS>ATOM
      1 N         110.0030   70.1440  104.9510 N.4       1 ALA1        0.0000 
      2 CA        108.9900   69.9060  103.9300 C.3       1 ALA1        0.0000 
      3 C         107.6140   70.3230  104.4310 C.2       1 ALA1        0.0000 
      4 O         107.1680   69.8790  105.4840 O.2       1 ALA1        0.0000 
      5 CB        108.9870   68.4460  103.5200 C.3       1 ALA1        0.0000 
      6 N         106.9410   71.1780  103.6660 N.am      2 ALA2        0.0000 
      7 CA        105.6540   71.7360  104.0560 C.3       2 ALA2        0.0000 
      8 C         104.7300   71.7920  102.8490 C.2       2 ALA2        0.0000 
      9 O         105.1260   72.2740  101.7830 O.2       2 ALA2        0.0000 
     10 CB        105.8260   73.1300  104.6560 C.3       2 ALA2        0.0000 
     11 N         103.5070   71.3000  103.0210 N.am      3 ALA3        0.0000 
     12 CA        102.5270   71.3180  101.9460 C.3       3 ALA3        0.0000 
     13 C         102.0350   72.7380  101.6930 C.2       3 ALA3        0.0000 
     14 O         102.0820   73.6020  102.5710 O.2       3 ALA3        0.0000 
     15 CB        101.3470   70.4060  102.2800 C.3       3 ALA3        0.0000 
     16 N         101.5560   72.9740  100.4730 N.am      4 ALA4        0.0000 
     17 CA        101.1040   74.2950  100.0610 C.3       4 ALA4        0.0000 
     18 C         100.0790   74.1500   98.9490 C.2       4 ALA4        0.0000 
     19 O         100.3660   73.5450   97.9120 O.2       4 ALA4        0.0000 
     20 CB        102.2830   75.1580   99.5990 C.3       4 ALA4        0.0000 
     21 N          98.8910   74.7070   99.1640 N.am      5 ALA5        0.0000 
     22 CA         97.7660   74.5440   98.2550 C.3       5 ALA5        0.0000 
     23 C          97.8220   75.5850   97.1490 C.2       5 ALA5        0.0000 
     24 O          97.8820   76.7870   97.4160 O.2       5 ALA5        0.0000 
     25 CB         96.4380   74.6570   99.0040 C.3       5 ALA5        0.0000 
     26 N          97.7940   75.1150   95.9050 N.am      6 ALA6        0.0000 
     27 CA         97.8220   75.9880   94.7430 C.3       6 ALA6        0.0000 
     28 C          96.4660   75.9490   94.0590 C.2       6 ALA6        0.0000 
     29 O          95.7250   74.9700   94.1880 O.2       6 ALA6        0.0000 
     30 CB         98.9230   75.5800   93.7580 C.3       6 ALA6        0.0000 
     31 N          96.1460   77.0160   93.3350 N.am      7 ALA7        0.0000 
     32 CA         94.8590   77.1280   92.6640 C.3       7 ALA7        0.0000 
     33 C          95.0090   76.9030   91.1660 C.2       7 ALA7        0.0000 
     34 O          96.1160   76.9230   90.6320 O.2       7 ALA7        0.0000 
     35 CB         94.2330   78.4850   92.9400 C.3       7 ALA7        0.0000 
     36 OXT        94.0270   76.6930   90.4540 O.2       7 ALA7        0.0000 
@<TRIPOS>BOND
     1    1    2 1    
     2    2    3 1    
     3    2    5 1    
     4    3    4 2    
     5    3    6 am   
     6    6    7 1    
     7    7    8 1    
     8    7   10 1    
     9    8    9 2    
    10    8   11 am   
    11   11   12 1    
    12   12   13 1    
    13   12   15 1    
    14   13   14 2    
    15   13   16 am   
    16   16   17 1    
    17   17   18 1    
    18   17   20 1    
    19   18   19 2    
    20   18   21 am   
    21   21   22 1    
    22   22   23 1    
    23   22   25 1    
    24   23   24 2    
    25   23   26 am   
    26   26   27 1    
    27   27   28 1    
    28   27   30 1    
    29   28   29 2    
    30   28   31 am   
    31   31   32 1    
    32   32   33 1    
    33   32   35 1    
    34   33   34 2    
    35   33   36 2    
@<TRIPOS>SUBSTRUCTURE
     1 ALA1        1 RESIDUE 
     2 ALA2        6 RESIDUE 
     3 ALA3       11 RESIDUE 
     4 ALA4       16 RESIDUE 
     5 ALA5       21 RESIDUE 
     6 ALA6       26 RESIDUE 
     7 ALA7       31 RESIDUE 
@<TRIPOS>SET

