#    Name: 6on2_6_ADP
#    Modification time : Fri May 22 19:42:38 2020

@<TRIPOS>MOLECULE
6on2_6_ADP
   27    29     1     0     1
SMALL
NO_CHARGES


@<TRIPOS>ATOM
      1 PB         94.6430   53.5140   59.8450 P.3       1 ADP801      0.0000 
      2 O1B        95.3870   54.1320   58.6900 O.co2     1 ADP801      0.0000 
      3 O2B        95.0310   54.0700   61.1900 O.co2     1 ADP801      0.0000 
      4 O3B        93.1560   53.4080   59.6260 O.co2     1 ADP801      0.0000 
      5 PA         96.6900   51.5600   59.7900 P.3       1 ADP801      0.0000 
      6 O1A        97.2830   52.0100   58.4830 O.co2     1 ADP801      0.0000 
      7 O2A        97.3510   51.9850   61.0770 O.co2     1 ADP801      0.0000 
      8 O3A        95.1400   51.9810   59.8930 O.3       1 ADP801      0.0000 
      9 O5'        96.6590   49.9520   59.7800 O.3       1 ADP801      0.0000 
     10 C5'        96.1230   49.2300   58.6780 C.3       1 ADP801      0.0000 
     11 C4'        96.6570   47.8040   58.6980 C.3       1 ADP801      0.0000 
     12 O4'        96.2720   47.1470   57.4950 O.3       1 ADP801      0.0000 
     13 C3'        98.1720   47.7900   58.7570 C.3       1 ADP801      0.0000 
     14 O3'        98.6010   46.9770   59.8500 O.3       1 ADP801      0.0000 
     15 C2'        98.6450   47.1860   57.4530 C.3       1 ADP801      0.0000 
     16 O2'        99.5200   46.0830   57.6960 O.3       1 ADP801      0.0000 
     17 C1'        97.3990   46.6930   56.7530 C.3       1 ADP801      0.0000 
     18 N9         97.3260   47.3160   55.4180 N.pl3     1 ADP801      0.0000 
     19 C8         96.6100   48.4110   55.1240 C.2       1 ADP801      0.0000 
     20 N7         96.7350   48.7420   53.8170 N.2       1 ADP801      0.0000 
     21 C5         97.5560   47.8400   53.2550 C.ar      1 ADP801      0.0000 
     22 C6         98.1070   47.6030   51.9090 C.ar      1 ADP801      0.0000 
     23 N6         97.8030   48.4210   50.8760 N.pl3     1 ADP801      0.0000 
     24 N1         98.9220   46.5480   51.7460 N.ar      1 ADP801      0.0000 
     25 C2         99.2330   45.7330   52.7640 C.ar      1 ADP801      0.0000 
     26 N3         98.7700   45.8860   54.0110 N.ar      1 ADP801      0.0000 
     27 C4         97.9390   46.9030   54.3140 C.ar      1 ADP801      0.0000 
@<TRIPOS>BOND
     1    1    2 ar   
     2    1    3 ar   
     3    1    4 ar   
     4    1    8 1    
     5    5    6 ar   
     6    5    7 ar   
     7    5    8 1    
     8    5    9 1    
     9    9   10 1    
    10   10   11 1    
    11   11   12 1    
    12   11   13 1    
    13   12   17 1    
    14   13   14 1    
    15   13   15 1    
    16   15   16 1    
    17   15   17 1    
    18   17   18 1    
    19   18   19 1    
    20   18   27 1    
    21   19   20 2    
    22   20   21 1    
    23   21   22 ar   
    24   21   27 ar   
    25   22   23 1    
    26   22   24 ar   
    27   24   25 ar   
    28   25   26 ar   
    29   26   27 ar   
@<TRIPOS>SUBSTRUCTURE
     1 ADP801      1 GROUP   
@<TRIPOS>SET
ATOM$ORANGE STATIC     ATOMS   COLORGROUP SYSTEM 
20 10 10 11 11 13 13 15 15 17 17 19 19 21 21 22 22 25 \
25 27 27 

