#    Name: 6on2_5_ATP
#    Modification time : Fri May 22 19:42:27 2020

@<TRIPOS>MOLECULE
6on2_5_ATP
   31    33     1     0     1
SMALL
NO_CHARGES


@<TRIPOS>ATOM
      1 PG         93.9680   82.7020   52.7890 P.3       1 ATP801      0.0000 
      2 O1G        93.1660   83.9660   52.6360 O.co2     1 ATP801      0.0000 
      3 O2G        94.8480   82.6430   54.0130 O.co2     1 ATP801      0.0000 
      4 O3G        93.1650   81.4530   52.5470 O.co2     1 ATP801      0.0000 
      5 PB         96.0880   83.8920   51.3580 P.3       1 ATP801      0.0000 
      6 O1B        96.9330   84.0130   52.5970 O.co2     1 ATP801      0.0000 
      7 O2B        95.4100   85.0950   50.7640 O.co2     1 ATP801      0.0000 
      8 O3B        94.9950   82.7290   51.5550 O.3       1 ATP801      0.0000 
      9 PA         98.5980   83.2180   50.3290 P.3       1 ATP801      0.0000 
     10 O1A        98.9630   82.0510   51.2060 O.co2     1 ATP801      0.0000 
     11 O2A        99.1260   84.5820   50.6730 O.co2     1 ATP801      0.0000 
     12 O3A        97.0010   83.2610   50.2070 O.3       1 ATP801      0.0000 
     13 O5'        99.0100   82.8920   48.8080 O.3       1 ATP801      0.0000 
     14 C5'        99.6760   81.6840   48.4600 C.3       1 ATP801      0.0000 
     15 C4'       100.7600   81.9910   47.4430 C.3       1 ATP801      0.0000 
     16 O4'       100.2490   82.7820   46.3740 O.3       1 ATP801      0.0000 
     17 C3'       101.8690   82.8040   48.0840 C.3       1 ATP801      0.0000 
     18 O3'       103.0310   81.9890   48.2420 O.3       1 ATP801      0.0000 
     19 C2'       102.1580   83.9370   47.1250 C.3       1 ATP801      0.0000 
     20 O2'       103.5290   83.9100   46.7310 O.3       1 ATP801      0.0000 
     21 C1'       101.2670   83.6770   45.9270 C.3       1 ATP801      0.0000 
     22 N9        100.6710   84.9420   45.4460 N.pl3     1 ATP801      0.0000 
     23 C8         99.4100   85.3350   45.6600 C.2       1 ATP801      0.0000 
     24 N7         99.1600   86.5330   45.0850 N.2       1 ATP801      0.0000 
     25 C5        100.2920   86.9270   44.4940 C.ar      1 ATP801      0.0000 
     26 C6        100.7230   88.0990   43.7120 C.ar      1 ATP801      0.0000 
     27 N6         99.8660   89.1110   43.4540 N.pl3     1 ATP801      0.0000 
     28 N1        101.9950   88.1270   43.2730 N.ar      1 ATP801      0.0000 
     29 C2        102.8510   87.1270   43.5270 C.ar      1 ATP801      0.0000 
     30 N3        102.5280   86.0310   44.2270 N.ar      1 ATP801      0.0000 
     31 C4        101.2850   85.8760   44.7290 C.ar      1 ATP801      0.0000 
@<TRIPOS>BOND
     1    1    2 ar   
     2    1    3 ar   
     3    1    4 ar   
     4    1    8 1    
     5    5    6 ar   
     6    5    7 ar   
     7    5    8 1    
     8    5   12 1    
     9    9   10 ar   
    10    9   11 ar   
    11    9   12 1    
    12    9   13 1    
    13   13   14 1    
    14   14   15 1    
    15   15   16 1    
    16   15   17 1    
    17   16   21 1    
    18   17   18 1    
    19   17   19 1    
    20   19   20 1    
    21   19   21 1    
    22   21   22 1    
    23   22   23 1    
    24   22   31 1    
    25   23   24 2    
    26   24   25 1    
    27   25   26 ar   
    28   25   31 ar   
    29   26   27 1    
    30   26   28 ar   
    31   28   29 ar   
    32   29   30 ar   
    33   30   31 ar   
@<TRIPOS>SUBSTRUCTURE
     1 ATP801      1 GROUP   
@<TRIPOS>SET
ATOM$ORANGE STATIC     ATOMS   COLORGROUP SYSTEM 
20 14 14 15 15 17 17 19 19 21 21 23 23 25 25 26 26 29 \
29 31 31 

