#    Name: 6on2_7_ADP
#    Modification time : Fri May 22 19:42:49 2020

@<TRIPOS>MOLECULE
6on2_7_ADP
   27    29     1     0     1
SMALL
NO_CHARGES


@<TRIPOS>ATOM
      1 PB         80.4240   44.5780   85.8120 P.3       1 ADP801      0.0000 
      2 O1B        79.2450   43.9360   85.1310 O.co2     1 ADP801      0.0000 
      3 O2B        81.7700   44.1640   85.2790 O.co2     1 ADP801      0.0000 
      4 O3B        80.2950   46.0660   86.0170 O.co2     1 ADP801      0.0000 
      5 PA         80.5770   42.3980   87.6010 P.3       1 ADP801      0.0000 
      6 O1A        80.6970   41.6410   86.3060 O.co2     1 ADP801      0.0000 
      7 O2A        81.6760   42.2670   88.6240 O.co2     1 ADP801      0.0000 
      8 O3A        80.3940   43.9710   87.3030 O.3       1 ADP801      0.0000 
      9 O5'        79.2370   41.9330   88.3570 O.3       1 ADP801      0.0000 
     10 C5'        78.2610   41.1260   87.7090 C.3       1 ADP801      0.0000 
     11 C4'        77.8060   40.0440   88.6820 C.3       1 ADP801      0.0000 
     12 O4'        76.8490   39.1860   88.0620 O.3       1 ADP801      0.0000 
     13 C3'        78.9700   39.1740   89.1160 C.3       1 ADP801      0.0000 
     14 O3'        79.2260   39.3550   90.5080 O.3       1 ADP801      0.0000 
     15 C2'        78.5380   37.7470   88.8810 C.3       1 ADP801      0.0000 
     16 O2'        78.5040   37.0480   90.1240 O.3       1 ADP801      0.0000 
     17 C1'        77.1390   37.8110   88.3100 C.3       1 ADP801      0.0000 
     18 N9         77.1440   37.0750   87.0280 N.pl3     1 ADP801      0.0000 
     19 C8         77.1040   37.6410   85.8150 C.2       1 ADP801      0.0000 
     20 N7         77.1270   36.7100   84.8340 N.2       1 ADP801      0.0000 
     21 C5         77.1830   35.5100   85.4260 C.ar      1 ADP801      0.0000 
     22 C6         77.2320   34.1070   84.9720 C.ar      1 ADP801      0.0000 
     23 N6         77.2270   33.7930   83.6570 N.pl3     1 ADP801      0.0000 
     24 N1         77.2850   33.1460   85.9120 N.ar      1 ADP801      0.0000 
     25 C2         77.2970   33.4480   87.2190 C.ar      1 ADP801      0.0000 
     26 N3         77.2500   34.6980   87.7050 N.ar      1 ADP801      0.0000 
     27 C4         77.1930   35.7550   86.8710 C.ar      1 ADP801      0.0000 
@<TRIPOS>BOND
     1    1    2 ar   
     2    1    3 ar   
     3    1    4 ar   
     4    1    8 1    
     5    5    6 ar   
     6    5    7 ar   
     7    5    8 1    
     8    5    9 1    
     9    9   10 1    
    10   10   11 1    
    11   11   12 1    
    12   11   13 1    
    13   12   17 1    
    14   13   14 1    
    15   13   15 1    
    16   15   16 1    
    17   15   17 1    
    18   17   18 1    
    19   18   19 1    
    20   18   27 1    
    21   19   20 2    
    22   20   21 1    
    23   21   22 ar   
    24   21   27 ar   
    25   22   23 1    
    26   22   24 ar   
    27   24   25 ar   
    28   25   26 ar   
    29   26   27 ar   
@<TRIPOS>SUBSTRUCTURE
     1 ADP801      1 GROUP   
@<TRIPOS>SET
ATOM$ORANGE STATIC     ATOMS   COLORGROUP SYSTEM 
20 10 10 11 11 13 13 15 15 17 17 19 19 21 21 22 22 25 \
25 27 27 

