#    Name: 6on2_4_ATP
#    Modification time : Fri May 22 19:42:16 2020

@<TRIPOS>MOLECULE
6on2_4_ATP
   31    33     1     0     1
SMALL
NO_CHARGES


@<TRIPOS>ATOM
      1 PG         83.9270  101.7810   71.8950 P.3       1 ATP801      0.0000 
      2 O1G        85.0150  101.4970   70.8940 O.co2     1 ATP801      0.0000 
      3 O2G        84.0260  100.9670   73.1590 O.co2     1 ATP801      0.0000 
      4 O3G        82.5470  101.8370   71.3010 O.co2     1 ATP801      0.0000 
      5 PB         84.0480  104.5480   71.4270 P.3       1 ATP801      0.0000 
      6 O1B        82.5910  104.9180   71.4180 O.co2     1 ATP801      0.0000 
      7 O2B        84.7560  104.2660   70.1300 O.co2     1 ATP801      0.0000 
      8 O3B        84.2030  103.2820   72.4020 O.3       1 ATP801      0.0000 
      9 PA         86.2710  106.2810   71.7950 P.3       1 ATP801      0.0000 
     10 O1A        86.7260  107.1640   72.9240 O.co2     1 ATP801      0.0000 
     11 O2A        87.1990  105.1900   71.3370 O.co2     1 ATP801      0.0000 
     12 O3A        84.8470  105.6770   72.2420 O.3       1 ATP801      0.0000 
     13 O5'        85.9840  107.2570   70.5570 O.3       1 ATP801      0.0000 
     14 C5'        86.5120  106.9790   69.2680 C.3       1 ATP801      0.0000 
     15 C4'        87.1380  108.2460   68.7010 C.3       1 ATP801      0.0000 
     16 O4'        86.1260  109.1650   68.2970 O.3       1 ATP801      0.0000 
     17 C3'        88.0000  108.9590   69.7240 C.3       1 ATP801      0.0000 
     18 O3'        89.3380  109.0280   69.2390 O.3       1 ATP801      0.0000 
     19 C2'        87.4530  110.3630   69.8180 C.3       1 ATP801      0.0000 
     20 O2'        88.5240  111.2960   69.6860 O.3       1 ATP801      0.0000 
     21 C1'        86.5050  110.4950   68.6450 C.3       1 ATP801      0.0000 
     22 N9         85.3090  111.2680   69.0360 N.pl3     1 ATP801      0.0000 
     23 C8         84.0970  110.7480   69.2570 C.2       1 ATP801      0.0000 
     24 N7         83.2060  111.7050   69.6000 N.2       1 ATP801      0.0000 
     25 C5         83.8600  112.8730   69.5920 C.ar      1 ATP801      0.0000 
     26 C6         83.5110  114.2780   69.8630 C.ar      1 ATP801      0.0000 
     27 N6         82.2530  114.6270   70.2120 N.pl3     1 ATP801      0.0000 
     28 N1         84.4850  115.1980   69.7430 N.ar      1 ATP801      0.0000 
     29 C2         85.7360  114.8610   69.3910 C.ar      1 ATP801      0.0000 
     30 N3         86.1250  113.6030   69.1330 N.ar      1 ATP801      0.0000 
     31 C4         85.2450  112.5830   69.2120 C.ar      1 ATP801      0.0000 
@<TRIPOS>BOND
     1    1    2 ar   
     2    1    3 ar   
     3    1    4 ar   
     4    1    8 1    
     5    5    6 ar   
     6    5    7 ar   
     7    5    8 1    
     8    5   12 1    
     9    9   10 ar   
    10    9   11 ar   
    11    9   12 1    
    12    9   13 1    
    13   13   14 1    
    14   14   15 1    
    15   15   16 1    
    16   15   17 1    
    17   16   21 1    
    18   17   18 1    
    19   17   19 1    
    20   19   20 1    
    21   19   21 1    
    22   21   22 1    
    23   22   23 1    
    24   22   31 1    
    25   23   24 2    
    26   24   25 1    
    27   25   26 ar   
    28   25   31 ar   
    29   26   27 1    
    30   26   28 ar   
    31   28   29 ar   
    32   29   30 ar   
    33   30   31 ar   
@<TRIPOS>SUBSTRUCTURE
     1 ATP801      1 GROUP   
@<TRIPOS>SET
ATOM$ORANGE STATIC     ATOMS   COLORGROUP SYSTEM 
20 14 14 15 15 17 17 19 19 21 21 23 23 25 25 26 26 29 \
29 31 31 

