#    Name: 6on2_2_ATP_CAVITY_N1_4
#    Modification time : Fri May 22 19:41:57 2020

@<TRIPOS>MOLECULE
6on2_2_ATP_CAVITY_N1_4
   92     0     7     0     0
SMALL
NO_CHARGES


@<TRIPOS>ATOM
      1 OG         60.4700   63.3200  109.2300 O.3       1 SER1        0.0000 
      2 OG         61.3100   64.1700  110.1500 O.3       1 SER1        0.0000 
      3 OG         62.1400   65.0200  111.0600 O.3       1 SER1        0.0000 
      4 OG         63.3700   64.6200  110.3000 O.3       1 SER1        0.0000 
      5 OG         63.1600   64.6900  112.8900 O.3       1 SER1        0.0000 
      6 OG         62.9700   65.8600  111.9800 O.3       1 SER1        0.0000 
      7 OG         64.2100   65.4700  111.2200 O.3       1 SER1        0.0000 
      8 OG         64.0200   66.6400  110.3000 O.3       1 SER1        0.0000 
      9 OG         65.2500   66.2500  109.5400 O.3       1 SER1        0.0000 
     10 OG         66.4900   65.8500  108.7900 O.3       1 SER1        0.0000 
     11 N          60.2600   63.3900  111.8200 N.am      2 ALA2        0.0000 
     12 N          61.0900   64.2400  112.7300 N.am      2 ALA2        0.0000 
     13 N          63.0000   66.9700  108.4700 N.am      2 ALA2        0.0000 
     14 O          64.2300   66.5700  107.7100 O.2       2 ALA2        0.0000 
     15 O          65.4600   66.1800  106.9600 O.2       2 ALA2        0.0000 
     16 O          61.5800   68.5400  108.3100 O.2       2 ALA2        0.0000 
     17 N          62.8100   68.1400  107.5600 N.am      2 ALA2        0.0000 
     18 N          60.8800   64.3100  115.3200 N.am      2 ALA2        0.0000 
     19 N          62.1200   63.9100  114.5700 N.am      2 ALA2        0.0000 
     20 N          63.3500   63.5200  113.8100 N.am      2 ALA2        0.0000 
     21 O          68.3400   66.3700  111.5300 O.2       2 ALA2        0.0000 
     22 O          69.3900   67.1500  109.8600 O.2       2 ALA2        0.0000 
     23 OD1        60.5100   66.6600  113.4900 O.co2     3 ASP3        0.0000 
     24 OD1        61.7400   66.2600  112.7300 O.co2     3 ASP3        0.0000 
     25 OD1        61.5500   67.4300  111.8200 O.co2     3 ASP3        0.0000 
     26 OD1        62.7900   67.0400  111.0600 O.co2     3 ASP3        0.0000 
     27 OD1        65.0700   67.4200  108.6300 O.co2     3 ASP3        0.0000 
     28 OD1        66.3000   67.0300  107.8700 O.co2     3 ASP3        0.0000 
     29 OD1        67.5300   66.6300  107.1100 O.co2     3 ASP3        0.0000 
     30 OD1        63.6500   68.9900  108.4700 O.co2     3 ASP3        0.0000 
     31 OD1        61.5300   66.3300  115.3200 O.co2     3 ASP3        0.0000 
     32 OD1        62.7600   65.9300  114.5600 O.co2     3 ASP3        0.0000 
     33 OD1        65.9000   68.2700  109.5400 O.co2     3 ASP3        0.0000 
     34 OD1        67.1300   67.8700  108.7900 O.co2     3 ASP3        0.0000 
     35 OD1        68.3700   67.4800  108.0300 O.co2     3 ASP3        0.0000 
     36 OD1        64.4800   69.8400  109.3900 O.co2     3 ASP3        0.0000 
     37 OD1        63.6000   66.7800  115.4800 O.co2     3 ASP3        0.0000 
     38 OD1        66.5500   70.2900  109.5400 O.co2     3 ASP3        0.0000 
     39 NZ         62.4100   69.3800  109.2300 N.4       4 LYS4        0.0000 
     40 NZ         64.0000   65.5400  113.8100 N.4       4 LYS4        0.0000 
     41 NZ         63.8100   66.7100  112.8900 N.4       4 LYS4        0.0000 
     42 NZ         65.0400   66.3200  112.1300 N.4       4 LYS4        0.0000 
     43 NZ         63.6200   67.8900  111.9700 N.4       4 LYS4        0.0000 
     44 NZ         64.8500   67.4900  111.2200 N.4       4 LYS4        0.0000 
     45 NZ         66.0900   67.0900  110.4600 N.4       4 LYS4        0.0000 
     46 NZ         63.4300   69.0600  111.0600 N.4       4 LYS4        0.0000 
     47 NZ         64.6700   68.6600  110.3000 N.4       4 LYS4        0.0000 
     48 NZ         63.0600   71.4000  109.2300 N.4       4 LYS4        0.0000 
     49 NZ         64.8300   66.3900  114.7200 N.4       4 LYS4        0.0000 
     50 NZ         66.0600   65.9900  113.9600 N.4       4 LYS4        0.0000 
     51 NZ         68.1500   67.5500  110.6200 N.4       4 LYS4        0.0000 
     52 NZ         66.7300   69.1200  110.4600 N.4       4 LYS4        0.0000 
     53 NZ         67.9700   68.7200  109.7000 N.4       4 LYS4        0.0000 
     54 NZ         69.2000   68.3200  108.9400 N.4       4 LYS4        0.0000 
     55 NZ         64.0800   71.0800  111.0600 N.4       4 LYS4        0.0000 
     56 CZ         62.3300   63.8400  111.9800 C.ar      5 PHE5        0.0000 
     57 CA         59.2400   63.7200  109.9900 C.3       6 GLY6        0.0000 
     58 CA         59.0300   63.7900  112.5800 C.3       6 GLY6        0.0000 
     59 CA         58.8400   64.9600  111.6600 C.3       6 GLY6        0.0000 
     60 CA         60.0700   64.5700  110.9000 C.3       6 GLY6        0.0000 
     61 CA         62.5400   63.7800  109.3900 C.3       6 GLY6        0.0000 
     62 CA         58.6500   66.1300  110.7500 C.3       6 GLY6        0.0000 
     63 CA         59.8900   65.7400  109.9900 C.3       6 GLY6        0.0000 
     64 CA         61.1200   65.3400  109.2300 C.3       6 GLY6        0.0000 
     65 CA         62.3500   64.9500  108.4700 C.3       6 GLY6        0.0000 
     66 CA         59.8600   64.6400  113.4900 C.3       6 GLY6        0.0000 
     67 CA         58.4400   66.2000  113.3300 C.3       6 GLY6        0.0000 
     68 CA         59.6800   65.8100  112.5800 C.3       6 GLY6        0.0000 
     69 CA         60.7200   66.5900  110.9000 C.3       6 GLY6        0.0000 
     70 CA         63.1900   65.8000  109.3900 C.3       6 GLY6        0.0000 
     71 CA         64.4200   65.4000  108.6300 C.3       6 GLY6        0.0000 
     72 CA         65.6500   65.0100  107.8700 C.3       6 GLY6        0.0000 
     73 CA         60.5300   67.7600  109.9900 C.3       6 GLY6        0.0000 
     74 CA         61.7700   67.3600  109.2300 C.3       6 GLY6        0.0000 
     75 CA         59.4600   65.8800  115.1700 C.3       6 GLY6        0.0000 
     76 CA         60.7000   65.4800  114.4100 C.3       6 GLY6        0.0000 
     77 CA         67.7200   65.4600  108.0300 C.3       6 GLY6        0.0000 
     78 CA         65.4200   63.9700  113.9600 C.3       6 GLY6        0.0000 
     79 CA         65.2300   65.1400  113.0500 C.3       6 GLY6        0.0000 
     80 CA         67.3200   66.7000  109.7000 C.3       6 GLY6        0.0000 
     81 CA         68.5500   66.3000  108.9400 C.3       6 GLY6        0.0000 
     82 CA         67.2900   65.6000  113.2100 C.3       6 GLY6        0.0000 
     83 CA         65.3100   70.6800  110.3000 C.3       6 GLY6        0.0000 
     84 DU         60.9100   65.4100  111.8200 H         7 CUB7        0.0000 
     85 DU         61.9500   66.1900  110.1500 H         7 CUB7        0.0000 
     86 DU         61.9300   65.0900  113.6500 H         7 CUB7        0.0000 
     87 DU         63.8300   67.8200  109.3900 H         7 CUB7        0.0000 
     88 DU         61.7200   65.1600  116.2400 H         7 CUB7        0.0000 
     89 DU         62.9500   64.7600  115.4800 H         7 CUB7        0.0000 
     90 DU         64.1800   64.3700  114.7200 H         7 CUB7        0.0000 
     91 DU         63.7800   65.6100  116.3900 H         7 CUB7        0.0000 
     92 DU         65.0200   65.2100  115.6400 H         7 CUB7        0.0000 
@<TRIPOS>BOND
@<TRIPOS>SUBSTRUCTURE
     1 SER1        1 GROUP   
     2 ALA2       11 GROUP   
     3 ASP3       23 GROUP   
     4 LYS4       39 GROUP   
     5 PHE5       56 GROUP   
     6 GLY6       57 GROUP   
     7 CUB7       84 GROUP   
@<TRIPOS>SET

