#    Name: 6on2_3_ATP
#    Modification time : Fri May 22 19:42:06 2020

@<TRIPOS>MOLECULE
6on2_3_ATP
   31    33     1     0     1
SMALL
NO_CHARGES


@<TRIPOS>ATOM
      1 PG         69.2530   94.2450   95.2470 P.3       1 ATP801      0.0000 
      2 O1G        68.4710   93.0160   95.6160 O.co2     1 ATP801      0.0000 
      3 O2G        70.6180   94.3300   95.8690 O.co2     1 ATP801      0.0000 
      4 O3G        69.2760   94.5230   93.7730 O.co2     1 ATP801      0.0000 
      5 PB         68.0400   95.5470   97.4300 P.3       1 ATP801      0.0000 
      6 O1B        66.6490   95.0060   97.6150 O.co2     1 ATP801      0.0000 
      7 O2B        69.1850   95.0010   98.2320 O.co2     1 ATP801      0.0000 
      8 O3B        68.4250   95.4740   95.8720 O.3       1 ATP801      0.0000 
      9 PA         68.8010   97.8650   98.8120 P.3       1 ATP801      0.0000 
     10 O1A        70.2480   97.9050   98.4000 O.co2     1 ATP801      0.0000 
     11 O2A        68.4350   97.3070  100.1580 O.co2     1 ATP801      0.0000 
     12 O3A        67.9610   97.1290   97.6600 O.3       1 ATP801      0.0000 
     13 O5'        68.1920   99.3450   98.7070 O.3       1 ATP801      0.0000 
     14 C5'        68.9800  100.4290   98.2270 C.3       1 ATP801      0.0000 
     15 C4'        68.3380  101.7320   98.6730 C.3       1 ATP801      0.0000 
     16 O4'        66.9200  101.6470   98.5570 O.3       1 ATP801      0.0000 
     17 C3'        68.6410  102.0140  100.1310 C.3       1 ATP801      0.0000 
     18 O3'        69.4720  103.1690  100.2280 O.3       1 ATP801      0.0000 
     19 C2'        67.3050  102.2740  100.7890 C.3       1 ATP801      0.0000 
     20 O2'        67.3220  103.5180  101.4920 O.3       1 ATP801      0.0000 
     21 C1'        66.3150  102.3380   99.6470 C.3       1 ATP801      0.0000 
     22 N9         65.0510  101.6760  100.0280 N.pl3     1 ATP801      0.0000 
     23 C8         64.5880  100.5230   99.5290 C.2       1 ATP801      0.0000 
     24 N7         63.3980  100.1940  100.0830 N.2       1 ATP801      0.0000 
     25 C5         63.0860  101.1630  100.9560 C.ar      1 ATP801      0.0000 
     26 C6         61.9680  101.4370  101.8760 C.ar      1 ATP801      0.0000 
     27 N6         60.9190  100.5890  101.9800 N.pl3     1 ATP801      0.0000 
     28 N1         62.0310  102.5630  102.6080 N.ar      1 ATP801      0.0000 
     29 C2         63.0650  103.4160  102.5180 C.ar      1 ATP801      0.0000 
     30 N3         64.1130  103.2300  101.7060 N.ar      1 ATP801      0.0000 
     31 C4         64.1770  102.1410  100.9140 C.ar      1 ATP801      0.0000 
@<TRIPOS>BOND
     1    1    2 ar   
     2    1    3 ar   
     3    1    4 ar   
     4    1    8 1    
     5    5    6 ar   
     6    5    7 ar   
     7    5    8 1    
     8    5   12 1    
     9    9   10 ar   
    10    9   11 ar   
    11    9   12 1    
    12    9   13 1    
    13   13   14 1    
    14   14   15 1    
    15   15   16 1    
    16   15   17 1    
    17   16   21 1    
    18   17   18 1    
    19   17   19 1    
    20   19   20 1    
    21   19   21 1    
    22   21   22 1    
    23   22   23 1    
    24   22   31 1    
    25   23   24 2    
    26   24   25 1    
    27   25   26 ar   
    28   25   31 ar   
    29   26   27 1    
    30   26   28 ar   
    31   28   29 ar   
    32   29   30 ar   
    33   30   31 ar   
@<TRIPOS>SUBSTRUCTURE
     1 ATP801      1 GROUP   
@<TRIPOS>SET
ATOM$ORANGE STATIC     ATOMS   COLORGROUP SYSTEM 
20 14 14 15 15 17 17 19 19 21 21 23 23 25 25 26 26 29 \
29 31 31 

