#    Name: 6on2_4_ATP_CAVITY_N1_4
#    Modification time : Fri May 22 19:42:17 2020

@<TRIPOS>MOLECULE
6on2_4_ATP_CAVITY_N1_4
   85     0     7     0     0
SMALL
NO_CHARGES


@<TRIPOS>ATOM
      1 OG         83.1200  112.8500   69.7800 O.3       1 SER1        0.0000 
      2 OG         88.2100  108.9900   71.1700 O.3       1 SER1        0.0000 
      3 OG         86.7900  110.5600   71.0100 O.3       1 SER1        0.0000 
      4 OG         88.0300  110.1700   70.2500 O.3       1 SER1        0.0000 
      5 OG         88.8600  111.0100   71.1700 O.3       1 SER1        0.0000 
      6 OG         87.4400  112.5800   71.0100 O.3       1 SER1        0.0000 
      7 OG         88.2800  113.4300   71.9200 O.3       1 SER1        0.0000 
      8 N          85.5300  107.6300   67.5100 N.am      2 ALA2        0.0000 
      9 O          85.3100  107.7000   70.1000 O.2       2 ALA2        0.0000 
     10 N          85.1300  108.8700   69.1800 N.am      2 ALA2        0.0000 
     11 N          86.3600  108.4700   68.4200 N.am      2 ALA2        0.0000 
     12 N          83.7100  110.4400   69.0200 N.am      2 ALA2        0.0000 
     13 N          83.3100  111.6800   70.6900 N.am      2 ALA2        0.0000 
     14 O          83.7700  114.8700   69.7800 O.2       2 ALA2        0.0000 
     15 N          87.2500  113.7600   70.0900 N.am      2 ALA2        0.0000 
     16 N          85.8400  115.3200   69.9400 N.am      2 ALA2        0.0000 
     17 N          89.3200  114.2100   70.2500 N.am      2 ALA2        0.0000 
     18 OD1        85.6900  105.3500   71.9300 O.co2     3 ASP3        0.0000 
     19 OD1        86.7300  106.1300   70.2500 O.co2     3 ASP3        0.0000 
     20 OD1        89.2000  105.3400   68.7400 O.co2     3 ASP3        0.0000 
     21 OD1        86.5500  107.3000   69.3400 O.co2     3 ASP3        0.0000 
     22 OD1        87.7800  106.9000   68.5800 O.co2     3 ASP3        0.0000 
     23 OD1        90.4900  109.3800   68.7400 O.co2     3 ASP3        0.0000 
     24 OD1        91.7300  108.9800   67.9800 O.co2     3 ASP3        0.0000 
     25 OD1        87.8400  111.3400   69.3400 O.co2     3 ASP3        0.0000 
     26 OD1        87.6500  112.5100   68.4200 O.co2     3 ASP3        0.0000 
     27 OD1        91.3300  110.2200   69.6500 O.co2     3 ASP3        0.0000 
     28 OD1        92.5600  109.8300   68.8900 O.co2     3 ASP3        0.0000 
     29 OD1        88.6700  112.1900   70.2500 O.co2     3 ASP3        0.0000 
     30 OD1        88.4900  113.3600   69.3300 O.co2     3 ASP3        0.0000 
     31 OD1        90.7400  112.6400   70.4100 O.co2     3 ASP3        0.0000 
     32 NZ         89.0100  106.5100   67.8200 N.4       4 LYS4        0.0000 
     33 NZ         90.2400  106.1100   67.0600 N.4       4 LYS4        0.0000 
     34 NZ         87.5900  108.0800   67.6600 N.4       4 LYS4        0.0000 
     35 NZ         87.4100  109.2500   66.7500 N.4       4 LYS4        0.0000 
     36 NZ         87.3800  108.1500   70.2500 N.4       4 LYS4        0.0000 
     37 NZ         88.6100  107.7500   69.4900 N.4       4 LYS4        0.0000 
     38 NZ         89.8500  107.3600   68.7400 N.4       4 LYS4        0.0000 
     39 NZ         91.0800  106.9600   67.9800 N.4       4 LYS4        0.0000 
     40 NZ         88.4300  108.9300   68.5800 N.4       4 LYS4        0.0000 
     41 NZ         89.6600  108.5300   67.8200 N.4       4 LYS4        0.0000 
     42 NZ         88.2400  110.1000   67.6600 N.4       4 LYS4        0.0000 
     43 NZ         92.1000  106.6400   69.8100 N.4       4 LYS4        0.0000 
     44 NZ         91.9100  107.8100   68.8900 N.4       4 LYS4        0.0000 
     45 NZ         89.2600  109.7700   69.4900 N.4       4 LYS4        0.0000 
     46 NZ         92.7500  108.6600   69.8100 N.4       4 LYS4        0.0000 
     47 NZ         90.0900  110.6200   70.4100 N.4       4 LYS4        0.0000 
     48 NZ         90.9300  111.4700   71.3200 N.4       4 LYS4        0.0000 
     49 NZ         92.1600  111.0700   70.5700 N.4       4 LYS4        0.0000 
     50 NZ         89.5100  113.0300   71.1700 N.4       4 LYS4        0.0000 
     51 CZ         85.3800  112.1300   70.8500 C.ar      5 PHE5        0.0000 
     52 CZ         86.6100  111.7400   70.0900 C.ar      5 PHE5        0.0000 
     53 CZ         83.9600  113.7000   70.6900 C.ar      5 PHE5        0.0000 
     54 CZ         85.1900  113.3000   69.9400 C.ar      5 PHE5        0.0000 
     55 CZ         86.0200  114.1500   70.8500 C.ar      5 PHE5        0.0000 
     56 CA         85.7100  106.4500   68.4200 C.3       6 GLY6        0.0000 
     57 CA         86.7600  107.2300   66.7500 C.3       6 GLY6        0.0000 
     58 CA         85.5000  106.5200   71.0100 C.3       6 GLY6        0.0000 
     59 CA         84.9400  110.0400   68.2600 C.3       6 GLY6        0.0000 
     60 CA         86.1700  109.6500   67.5100 C.3       6 GLY6        0.0000 
     61 CA         83.5200  111.6100   68.1100 C.3       6 GLY6        0.0000 
     62 CA         86.3300  107.3700   71.9300 C.3       6 GLY6        0.0000 
     63 CA         87.5700  106.9700   71.1700 C.3       6 GLY6        0.0000 
     64 CA         88.8000  106.5800   70.4100 C.3       6 GLY6        0.0000 
     65 CA         90.0300  106.1800   69.6500 C.3       6 GLY6        0.0000 
     66 CA         91.2700  105.7900   68.8900 C.3       6 GLY6        0.0000 
     67 CA         86.1500  108.5400   71.0100 C.3       6 GLY6        0.0000 
     68 CA         85.9600  109.7200   70.0900 C.3       6 GLY6        0.0000 
     69 CA         84.5400  111.2800   69.9400 C.3       6 GLY6        0.0000 
     70 CA         85.7700  110.8900   69.1800 C.3       6 GLY6        0.0000 
     71 CA         87.0100  110.4900   68.4200 C.3       6 GLY6        0.0000 
     72 CA         84.3500  112.4600   69.0200 C.3       6 GLY6        0.0000 
     73 CA         85.5900  112.0600   68.2600 C.3       6 GLY6        0.0000 
     74 CA         86.8200  111.6700   67.5100 C.3       6 GLY6        0.0000 
     75 CA         82.9300  114.0300   68.8600 C.3       6 GLY6        0.0000 
     76 CA         84.1700  113.6300   68.1100 C.3       6 GLY6        0.0000 
     77 CA         85.4000  113.2300   67.3500 C.3       6 GLY6        0.0000 
     78 CA         85.0000  114.4800   69.0200 C.3       6 GLY6        0.0000 
     79 CA         86.2300  114.0800   68.2600 C.3       6 GLY6        0.0000 
     80 CA         87.4700  113.6900   67.5000 C.3       6 GLY6        0.0000 
     81 CA         87.0700  114.9300   69.1800 C.3       6 GLY6        0.0000 
     82 CA         88.3000  114.5300   68.4200 C.3       6 GLY6        0.0000 
     83 CA         89.7000  111.8600   72.0800 C.3       6 GLY6        0.0000 
     84 CA         89.1300  115.3800   69.3300 C.3       6 GLY6        0.0000 
     85 DU         86.4200  112.9100   69.1800 H         7 CUB7        0.0000 
@<TRIPOS>BOND
@<TRIPOS>SUBSTRUCTURE
     1 SER1        1 GROUP   
     2 ALA2        8 GROUP   
     3 ASP3       18 GROUP   
     4 LYS4       32 GROUP   
     5 PHE5       51 GROUP   
     6 GLY6       56 GROUP   
     7 CUB7       85 GROUP   
@<TRIPOS>SET

