#    Name: 6on2_2_ATP
#    Modification time : Fri May 22 19:41:56 2020

@<TRIPOS>MOLECULE
6on2_2_ATP
   31    33     1     0     1
SMALL
NO_CHARGES


@<TRIPOS>ATOM
      1 PG         68.0040   67.4840  102.9790 P.3       1 ATP801      0.0000 
      2 O1G        67.9210   66.2810  102.0840 O.co2     1 ATP801      0.0000 
      3 O2G        67.6870   68.7860  102.2960 O.co2     1 ATP801      0.0000 
      4 O3G        69.2420   67.5400  103.8320 O.co2     1 ATP801      0.0000 
      5 PB         66.6030   65.9290  104.8580 P.3       1 ATP801      0.0000 
      6 O1B        65.7380   64.9930  104.0640 O.co2     1 ATP801      0.0000 
      7 O2B        67.9430   65.4880  105.3740 O.co2     1 ATP801      0.0000 
      8 O3B        66.7850   67.2770  104.0030 O.3       1 ATP801      0.0000 
      9 PA         66.0720   66.3370  107.6210 P.3       1 ATP801      0.0000 
     10 O1A        66.9160   67.5200  108.0100 O.co2     1 ATP801      0.0000 
     11 O2A        66.5620   64.9570  107.9560 O.co2     1 ATP801      0.0000 
     12 O3A        65.6920   66.4610  106.0680 O.3       1 ATP801      0.0000 
     13 O5'        64.6130   66.5280  108.2540 O.3       1 ATP801      0.0000 
     14 C5'        64.1600   67.8180  108.6450 C.3       1 ATP801      0.0000 
     15 C4'        63.2300   67.6480  109.8320 C.3       1 ATP801      0.0000 
     16 O4'        62.0280   66.9880  109.4470 O.3       1 ATP801      0.0000 
     17 C3'        63.8880   66.7730  110.8790 C.3       1 ATP801      0.0000 
     18 O3'        64.1610   67.5590  112.0330 O.3       1 ATP801      0.0000 
     19 C2'        62.8760   65.7140  111.2370 C.3       1 ATP801      0.0000 
     20 O2'        62.6300   65.7230  112.6430 O.3       1 ATP801      0.0000 
     21 C1'        61.6200   66.1120  110.4940 C.3       1 ATP801      0.0000 
     22 N9         60.9970   64.8970  109.9410 N.pl3     1 ATP801      0.0000 
     23 C8         61.1340   64.4510  108.6900 C.2       1 ATP801      0.0000 
     24 N7         60.4370   63.3080  108.4970 N.2       1 ATP801      0.0000 
     25 C5         59.8350   63.0150  109.6560 C.ar      1 ATP801      0.0000 
     26 C6         58.9480   61.9470  110.1460 C.ar      1 ATP801      0.0000 
     27 N6         58.5600   60.9390  109.3310 N.pl3     1 ATP801      0.0000 
     28 N1         58.5450   62.0140  111.4270 N.ar      1 ATP801      0.0000 
     29 C2         58.9300   63.0070  112.2430 C.ar      1 ATP801      0.0000 
     30 N3         59.7340   64.0080  111.8640 N.ar      1 ATP801      0.0000 
     31 C4         60.2070   64.0640  110.6040 C.ar      1 ATP801      0.0000 
@<TRIPOS>BOND
     1    1    2 ar   
     2    1    3 ar   
     3    1    4 ar   
     4    1    8 1    
     5    5    6 ar   
     6    5    7 ar   
     7    5    8 1    
     8    5   12 1    
     9    9   10 ar   
    10    9   11 ar   
    11    9   12 1    
    12    9   13 1    
    13   13   14 1    
    14   14   15 1    
    15   15   16 1    
    16   15   17 1    
    17   16   21 1    
    18   17   18 1    
    19   17   19 1    
    20   19   20 1    
    21   19   21 1    
    22   21   22 1    
    23   22   23 1    
    24   22   31 1    
    25   23   24 2    
    26   24   25 1    
    27   25   26 ar   
    28   25   31 ar   
    29   26   27 1    
    30   26   28 ar   
    31   28   29 ar   
    32   29   30 ar   
    33   30   31 ar   
@<TRIPOS>SUBSTRUCTURE
     1 ATP801      1 GROUP   
@<TRIPOS>SET
ATOM$ORANGE STATIC     ATOMS   COLORGROUP SYSTEM 
20 14 14 15 15 17 17 19 19 21 21 23 23 25 25 26 26 29 \
29 31 31 

