#    Name: 6d9c_1_FDA
#    Modification time : Fri May 22 19:27:00 2020

@<TRIPOS>MOLECULE
6d9c_1_FDA
   53    58     1     0     0
SMALL
NO_CHARGES


@<TRIPOS>ATOM
      1 PA         -6.3580   32.3220   10.7410 P.3       1 FDA401      0.0000 
      2 O1A        -5.1460   31.7500   10.1310 O.co2     1 FDA401      0.0000 
      3 O2A        -7.3130   31.1940   11.1930 O.co2     1 FDA401      0.0000 
      4 O5B        -7.2150   33.3010    9.7620 O.3       1 FDA401      0.0000 
      5 C5B        -6.5410   33.8410    8.6020 C.3       1 FDA401      0.0000 
      6 C4B        -7.4800   33.9110    7.4200 C.3       1 FDA401      0.0000 
      7 O4B        -7.0730   34.9770    6.5340 O.3       1 FDA401      0.0000 
      8 C3B        -7.5650   32.6460    6.5580 C.3       1 FDA401      0.0000 
      9 O3B        -8.9370   32.3330    6.3380 O.3       1 FDA401      0.0000 
     10 C2B        -6.8160   33.0400    5.2760 C.3       1 FDA401      0.0000 
     11 O2B        -7.3000   32.4180    4.0890 O.3       1 FDA401      0.0000 
     12 C1B        -7.1330   34.5210    5.2000 C.3       1 FDA401      0.0000 
     13 N9A        -6.1990   35.2960    4.3860 N.pl3     1 FDA401      0.0000 
     14 C8A        -4.8310   35.2310    4.4300 C.2       1 FDA401      0.0000 
     15 N7A        -4.2270   36.0490    3.6020 N.2       1 FDA401      0.0000 
     16 C5A        -5.2740   36.7000    2.9580 C.ar      1 FDA401      0.0000 
     17 C6A        -5.3030   37.6890    1.9590 C.ar      1 FDA401      0.0000 
     18 N6A        -4.2120   38.1620    1.3430 N.pl3     1 FDA401      0.0000 
     19 N1A        -6.5160   38.1410    1.5600 N.ar      1 FDA401      0.0000 
     20 C2A        -7.6130   37.6060    2.1050 C.ar      1 FDA401      0.0000 
     21 N3A        -7.7080   36.6520    3.0340 N.ar      1 FDA401      0.0000 
     22 C4A        -6.4940   36.2400    3.4340 C.ar      1 FDA401      0.0000 
     23 N1         -5.9390   26.8950   19.4010 N.am      1 FDA401      0.0000 
     24 C2         -6.5850   26.4840   20.5390 C.2       1 FDA401      0.0000 
     25 O2         -6.9960   27.2860   21.3790 O.2       1 FDA401      0.0000 
     26 N3         -6.7820   25.1310   20.6710 N.am      1 FDA401      0.0000 
     27 C4         -6.4160   24.1470   19.7740 C.2       1 FDA401      0.0000 
     28 O4         -6.6550   22.9650   20.0210 O.2       1 FDA401      0.0000 
     29 C4X        -5.7860   24.6360   18.6120 C.2       1 FDA401      0.0000 
     30 N5         -5.4680   23.7880   17.6080 N.pl3     1 FDA401      0.0000 
     31 C5X        -4.5400   24.1900   16.6700 C.ar      1 FDA401      0.0000 
     32 C6         -3.8610   23.2440   15.9160 C.ar      1 FDA401      0.0000 
     33 C7         -2.8810   23.6290   15.0090 C.ar      1 FDA401      0.0000 
     34 C7M        -2.2050   22.5940   14.1500 C.3       1 FDA401      0.0000 
     35 C8         -2.5480   24.9860   14.8870 C.ar      1 FDA401      0.0000 
     36 C8M        -1.5160   25.4350   13.8870 C.3       1 FDA401      0.0000 
     37 C9         -3.2160   25.9300   15.6630 C.ar      1 FDA401      0.0000 
     38 C9A        -4.2460   25.5570   16.5200 C.ar      1 FDA401      0.0000 
     39 N10        -5.0920   26.5270   17.1480 N.pl3     1 FDA401      0.0000 
     40 C10        -5.5490   26.0020   18.4350 C.2       1 FDA401      0.0000 
     41 C1'        -6.1420   27.1730   16.3430 C.3       1 FDA401      0.0000 
     42 C2'        -5.7840   28.1680   15.2410 C.3       1 FDA401      0.0000 
     43 O2'        -4.7340   27.7490   14.3760 O.3       1 FDA401      0.0000 
     44 C3'        -5.6160   29.6160   15.7000 C.3       1 FDA401      0.0000 
     45 O3'        -6.1430   29.8080   17.0060 O.3       1 FDA401      0.0000 
     46 C4'        -6.3980   30.4850   14.7190 C.3       1 FDA401      0.0000 
     47 O4'        -6.1560   29.9720   13.4120 O.3       1 FDA401      0.0000 
     48 C5'        -6.0820   31.9600   14.7780 C.3       1 FDA401      0.0000 
     49 O5'        -7.1570   32.6590   14.1130 O.3       1 FDA401      0.0000 
     50 P          -6.6840   33.8620   13.1920 P.3       1 FDA401      0.0000 
     51 O1P        -7.8060   34.7180   12.7440 O.co2     1 FDA401      0.0000 
     52 O2P        -5.6500   34.6240   13.9770 O.co2     1 FDA401      0.0000 
     53 O3P        -5.8970   33.2490   11.9490 O.3       1 FDA401      0.0000 
@<TRIPOS>BOND
     1    1   53 1    
     2    1    2 ar   
     3    1    3 ar   
     4    1    4 1    
     5    4    5 1    
     6    5    6 1    
     7    6    7 1    
     8    6    8 1    
     9    7   12 1    
    10    8    9 1    
    11    8   10 1    
    12   10   11 1    
    13   10   12 1    
    14   12   13 1    
    15   13   14 1    
    16   13   22 1    
    17   14   15 2    
    18   15   16 1    
    19   16   17 ar   
    20   16   22 ar   
    21   17   18 1    
    22   17   19 ar   
    23   19   20 ar   
    24   20   21 ar   
    25   21   22 ar   
    26   23   40 1    
    27   23   24 1    
    28   24   25 2    
    29   24   26 1    
    30   26   27 1    
    31   27   28 2    
    32   27   29 1    
    33   29   40 2    
    34   29   30 1    
    35   30   31 1    
    36   31   38 ar   
    37   31   32 ar   
    38   32   33 ar   
    39   33   34 1    
    40   33   35 ar   
    41   35   37 ar   
    42   35   36 1    
    43   37   38 ar   
    44   38   39 1    
    45   39   40 1    
    46   39   41 1    
    47   41   42 1    
    48   42   43 1    
    49   42   44 1    
    50   44   45 1    
    51   44   46 1    
    52   46   47 1    
    53   46   48 1    
    54   48   49 1    
    55   49   50 1    
    56   50   51 ar   
    57   50   52 ar   
    58   50   53 1    
@<TRIPOS>SUBSTRUCTURE
     1 FDA401      1 GROUP   
@<TRIPOS>SET

