#    Name: 6d9c_2_UPG
#    Modification time : Fri May 22 19:27:08 2020

@<TRIPOS>MOLECULE
6d9c_2_UPG
   36    38     1     0     0
SMALL
NO_CHARGES


@<TRIPOS>ATOM
      1 N1          6.2660   16.3700   24.1470 N.am      1 UPG402      0.0000 
      2 C2          7.0080   15.2090   24.1260 C.2       1 UPG402      0.0000 
      3 N3          6.2770   14.0540   23.9710 N.am      1 UPG402      0.0000 
      4 C4          4.9060   13.9510   23.8290 C.2       1 UPG402      0.0000 
      5 C5          4.2050   15.1980   23.8700 C.2       1 UPG402      0.0000 
      6 C6          4.8910   16.3420   24.0320 C.2       1 UPG402      0.0000 
      7 O2          8.2280   15.2010   24.1960 O.2       1 UPG402      0.0000 
      8 O4          4.3860   12.8320   23.6670 O.2       1 UPG402      0.0000 
      9 C1C         7.0210   17.6310   24.1930 C.3       1 UPG402      0.0000 
     10 C2C         7.6600   17.9780   22.8490 C.3       1 UPG402      0.0000 
     11 O2C         8.8160   18.7930   23.0080 O.3       1 UPG402      0.0000 
     12 C3C         6.5290   18.7430   22.1630 C.3       1 UPG402      0.0000 
     13 C4C         5.8710   19.4890   23.3340 C.3       1 UPG402      0.0000 
     14 O4C         6.1320   18.6860   24.5080 O.3       1 UPG402      0.0000 
     15 O3C         7.1070   19.5980   21.1790 O.3       1 UPG402      0.0000 
     16 C5C         4.3810   19.7290   23.2510 C.3       1 UPG402      0.0000 
     17 O5C         3.9170   19.6460   21.8880 O.3       1 UPG402      0.0000 
     18 PA          2.6700   18.7780   21.3930 P.3       1 UPG402      0.0000 
     19 O1A         2.3180   17.6350   22.2740 O.co2     1 UPG402      0.0000 
     20 O2A         2.9760   18.2600   19.9870 O.co2     1 UPG402      0.0000 
     21 O3A         1.4320   19.7780   21.2620 O.3       1 UPG402      0.0000 
     22 PB          0.5370   20.4860   22.3800 P.3       1 UPG402      0.0000 
     23 O1B         1.2800   20.6870   23.6580 O.co2     1 UPG402      0.0000 
     24 O2B        -0.7730   19.6870   22.6080 O.co2     1 UPG402      0.0000 
     25 O3B         0.1670   21.8390   21.6260 O.3       1 UPG402      0.0000 
     26 C1'         0.9570   22.6850   20.8410 C.3       1 UPG402      0.0000 
     27 C2'         1.2110   23.9360   21.6680 C.3       1 UPG402      0.0000 
     28 C3'        -0.1160   24.4520   22.2190 C.3       1 UPG402      0.0000 
     29 C4'        -1.2030   24.5440   21.1420 C.3       1 UPG402      0.0000 
     30 C5'        -1.2170   23.3110   20.2320 C.3       1 UPG402      0.0000 
     31 C6'        -2.0890   23.4440   19.0010 C.3       1 UPG402      0.0000 
     32 O2'         2.1080   23.6230   22.7310 O.3       1 UPG402      0.0000 
     33 O3'         0.0800   25.7270   22.8330 O.3       1 UPG402      0.0000 
     34 O4'        -2.4900   24.6570   21.7590 O.3       1 UPG402      0.0000 
     35 O5'         0.1110   23.0170   19.7660 O.3       1 UPG402      0.0000 
     36 O6'        -1.2940   23.6030   17.8320 O.3       1 UPG402      0.0000 
@<TRIPOS>BOND
     1    1    2 1    
     2    1    6 1    
     3    1    9 1    
     4    2    3 1    
     5    2    7 2    
     6    3    4 1    
     7    4    5 1    
     8    4    8 2    
     9    5    6 2    
    10    9   10 1    
    11    9   14 1    
    12   10   11 1    
    13   10   12 1    
    14   12   13 1    
    15   12   15 1    
    16   13   14 1    
    17   13   16 1    
    18   16   17 1    
    19   17   18 1    
    20   18   19 ar   
    21   18   20 ar   
    22   18   21 1    
    23   21   22 1    
    24   22   23 ar   
    25   22   24 ar   
    26   22   25 1    
    27   25   26 1    
    28   26   27 1    
    29   26   35 1    
    30   27   28 1    
    31   27   32 1    
    32   28   29 1    
    33   28   33 1    
    34   29   30 1    
    35   29   34 1    
    36   30   31 1    
    37   30   35 1    
    38   31   36 1    
@<TRIPOS>SUBSTRUCTURE
     1 UPG402      1 GROUP   
@<TRIPOS>SET

