#    Name: 6imj_1_ATP_CAVITY_N1_6
#    Modification time : Fri May 22 19:25:55 2020

@<TRIPOS>MOLECULE
6imj_1_ATP_CAVITY_N1_6
  102     0     7     0     0
SMALL
NO_CHARGES


@<TRIPOS>ATOM
      1 OG         15.0200    7.5000   43.6800 O.3       1 SER1        0.0000 
      2 N          16.8500    6.6700   46.7600 N.am      2 ALA2        0.0000 
      3 N          18.0600    6.9900   47.5800 N.am      2 ALA2        0.0000 
      4 O          18.9100    6.9800   46.3400 O.2       2 ALA2        0.0000 
      5 O          20.1200    7.3000   47.1700 O.2       2 ALA2        0.0000 
      6 N          20.5200   14.6200   43.7900 N.am      2 ALA2        0.0000 
      7 N          21.3600   14.6200   42.5500 N.am      2 ALA2        0.0000 
      8 N          21.6200   13.1500   42.7300 N.am      2 ALA2        0.0000 
      9 O          22.7300   11.6800   41.6700 O.2       2 ALA2        0.0000 
     10 O          23.5800   11.6800   40.4400 O.2       2 ALA2        0.0000 
     11 O          23.8400   10.2100   40.6200 O.2       2 ALA2        0.0000 
     12 N          22.8300   13.4700   43.5600 N.am      2 ALA2        0.0000 
     13 O          23.9400   12.0000   42.5000 O.2       2 ALA2        0.0000 
     14 N          23.8200   12.6500   47.8700 N.am      2 ALA2        0.0000 
     15 O          25.0300   12.9600   48.7000 O.2       2 ALA2        0.0000 
     16 N          25.6500   11.8200   50.9400 N.am      2 ALA2        0.0000 
     17 OD1        15.1200    9.2800   45.5600 O.co2     3 ASP3        0.0000 
     18 OD1        15.3800    7.8200   45.7500 O.co2     3 ASP3        0.0000 
     19 OD1        16.2300    7.8100   44.5100 O.co2     3 ASP3        0.0000 
     20 OD1        16.9200   11.0600   44.9700 O.co2     3 ASP3        0.0000 
     21 OD1        17.1800    9.6000   45.1500 O.co2     3 ASP3        0.0000 
     22 OD1        17.4400    8.1300   45.3400 O.co2     3 ASP3        0.0000 
     23 OD1        17.7000    6.6700   45.5200 O.co2     3 ASP3        0.0000 
     24 OD1        18.0300    9.5900   43.9200 O.co2     3 ASP3        0.0000 
     25 OD1        20.5700    9.5800   40.2000 O.co2     3 ASP3        0.0000 
     26 OD1        17.8000    8.4500   47.4000 O.co2     3 ASP3        0.0000 
     27 OD1        18.1300   11.3800   45.8000 O.co2     3 ASP3        0.0000 
     28 OD1        18.3900    9.9200   45.9800 O.co2     3 ASP3        0.0000 
     29 OD1        18.6500    8.4500   46.1600 O.co2     3 ASP3        0.0000 
     30 OD1        19.2400    9.9100   44.7400 O.co2     3 ASP3        0.0000 
     31 OD1        19.5000    8.4500   44.9200 O.co2     3 ASP3        0.0000 
     32 OD1        19.7600    6.9800   45.1100 O.co2     3 ASP3        0.0000 
     33 OD1        21.5200   11.3700   40.8500 O.co2     3 ASP3        0.0000 
     34 OD1        21.7800    9.9000   41.0300 O.co2     3 ASP3        0.0000 
     35 OD1        19.6000   10.2300   46.8100 O.co2     3 ASP3        0.0000 
     36 OD1        19.9300   13.1600   45.2100 O.co2     3 ASP3        0.0000 
     37 OD1        20.1900   11.6900   45.3900 O.co2     3 ASP3        0.0000 
     38 OD1        20.4500   10.2300   45.5700 O.co2     3 ASP3        0.0000 
     39 OD1        20.7100    8.7600   45.7500 O.co2     3 ASP3        0.0000 
     40 OD1        21.2900   10.2300   44.3300 O.co2     3 ASP3        0.0000 
     41 OD1        21.5500    8.7600   44.5100 O.co2     3 ASP3        0.0000 
     42 OD1        22.1400   10.2200   43.0900 O.co2     3 ASP3        0.0000 
     43 OD1        22.4000    8.7600   43.2800 O.co2     3 ASP3        0.0000 
     44 OD1        21.4000   12.0100   46.2100 O.co2     3 ASP3        0.0000 
     45 OD1        21.6600   10.5500   46.4000 O.co2     3 ASP3        0.0000 
     46 OD1        22.1800    7.6100   46.7600 O.co2     3 ASP3        0.0000 
     47 OD1        22.6100   12.3300   47.0400 O.co2     3 ASP3        0.0000 
     48 OD1        23.3900    7.9300   47.5900 O.co2     3 ASP3        0.0000 
     49 OD1        24.8600    6.7800   48.6000 O.co2     3 ASP3        0.0000 
     50 NZ         21.9900   13.4700   44.7900 N.4       4 LYS4        0.0000 
     51 NZ         22.2500   12.0100   44.9800 N.4       4 LYS4        0.0000 
     52 NZ         23.0900   12.0000   43.7400 N.4       4 LYS4        0.0000 
     53 NZ         23.4600   12.3300   45.8000 N.4       4 LYS4        0.0000 
     54 NZ         23.7200   10.8600   45.9900 N.4       4 LYS4        0.0000 
     55 NZ         24.9300   11.1800   46.8100 N.4       4 LYS4        0.0000 
     56 NZ         26.1400   11.4900   47.6400 N.4       4 LYS4        0.0000 
     57 CZ         24.3400    9.7100   48.2300 C.ar      5 PHE5        0.0000 
     58 CZ         24.6000    8.2500   48.4100 C.ar      5 PHE5        0.0000 
     59 CZ         25.1900    9.7100   46.9900 C.ar      5 PHE5        0.0000 
     60 CZ         25.4500    8.2400   47.1800 C.ar      5 PHE5        0.0000 
     61 CZ         25.2900   11.5000   48.8800 C.ar      5 PHE5        0.0000 
     62 CZ         25.5500   10.0300   49.0600 C.ar      5 PHE5        0.0000 
     63 CZ         25.8100    8.5700   49.2400 C.ar      5 PHE5        0.0000 
     64 CZ         26.5000   11.8100   49.7100 C.ar      5 PHE5        0.0000 
     65 CZ         26.7600   10.3500   49.8900 C.ar      5 PHE5        0.0000 
     66 CA         21.4100    9.5800   38.9600 C.3       6 GLY6        0.0000 
     67 CA         22.6200    9.9000   39.7900 C.3       6 GLY6        0.0000 
     68 CA         18.7500   10.2400   48.0500 C.3       6 GLY6        0.0000 
     69 CA         19.0100    8.7700   48.2300 C.3       6 GLY6        0.0000 
     70 CA         20.9700    7.3000   45.9300 C.3       6 GLY6        0.0000 
     71 CA         22.9900   10.2200   41.8600 C.3       6 GLY6        0.0000 
     72 CA         23.2500    8.7500   42.0400 C.3       6 GLY6        0.0000 
     73 CA         20.2200    9.0900   49.0500 C.3       6 GLY6        0.0000 
     74 CA         20.8100   10.5500   47.6300 C.3       6 GLY6        0.0000 
     75 CA         21.0700    9.0800   47.8200 C.3       6 GLY6        0.0000 
     76 CA         21.3300    7.6200   48.0000 C.3       6 GLY6        0.0000 
     77 CA         22.7600    9.0800   45.3400 C.3       6 GLY6        0.0000 
     78 CA         23.3500   10.5400   43.9200 C.3       6 GLY6        0.0000 
     79 CA         23.6100    9.0700   44.1000 C.3       6 GLY6        0.0000 
     80 CA         22.0200   10.8700   48.4600 C.3       6 GLY6        0.0000 
     81 CA         22.2800    9.4000   48.6400 C.3       6 GLY6        0.0000 
     82 CA         22.5400    7.9300   48.8300 C.3       6 GLY6        0.0000 
     83 CA         22.8700   10.8600   47.2200 C.3       6 GLY6        0.0000 
     84 CA         23.9800    9.3900   46.1700 C.3       6 GLY6        0.0000 
     85 CA         23.2300   11.1800   49.2900 C.3       6 GLY6        0.0000 
     86 CA         23.4900    9.7200   49.4700 C.3       6 GLY6        0.0000 
     87 CA         23.7500    8.2500   49.6500 C.3       6 GLY6        0.0000 
     88 CA         24.0100    6.7900   49.8400 C.3       6 GLY6        0.0000 
     89 CA         24.0800   11.1800   48.0500 C.3       6 GLY6        0.0000 
     90 CA         24.4400   11.5000   50.1200 C.3       6 GLY6        0.0000 
     91 CA         24.7000   10.0300   50.3000 C.3       6 GLY6        0.0000 
     92 CA         24.9600    8.5700   50.4800 C.3       6 GLY6        0.0000 
     93 CA         25.9100   10.3500   51.1300 C.3       6 GLY6        0.0000 
     94 DU         18.9800   11.3800   44.5600 H         7 CUB7        0.0000 
     95 DU         22.3700   11.3600   39.6100 H         7 CUB7        0.0000 
     96 DU         19.8600    8.7700   46.9900 H         7 CUB7        0.0000 
     97 DU         20.7800   13.1600   43.9700 H         7 CUB7        0.0000 
     98 DU         21.0300   11.6900   44.1500 H         7 CUB7        0.0000 
     99 DU         21.8800   11.6900   42.9100 H         7 CUB7        0.0000 
    100 DU         21.9200    9.0800   46.5800 H         7 CUB7        0.0000 
    101 DU         22.5100   10.5400   45.1600 H         7 CUB7        0.0000 
    102 DU         23.1300    9.4000   47.4100 H         7 CUB7        0.0000 
@<TRIPOS>BOND
@<TRIPOS>SUBSTRUCTURE
     1 SER1        1 GROUP   
     2 ALA2        2 GROUP   
     3 ASP3       17 GROUP   
     4 LYS4       50 GROUP   
     5 PHE5       57 GROUP   
     6 GLY6       66 GROUP   
     7 CUB7       94 GROUP   
@<TRIPOS>SET

