#    Name: 6imj_1_ATP
#    Modification time : Fri May 22 19:25:54 2020

@<TRIPOS>MOLECULE
6imj_1_ATP
   31    33     1     0     1
SMALL
NO_CHARGES


@<TRIPOS>ATOM
      1 PG         18.0890   12.1530   45.3660 P.3       1 ATP501      0.0000 
      2 O1G        18.9050   13.2920   44.8080 O.co2     1 ATP501      0.0000 
      3 O2G        16.6010   12.4130   45.3670 O.co2     1 ATP501      0.0000 
      4 O3G        18.6100   11.5420   46.6480 O.co2     1 ATP501      0.0000 
      5 PB         17.6690    9.5580   44.5770 P.3       1 ATP501      0.0000 
      6 O1B        17.2600    8.9500   43.2570 O.co2     1 ATP501      0.0000 
      7 O2B        16.6540    9.7290   45.6790 O.co2     1 ATP501      0.0000 
      8 O3B        18.3100   10.9950   44.2790 O.3       1 ATP501      0.0000 
      9 PA         18.9030    7.6790   46.3430 P.3       1 ATP501      0.0000 
     10 O1A        18.5320    6.3470   45.7370 O.co2     1 ATP501      0.0000 
     11 O2A        18.1330    8.2320   47.5160 O.co2     1 ATP501      0.0000 
     12 O3A        18.9580    8.7840   45.1630 O.3       1 ATP501      0.0000 
     13 O5'        20.4430    7.6670   46.7920 O.3       1 ATP501      0.0000 
     14 C5'        20.9060    8.7580   47.5860 C.3       1 ATP501      0.0000 
     15 C4'        21.7430    9.7080   46.7420 C.3       1 ATP501      0.0000 
     16 O4'        22.2780   10.7480   47.5580 O.3       1 ATP501      0.0000 
     17 C3'        22.9260    9.0130   46.0900 C.3       1 ATP501      0.0000 
     18 O3'        22.6430    8.7120   44.7180 O.3       1 ATP501      0.0000 
     19 C2'        24.0640   10.0070   46.1920 C.3       1 ATP501      0.0000 
     20 O2'        24.3200   10.6040   44.9230 O.3       1 ATP501      0.0000 
     21 C1'        23.5830   11.1180   47.1010 C.3       1 ATP501      0.0000 
     22 N9         24.5500   11.2970   48.2200 N.pl3     1 ATP501      0.0000 
     23 C8         25.1670   12.4560   48.5430 C.2       1 ATP501      0.0000 
     24 N7         25.9970   12.2970   49.6040 N.2       1 ATP501      0.0000 
     25 C5         25.9210   11.0030   49.9700 C.ar      1 ATP501      0.0000 
     26 C6         26.5370   10.1640   51.0170 C.ar      1 ATP501      0.0000 
     27 N6         27.4210   10.7060   51.8920 N.pl3     1 ATP501      0.0000 
     28 N1         26.1930    8.8560   51.0680 N.ar      1 ATP501      0.0000 
     29 C2         25.3170    8.3190   50.2000 C.ar      1 ATP501      0.0000 
     30 N3         24.7190    9.0250   49.2220 N.ar      1 ATP501      0.0000 
     31 C4         24.9780   10.3450   49.0540 C.ar      1 ATP501      0.0000 
@<TRIPOS>BOND
     1    1    2 ar   
     2    1    3 ar   
     3    1    4 ar   
     4    1    8 1    
     5    5    6 ar   
     6    5    7 ar   
     7    5    8 1    
     8    5   12 1    
     9    9   10 ar   
    10    9   11 ar   
    11    9   12 1    
    12    9   13 1    
    13   13   14 1    
    14   14   15 1    
    15   15   16 1    
    16   15   17 1    
    17   16   21 1    
    18   17   18 1    
    19   17   19 1    
    20   19   20 1    
    21   19   21 1    
    22   21   22 1    
    23   22   23 1    
    24   22   31 1    
    25   23   24 2    
    26   24   25 1    
    27   25   26 ar   
    28   25   31 ar   
    29   26   27 1    
    30   26   28 ar   
    31   28   29 ar   
    32   29   30 ar   
    33   30   31 ar   
@<TRIPOS>SUBSTRUCTURE
     1 ATP501      1 GROUP   
@<TRIPOS>SET
ATOM$ORANGE STATIC     ATOMS   COLORGROUP SYSTEM 
20 14 14 15 15 17 17 19 19 21 21 23 23 25 25 26 26 29 \
29 31 31 

