#    Name: 6imj_2_ATP
#    Modification time : Fri May 22 19:26:01 2020

@<TRIPOS>MOLECULE
6imj_2_ATP
   31    33     1     0     1
SMALL
NO_CHARGES


@<TRIPOS>ATOM
      1 PG         18.0210   -7.6440   14.1610 P.3       1 ATP501      0.0000 
      2 O1G        18.5130   -7.0140   12.8770 O.co2     1 ATP501      0.0000 
      3 O2G        16.5310   -7.8820   14.2080 O.co2     1 ATP501      0.0000 
      4 O3G        18.8350   -8.8100   14.6620 O.co2     1 ATP501      0.0000 
      5 PB         17.6660   -5.0590   15.0030 P.3       1 ATP501      0.0000 
      6 O1B        16.6110   -5.2050   13.9350 O.co2     1 ATP501      0.0000 
      7 O2B        17.3110   -4.4520   16.3390 O.co2     1 ATP501      0.0000 
      8 O3B        18.2950   -6.5090   15.2640 O.3       1 ATP501      0.0000 
      9 PA         18.8670   -3.2350   13.1730 P.3       1 ATP501      0.0000 
     10 O1A        18.1250   -3.8620   12.0150 O.co2     1 ATP501      0.0000 
     11 O2A        18.4440   -1.8990   13.7350 O.co2     1 ATP501      0.0000 
     12 O3A        18.9500   -4.3050   14.3830 O.3       1 ATP501      0.0000 
     13 O5'        20.4080   -3.1610   12.7350 O.3       1 ATP501      0.0000 
     14 C5'        20.9300   -4.2340   11.9560 C.3       1 ATP501      0.0000 
     15 C4'        21.6910   -5.2030   12.8490 C.3       1 ATP501      0.0000 
     16 O4'        22.2620   -6.2390   12.0520 O.3       1 ATP501      0.0000 
     17 C3'        22.8330   -4.5420   13.6050 C.3       1 ATP501      0.0000 
     18 O3'        22.4740   -4.3480   14.9760 O.3       1 ATP501      0.0000 
     19 C2'        23.9890   -5.5150   13.5020 C.3       1 ATP501      0.0000 
     20 O2'        24.2790   -6.0890   14.7790 O.3       1 ATP501      0.0000 
     21 C1'        23.5340   -6.6230   12.5720 C.3       1 ATP501      0.0000 
     22 N9         24.5330   -6.7790   11.4840 N.pl3     1 ATP501      0.0000 
     23 C8         25.1990   -7.9160   11.2010 C.2       1 ATP501      0.0000 
     24 N7         26.0460   -7.7370   10.1600 N.2       1 ATP501      0.0000 
     25 C5         25.9350   -6.4550    9.7660 C.ar      1 ATP501      0.0000 
     26 C6         26.5550   -5.6100    8.7180 C.ar      1 ATP501      0.0000 
     27 N6         27.4850   -6.1220    7.8730 N.pl3     1 ATP501      0.0000 
     28 N1         26.1690   -4.3150    8.6330 N.ar      1 ATP501      0.0000 
     29 C2         25.2450   -3.8070    9.4700 C.ar      1 ATP501      0.0000 
     30 N3         24.6440   -4.5170   10.4460 N.ar      1 ATP501      0.0000 
     31 C4         24.9440   -5.8230   10.6440 C.ar      1 ATP501      0.0000 
@<TRIPOS>BOND
     1    1    2 ar   
     2    1    3 ar   
     3    1    4 ar   
     4    1    8 1    
     5    5    6 ar   
     6    5    7 ar   
     7    5    8 1    
     8    5   12 1    
     9    9   10 ar   
    10    9   11 ar   
    11    9   12 1    
    12    9   13 1    
    13   13   14 1    
    14   14   15 1    
    15   15   16 1    
    16   15   17 1    
    17   16   21 1    
    18   17   18 1    
    19   17   19 1    
    20   19   20 1    
    21   19   21 1    
    22   21   22 1    
    23   22   23 1    
    24   22   31 1    
    25   23   24 2    
    26   24   25 1    
    27   25   26 ar   
    28   25   31 ar   
    29   26   27 1    
    30   26   28 ar   
    31   28   29 ar   
    32   29   30 ar   
    33   30   31 ar   
@<TRIPOS>SUBSTRUCTURE
     1 ATP501      1 GROUP   
@<TRIPOS>SET
ATOM$ORANGE STATIC     ATOMS   COLORGROUP SYSTEM 
20 14 14 15 15 17 17 19 19 21 21 23 23 25 25 26 26 29 \
29 31 31 

