#    Name: 6mcp_1_ANP
#    Modification time : Fri May 22 19:24:52 2020

@<TRIPOS>MOLECULE
6mcp_1_ANP
   31    33     1     0     1
SMALL
NO_CHARGES


@<TRIPOS>ATOM
      1 PG         70.8810   66.3910   26.3790 P.3       1 ANP610      0.0000 
      2 O1G        70.6210   66.3290   24.7980 O.co2     1 ANP610      0.0000 
      3 O2G        72.3230   66.5150   26.6020 O.co2     1 ANP610      0.0000 
      4 O3G        70.1190   67.6190   26.9870 O.co2     1 ANP610      0.0000 
      5 PB         68.7990   65.3240   27.0490 P.3       1 ANP610      0.0000 
      6 O1B        68.3060   66.2350   25.8500 O.co2     1 ANP610      0.0000 
      7 O2B        68.2690   65.8770   28.3110 O.co2     1 ANP610      0.0000 
      8 N3B        70.3530   65.2690   26.9970 N.3       1 ANP610      0.0000 
      9 PA         69.4460   62.9670   26.1120 P.3       1 ANP610      0.0000 
     10 O1A        70.2170   63.8320   25.0180 O.co2     1 ANP610      0.0000 
     11 O2A        68.8710   61.7880   25.4880 O.co2     1 ANP610      0.0000 
     12 O3A        68.3410   63.8740   26.6950 O.3       1 ANP610      0.0000 
     13 O5'        70.3350   62.7240   27.3580 O.3       1 ANP610      0.0000 
     14 C5'        71.6320   62.2140   27.2100 C.3       1 ANP610      0.0000 
     15 C4'        71.9690   61.1220   28.2240 C.3       1 ANP610      0.0000 
     16 O4'        70.9590   60.9010   29.1560 O.3       1 ANP610      0.0000 
     17 C3'        71.9910   59.8680   27.4850 C.3       1 ANP610      0.0000 
     18 O3'        73.2070   59.8000   26.7930 O.3       1 ANP610      0.0000 
     19 C2'        71.9670   58.9000   28.5990 C.3       1 ANP610      0.0000 
     20 O2'        73.1630   58.9580   29.2850 O.3       1 ANP610      0.0000 
     21 C1'        70.9610   59.5200   29.4790 C.3       1 ANP610      0.0000 
     22 N9         69.6500   59.0170   29.1820 N.pl3     1 ANP610      0.0000 
     23 C8         68.6460   59.7110   28.7140 C.2       1 ANP610      0.0000 
     24 N7         67.6200   58.9070   28.5690 N.2       1 ANP610      0.0000 
     25 C5         67.9970   57.7140   28.9500 C.ar      1 ANP610      0.0000 
     26 C6         67.3500   56.5780   29.0000 C.ar      1 ANP610      0.0000 
     27 N6         66.1050   56.5960   28.6030 N.pl3     1 ANP610      0.0000 
     28 N1         67.9160   55.4680   29.4100 N.ar      1 ANP610      0.0000 
     29 C2         69.2210   55.5220   29.7950 C.ar      1 ANP610      0.0000 
     30 N3         69.8800   56.7180   29.7400 N.ar      1 ANP610      0.0000 
     31 C4         69.2490   57.7880   29.3220 C.ar      1 ANP610      0.0000 
@<TRIPOS>BOND
     1    1    2 ar   
     2    1    3 ar   
     3    1    4 ar   
     4    1    8 1    
     5    5    6 ar   
     6    5    7 ar   
     7    5    8 1    
     8    5   12 1    
     9    9   10 ar   
    10    9   11 ar   
    11    9   12 1    
    12    9   13 1    
    13   13   14 1    
    14   14   15 1    
    15   15   16 1    
    16   15   17 1    
    17   16   21 1    
    18   17   18 1    
    19   17   19 1    
    20   19   20 1    
    21   19   21 1    
    22   21   22 1    
    23   22   23 1    
    24   22   31 1    
    25   23   24 2    
    26   24   25 1    
    27   25   26 ar   
    28   25   31 ar   
    29   26   27 1    
    30   26   28 ar   
    31   28   29 ar   
    32   29   30 ar   
    33   30   31 ar   
@<TRIPOS>SUBSTRUCTURE
     1 ANP610      1 GROUP   
@<TRIPOS>SET
ATOM$ORANGE STATIC     ATOMS   COLORGROUP SYSTEM 
20 14 14 15 15 17 17 19 19 21 21 23 23 25 25 26 26 29 \
29 31 31 

