#    Name: 6l5r_1_G50
#    Modification time : Fri May 22 19:32:50 2020

@<TRIPOS>MOLECULE
6l5r_1_G50
   20    21     1     0     0
SMALL
NO_CHARGES


@<TRIPOS>ATOM
      1 C1          7.3660   -5.0800  -21.2230 C.ar      1 G50502      0.0000 
      2 C2          7.6080   -6.1880  -22.0160 C.ar      1 G50502      0.0000 
      3 C3          8.7130   -6.9840  -21.7720 C.ar      1 G50502      0.0000 
      4 C4          9.5820   -6.6760  -20.7390 C.ar      1 G50502      0.0000 
      5 C5          9.3410   -5.5650  -19.9350 C.ar      1 G50502      0.0000 
      6 C6          8.2340   -4.7690  -20.1890 C.ar      1 G50502      0.0000 
      7 C7         10.2620   -5.1630  -18.7770 C.2       1 G50502      0.0000 
      8 C8         10.8230   -6.1830  -17.7840 C.3       1 G50502      0.0000 
      9 C9          9.7460   -7.2100  -17.4400 C.3       1 G50502      0.0000 
     10 O1          7.9910   -3.6460  -19.3860 O.3       1 G50502      0.0000 
     11 O2         10.5400   -4.0180  -18.6440 O.2       1 G50502      0.0000 
     12 C10         9.4230   -7.1730  -15.9490 C.ar      1 G50502      0.0000 
     13 C11         8.1000   -7.1690  -15.5410 C.ar      1 G50502      0.0000 
     14 C12         7.7900   -7.1390  -14.1930 C.ar      1 G50502      0.0000 
     15 C13         8.8070   -7.1190  -13.2520 C.ar      1 G50502      0.0000 
     16 C14        10.1320   -7.1260  -13.6600 C.ar      1 G50502      0.0000 
     17 C15        10.4410   -7.1550  -15.0100 C.ar      1 G50502      0.0000 
     18 O3          8.4900   -7.0900  -11.8870 O.3       1 G50502      0.0000 
     19 O4          6.7350   -6.5040  -23.0650 O.3       1 G50502      0.0000 
     20 O5         10.6890   -7.5070  -20.5240 O.3       1 G50502      0.0000 
@<TRIPOS>BOND
     1    1    2 ar   
     2    1    6 ar   
     3    2    3 ar   
     4    2   19 1    
     5    3    4 ar   
     6    4    5 ar   
     7    4   20 1    
     8    5    6 ar   
     9    5    7 1    
    10    6   10 1    
    11    7    8 1    
    12    7   11 2    
    13    8    9 1    
    14    9   12 1    
    15   12   13 ar   
    16   12   17 ar   
    17   13   14 ar   
    18   14   15 ar   
    19   15   16 ar   
    20   15   18 1    
    21   16   17 ar   
@<TRIPOS>SUBSTRUCTURE
     1 G50502      1 GROUP   
@<TRIPOS>SET

