#    Name: 6av6_2_H4B_CAVITY_N1_4
#    Modification time : Fri May 22 19:36:36 2020

@<TRIPOS>MOLECULE
6av6_2_H4B_CAVITY_N1_4
   60     0     6     0     0
SMALL
NO_CHARGES


@<TRIPOS>ATOM
      1 N          73.9700   11.7100 -167.4700 N.am      1 ALA2        0.0000 
      2 N          73.1000   13.2900 -166.3600 N.am      1 ALA2        0.0000 
      3 N          72.5400   11.3900 -164.1000 N.am      1 ALA2        0.0000 
      4 N          74.1800   16.2000 -167.6300 N.am      1 ALA2        0.0000 
      5 N          73.6000   18.7300 -167.6400 N.am      1 ALA2        0.0000 
      6 O          74.9800   18.1600 -167.7700 O.2       1 ALA2        0.0000 
      7 O          74.7000   17.2100 -166.6500 O.2       1 ALA2        0.0000 
      8 O          74.1100   19.7400 -166.6600 O.2       1 ALA2        0.0000 
      9 N          75.7800   20.1200 -167.9200 N.am      1 ALA2        0.0000 
     10 O          75.4900   19.1700 -166.7900 O.2       1 ALA2        0.0000 
     11 N          77.1600   19.5500 -168.0500 N.am      1 ALA2        0.0000 
     12 N          78.5400   18.9800 -168.1800 N.am      1 ALA2        0.0000 
     13 N          76.5700   22.0800 -168.0600 N.am      1 ALA2        0.0000 
     14 N          76.2900   21.1300 -166.9400 N.am      1 ALA2        0.0000 
     15 N          77.9500   21.5100 -168.2000 N.am      1 ALA2        0.0000 
     16 OD1        76.1500   13.1000 -167.7500 O.co2     2 ASP3        0.0000 
     17 OD1        76.6600   14.1100 -166.7700 O.co2     2 ASP3        0.0000 
     18 OD1        77.7600   12.5900 -165.7700 O.co2     2 ASP3        0.0000 
     19 OD1        77.4600   16.0700 -166.9100 O.co2     2 ASP3        0.0000 
     20 NZ         73.4100    9.8100 -165.2200 N.4       3 LYS4        0.0000 
     21 CZ         72.8200   12.3400 -165.2300 C.ar      4 PHE5        0.0000 
     22 CZ         74.4900   12.7200 -166.4900 C.ar      4 PHE5        0.0000 
     23 CZ         74.2000   11.7700 -165.3600 C.ar      4 PHE5        0.0000 
     24 CZ         74.4700   17.1500 -168.7500 C.ar      4 PHE5        0.0000 
     25 CZ         73.9000   15.2500 -166.5000 C.ar      4 PHE5        0.0000 
     26 CZ         73.0500   12.4000 -163.1200 C.ar      4 PHE5        0.0000 
     27 CZ         75.5700   15.6300 -167.7600 C.ar      4 PHE5        0.0000 
     28 CZ         75.2800   14.6800 -166.6300 C.ar      4 PHE5        0.0000 
     29 CZ         75.0000   13.7300 -165.5100 C.ar      4 PHE5        0.0000 
     30 CZ         74.4300   11.8300 -163.2500 C.ar      4 PHE5        0.0000 
     31 CZ         76.3800   13.1600 -165.6400 C.ar      4 PHE5        0.0000 
     32 CZ         76.0900   12.2100 -164.5100 C.ar      4 PHE5        0.0000 
     33 CZ         73.8800   19.6800 -168.7700 C.ar      4 PHE5        0.0000 
     34 CZ         75.2600   19.1100 -168.9000 C.ar      4 PHE5        0.0000 
     35 CZ         76.6500   18.5400 -169.0300 C.ar      4 PHE5        0.0000 
     36 CZ         76.3600   17.5900 -167.9100 C.ar      4 PHE5        0.0000 
     37 CZ         76.0800   16.6400 -166.7800 C.ar      4 PHE5        0.0000 
     38 CZ         75.7900   15.6900 -165.6500 C.ar      4 PHE5        0.0000 
     39 CZ         77.7400   17.0200 -168.0400 C.ar      4 PHE5        0.0000 
     40 CZ         77.1700   15.1200 -165.7800 C.ar      4 PHE5        0.0000 
     41 CZ         76.8900   14.1700 -164.6600 C.ar      4 PHE5        0.0000 
     42 CZ         78.2700   13.6000 -164.7900 C.ar      4 PHE5        0.0000 
     43 CZ         74.4000   20.6900 -167.7900 C.ar      4 PHE5        0.0000 
     44 CZ         76.5900   17.6500 -165.8000 C.ar      4 PHE5        0.0000 
     45 CZ         79.9200   18.4100 -168.3100 C.ar      4 PHE5        0.0000 
     46 CZ         79.0500   19.9900 -167.2000 C.ar      4 PHE5        0.0000 
     47 CA         75.3600   11.1400 -167.6000 C.3       5 GLY6        0.0000 
     48 CA         75.0700   10.1900 -166.4700 C.3       5 GLY6        0.0000 
     49 CA         76.0000   20.1800 -165.8100 C.3       5 GLY6        0.0000 
     50 CA         77.6700   20.5600 -167.0700 C.3       5 GLY6        0.0000 
     51 CA         77.3900   19.6100 -165.9400 C.3       5 GLY6        0.0000 
     52 CA         79.3300   20.9400 -168.3300 C.3       5 GLY6        0.0000 
     53 DU         73.6900   10.7600 -166.3400 H         6 CUB7        0.0000 
     54 DU         74.7700   13.6700 -167.6100 H         6 CUB7        0.0000 
     55 DU         73.9200   10.8200 -164.2300 H         6 CUB7        0.0000 
     56 DU         75.8700   12.1500 -166.6200 H         6 CUB7        0.0000 
     57 DU         75.5800   11.2000 -165.4900 H         6 CUB7        0.0000 
     58 DU         77.4800   11.6400 -164.6400 H         6 CUB7        0.0000 
     59 DU         76.8700   18.6000 -166.9200 H         6 CUB7        0.0000 
     60 DU         78.2500   18.0300 -167.0600 H         6 CUB7        0.0000 
@<TRIPOS>BOND
@<TRIPOS>SUBSTRUCTURE
     1 ALA2        1 GROUP   
     2 ASP3       16 GROUP   
     3 LYS4       20 GROUP   
     4 PHE5       21 GROUP   
     5 GLY6       47 GROUP   
     6 CUB7       53 GROUP   
@<TRIPOS>SET

