#    Name: 6av6_3_H4B_CAVITY_N1_4
#    Modification time : Fri May 22 19:36:45 2020

@<TRIPOS>MOLECULE
6av6_3_H4B_CAVITY_N1_4
   21     0     6     0     0
SMALL
NO_CHARGES


@<TRIPOS>ATOM
      1 N          96.6300  -28.5600 -199.6500 N.am      1 ALA2        0.0000 
      2 N          96.0500  -26.0300 -199.6700 N.am      1 ALA2        0.0000 
      3 N          97.4300  -26.6000 -199.8000 N.am      1 ALA2        0.0000 
      4 N          97.1500  -27.5400 -198.6700 N.am      1 ALA2        0.0000 
      5 N          98.5300  -28.1100 -198.8000 N.am      1 ALA2        0.0000 
      6 N          98.2300  -24.6300 -199.9400 N.am      1 ALA2        0.0000 
      7 OD1        93.0000  -25.8300 -198.2700 O.co2     2 ASP3        0.0000 
      8 NZ         94.1000  -27.3500 -197.2800 N.4       3 LYS4        0.0000 
      9 NZ         95.4800  -27.9200 -197.4100 N.4       3 LYS4        0.0000 
     10 NZ         96.8600  -28.4900 -197.5400 N.4       3 LYS4        0.0000 
     11 CZ         93.8700  -27.4200 -199.3900 C.ar      4 PHE5        0.0000 
     12 CZ         93.5900  -28.3600 -198.2600 C.ar      4 PHE5        0.0000 
     13 CZ         95.2500  -27.9900 -199.5200 C.ar      4 PHE5        0.0000 
     14 CZ         94.9700  -28.9300 -198.3900 C.ar      4 PHE5        0.0000 
     15 CA         94.9000  -25.3900 -197.4300 C.3       5 GLY6        0.0000 
     16 CA         96.2800  -25.9600 -197.5600 C.3       5 GLY6        0.0000 
     17 CA         97.9400  -25.5800 -198.8200 C.3       5 GLY6        0.0000 
     18 CA         97.6600  -26.5300 -197.6900 C.3       5 GLY6        0.0000 
     19 CA         97.0700  -24.0000 -197.7000 C.3       5 GLY6        0.0000 
     20 DU         94.3800  -26.4000 -198.4100 H         6 CUB7        0.0000 
     21 DU         95.7700  -26.9700 -198.5400 H         6 CUB7        0.0000 
@<TRIPOS>BOND
@<TRIPOS>SUBSTRUCTURE
     1 ALA2        1 GROUP   
     2 ASP3        7 GROUP   
     3 LYS4        8 GROUP   
     4 PHE5       11 GROUP   
     5 GLY6       15 GROUP   
     6 CUB7       20 GROUP   
@<TRIPOS>SET

