#    Name: 6av6_3_H4B
#    Modification time : Fri May 22 19:36:44 2020

@<TRIPOS>MOLECULE
6av6_3_H4B
   17    18     1     0     1
SMALL
NO_CHARGES


@<TRIPOS>ATOM
      1 N1         94.8630  -24.9420 -202.2750 N.2       1 H4B502      0.0000 
      2 C2         94.5330  -25.4300 -201.0590 C.2       1 H4B502      0.0000 
      3 N2         95.5060  -25.9760 -200.2830 N.pl3     1 H4B502      0.0000 
      4 N3         93.2500  -25.3710 -200.6230 N.am      1 H4B502      0.0000 
      5 C4         92.2800  -24.8300 -201.3930 C.2       1 H4B502      0.0000 
      6 O4         91.0980  -24.7850 -200.9770 O.2       1 H4B502      0.0000 
      7 C4A        92.6110  -24.3350 -202.6470 C.2       1 H4B502      0.0000 
      8 C8A        93.9250  -24.3980 -203.0770 C.2       1 H4B502      0.0000 
      9 N5         91.6870  -23.7890 -203.4640 N.3       1 H4B502      0.0000 
     10 N8         94.2850  -23.9250 -204.2950 N.pl3     1 H4B502      0.0000 
     11 C6         91.9580  -23.8850 -204.8870 C.3       1 H4B502      0.0000 
     12 C7         93.3320  -23.3020 -205.2080 C.3       1 H4B502      0.0000 
     13 C9         90.8470  -23.2610 -205.7300 C.3       1 H4B502      0.0000 
     14 O9         90.5170  -21.9420 -205.2820 O.3       1 H4B502      0.0000 
     15 C10        91.2970  -23.1840 -207.1790 C.3       1 H4B502      0.0000 
     16 C11        90.1850  -22.6190 -208.0530 C.3       1 H4B502      0.0000 
     17 O10        91.6780  -24.4940 -207.6170 O.3       1 H4B502      0.0000 
@<TRIPOS>BOND
     1    1    2 2    
     2    1    8 1    
     3    2    3 1    
     4    2    4 1    
     5    4    5 am   
     6    5    6 2    
     7    5    7 1    
     8    7    8 2    
     9    7    9 1    
    10    8   10 1    
    11    9   11 1    
    12   10   12 1    
    13   11   12 1    
    14   11   13 1    
    15   13   14 1    
    16   13   15 1    
    17   15   16 1    
    18   15   17 1    
@<TRIPOS>SUBSTRUCTURE
     1 H4B502      1 GROUP   
@<TRIPOS>SET
ATOM$ORANGE STATIC     ATOMS   COLORGROUP SYSTEM 
18 2 2 5 5 7 7 8 8 11 11 12 12 13 13 15 15 16 \
16 

