#    Name: 6av6_1_H4B_CAVITY_N1_6
#    Modification time : Fri May 22 19:36:27 2020

@<TRIPOS>MOLECULE
6av6_1_H4B_CAVITY_N1_6
   42     0     6     0     0
SMALL
NO_CHARGES


@<TRIPOS>ATOM
      1 N          68.0700   24.4900 -182.1600 N.am      1 ALA2        0.0000 
      2 N          67.7900   23.5400 -181.0300 N.am      1 ALA2        0.0000 
      3 N          69.1700   22.9700 -181.1700 N.am      1 ALA2        0.0000 
      4 N          67.4900   27.0200 -182.1700 N.am      1 ALA2        0.0000 
      5 N          68.8700   26.4500 -182.3100 N.am      1 ALA2        0.0000 
      6 N          68.5800   25.5000 -181.1800 N.am      1 ALA2        0.0000 
      7 N          69.9700   24.9300 -181.3100 N.am      1 ALA2        0.0000 
      8 N          66.6200   28.6000 -181.0600 N.am      1 ALA2        0.0000 
      9 N          68.2800   28.9800 -182.3200 N.am      1 ALA2        0.0000 
     10 O          69.6600   28.4100 -182.4500 O.2       1 ALA2        0.0000 
     11 OD1        65.9000   23.1000 -181.8800 O.co2     2 ASP3        0.0000 
     12 NZ         65.0800   25.5600 -184.0100 N.4       3 LYS4        0.0000 
     13 NZ         66.4600   24.9900 -184.1400 N.4       3 LYS4        0.0000 
     14 NZ         65.5900   26.5800 -183.0200 N.4       3 LYS4        0.0000 
     15 NZ         67.2600   26.9500 -184.2800 N.4       3 LYS4        0.0000 
     16 NZ         66.9800   26.0100 -183.1600 N.4       3 LYS4        0.0000 
     17 NZ         68.6400   26.3800 -184.4100 N.4       3 LYS4        0.0000 
     18 CZ         65.3100   25.6300 -181.9000 C.ar      4 PHE5        0.0000 
     19 CZ         66.4100   24.1100 -180.9000 C.ar      4 PHE5        0.0000 
     20 CZ         63.3400   28.7300 -181.7800 C.ar      4 PHE5        0.0000 
     21 CZ         64.7300   28.1600 -181.9100 C.ar      4 PHE5        0.0000 
     22 CZ         66.1100   27.5900 -182.0400 C.ar      4 PHE5        0.0000 
     23 CZ         67.2000   26.0700 -181.0500 C.ar      4 PHE5        0.0000 
     24 CZ         66.9200   25.1200 -179.9200 C.ar      4 PHE5        0.0000 
     25 CZ         65.2400   29.1700 -180.9300 C.ar      4 PHE5        0.0000 
     26 CA         66.1800   24.0400 -183.0100 C.3       5 GLY6        0.0000 
     27 CA         67.5600   23.4700 -183.1400 C.3       5 GLY6        0.0000 
     28 CA         69.2300   23.8500 -184.4000 C.3       5 GLY6        0.0000 
     29 CA         68.9400   22.9000 -183.2700 C.3       5 GLY6        0.0000 
     30 CA         68.3600   25.4400 -183.2900 C.3       5 GLY6        0.0000 
     31 CA         70.0200   25.8100 -184.5500 C.3       5 GLY6        0.0000 
     32 CA         69.7400   24.8600 -183.4200 C.3       5 GLY6        0.0000 
     33 CA         69.4500   23.9200 -182.2900 C.3       5 GLY6        0.0000 
     34 CA         69.1500   27.4000 -183.4300 C.3       5 GLY6        0.0000 
     35 CA         70.5300   26.8300 -183.5600 C.3       5 GLY6        0.0000 
     36 CA         70.2500   25.8800 -182.4400 C.3       5 GLY6        0.0000 
     37 CA         71.3500   24.3600 -181.4400 C.3       5 GLY6        0.0000 
     38 CA         70.7600   26.8900 -181.4600 C.3       5 GLY6        0.0000 
     39 DU         64.8000   24.6100 -182.8800 H         6 CUB7        0.0000 
     40 DU         66.6900   25.0600 -182.0300 H         6 CUB7        0.0000 
     41 DU         66.3900   28.5400 -183.1700 H         6 CUB7        0.0000 
     42 DU         67.7700   27.9700 -183.3000 H         6 CUB7        0.0000 
@<TRIPOS>BOND
@<TRIPOS>SUBSTRUCTURE
     1 ALA2        1 GROUP   
     2 ASP3       11 GROUP   
     3 LYS4       12 GROUP   
     4 PHE5       18 GROUP   
     5 GLY6       26 GROUP   
     6 CUB7       39 GROUP   
@<TRIPOS>SET

