#    Name: 6av6_1_H4B_CAVITY_N1_4
#    Modification time : Fri May 22 19:36:27 2020

@<TRIPOS>MOLECULE
6av6_1_H4B_CAVITY_N1_4
   20     0     6     0     0
SMALL
NO_CHARGES


@<TRIPOS>ATOM
      1 N          68.0700   24.4900 -182.1600 N.am      1 ALA2        0.0000 
      2 N          67.7900   23.5400 -181.0300 N.am      1 ALA2        0.0000 
      3 N          69.1700   22.9700 -181.1700 N.am      1 ALA2        0.0000 
      4 N          67.4900   27.0200 -182.1700 N.am      1 ALA2        0.0000 
      5 N          68.5800   25.5000 -181.1800 N.am      1 ALA2        0.0000 
      6 N          69.9700   24.9300 -181.3100 N.am      1 ALA2        0.0000 
      7 OD1        65.9000   23.1000 -181.8800 O.co2     2 ASP3        0.0000 
      8 NZ         65.5900   26.5800 -183.0200 N.4       3 LYS4        0.0000 
      9 NZ         66.9800   26.0100 -183.1600 N.4       3 LYS4        0.0000 
     10 CZ         65.3100   25.6300 -181.9000 C.ar      4 PHE5        0.0000 
     11 CZ         66.4100   24.1100 -180.9000 C.ar      4 PHE5        0.0000 
     12 CZ         67.2000   26.0700 -181.0500 C.ar      4 PHE5        0.0000 
     13 CZ         66.9200   25.1200 -179.9200 C.ar      4 PHE5        0.0000 
     14 CA         66.1800   24.0400 -183.0100 C.3       5 GLY6        0.0000 
     15 CA         67.5600   23.4700 -183.1400 C.3       5 GLY6        0.0000 
     16 CA         68.9400   22.9000 -183.2700 C.3       5 GLY6        0.0000 
     17 CA         68.3600   25.4400 -183.2900 C.3       5 GLY6        0.0000 
     18 CA         69.4500   23.9200 -182.2900 C.3       5 GLY6        0.0000 
     19 DU         64.8000   24.6100 -182.8800 H         6 CUB7        0.0000 
     20 DU         66.6900   25.0600 -182.0300 H         6 CUB7        0.0000 
@<TRIPOS>BOND
@<TRIPOS>SUBSTRUCTURE
     1 ALA2        1 GROUP   
     2 ASP3        7 GROUP   
     3 LYS4        8 GROUP   
     4 PHE5       10 GROUP   
     5 GLY6       14 GROUP   
     6 CUB7       19 GROUP   
@<TRIPOS>SET

