#    Name: 6av6_1_H4B_CAVITY_N1_8
#    Modification time : Fri May 22 19:36:27 2020

@<TRIPOS>MOLECULE
6av6_1_H4B_CAVITY_N1_8
   62     0     7     0     0
SMALL
NO_CHARGES


@<TRIPOS>ATOM
      1 OG         62.4700   30.3100 -180.6600 O.3       1 SER1        0.0000 
      2 N          68.0700   24.4900 -182.1600 N.am      2 ALA2        0.0000 
      3 N          67.7900   23.5400 -181.0300 N.am      2 ALA2        0.0000 
      4 N          69.1700   22.9700 -181.1700 N.am      2 ALA2        0.0000 
      5 N          67.4900   27.0200 -182.1700 N.am      2 ALA2        0.0000 
      6 N          68.8700   26.4500 -182.3100 N.am      2 ALA2        0.0000 
      7 N          68.5800   25.5000 -181.1800 N.am      2 ALA2        0.0000 
      8 N          69.9700   24.9300 -181.3100 N.am      2 ALA2        0.0000 
      9 N          66.9000   29.5500 -182.1900 N.am      2 ALA2        0.0000 
     10 N          66.6200   28.6000 -181.0600 N.am      2 ALA2        0.0000 
     11 N          68.5700   29.9300 -183.4500 N.am      2 ALA2        0.0000 
     12 N          68.2800   28.9800 -182.3200 N.am      2 ALA2        0.0000 
     13 O          69.6600   28.4100 -182.4500 O.2       2 ALA2        0.0000 
     14 N          67.4100   30.5600 -181.2100 N.am      2 ALA2        0.0000 
     15 OD1        65.9000   23.1000 -181.8800 O.co2     3 ASP3        0.0000 
     16 OD1        63.1000   29.6200 -171.1100 O.co2     3 ASP3        0.0000 
     17 NZ         65.0800   25.5600 -184.0100 N.4       4 LYS4        0.0000 
     18 NZ         66.4600   24.9900 -184.1400 N.4       4 LYS4        0.0000 
     19 NZ         65.5900   26.5800 -183.0200 N.4       4 LYS4        0.0000 
     20 NZ         67.2600   26.9500 -184.2800 N.4       4 LYS4        0.0000 
     21 NZ         66.9800   26.0100 -183.1600 N.4       4 LYS4        0.0000 
     22 NZ         68.9200   27.3300 -185.5400 N.4       4 LYS4        0.0000 
     23 NZ         68.6400   26.3800 -184.4100 N.4       4 LYS4        0.0000 
     24 CZ         65.3100   25.6300 -181.9000 C.ar      5 PHE5        0.0000 
     25 CZ         66.4100   24.1100 -180.9000 C.ar      5 PHE5        0.0000 
     26 CZ         61.9600   29.3000 -181.6500 C.ar      5 PHE5        0.0000 
     27 CZ         63.3400   28.7300 -181.7800 C.ar      5 PHE5        0.0000 
     28 CZ         64.7300   28.1600 -181.9100 C.ar      5 PHE5        0.0000 
     29 CZ         66.1100   27.5900 -182.0400 C.ar      5 PHE5        0.0000 
     30 CZ         67.2000   26.0700 -181.0500 C.ar      5 PHE5        0.0000 
     31 CZ         66.9200   25.1200 -179.9200 C.ar      5 PHE5        0.0000 
     32 CZ         63.8600   29.7400 -180.8000 C.ar      5 PHE5        0.0000 
     33 CZ         65.2400   29.1700 -180.9300 C.ar      5 PHE5        0.0000 
     34 CA         66.1800   24.0400 -183.0100 C.3       6 GLY6        0.0000 
     35 CA         67.5600   23.4700 -183.1400 C.3       6 GLY6        0.0000 
     36 CA         69.2300   23.8500 -184.4000 C.3       6 GLY6        0.0000 
     37 CA         68.9400   22.9000 -183.2700 C.3       6 GLY6        0.0000 
     38 CA         68.3600   25.4400 -183.2900 C.3       6 GLY6        0.0000 
     39 CA         70.0200   25.8100 -184.5500 C.3       6 GLY6        0.0000 
     40 CA         69.7400   24.8600 -183.4200 C.3       6 GLY6        0.0000 
     41 CA         69.4500   23.9200 -182.2900 C.3       6 GLY6        0.0000 
     42 CA         69.1500   27.4000 -183.4300 C.3       6 GLY6        0.0000 
     43 CA         70.5300   26.8300 -183.5600 C.3       6 GLY6        0.0000 
     44 CA         70.2500   25.8800 -182.4400 C.3       6 GLY6        0.0000 
     45 CA         71.3500   24.3600 -181.4400 C.3       6 GLY6        0.0000 
     46 CA         67.1900   30.5000 -183.3100 C.3       6 GLY6        0.0000 
     47 CA         70.7600   26.8900 -181.4600 C.3       6 GLY6        0.0000 
     48 CA         64.3700   30.7500 -179.8200 C.3       6 GLY6        0.0000 
     49 CA         66.0300   31.1300 -181.0700 C.3       6 GLY6        0.0000 
     50 DU         64.8000   24.6100 -182.8800 H         7 CUB7        0.0000 
     51 DU         66.6900   25.0600 -182.0300 H         7 CUB7        0.0000 
     52 DU         62.2500   30.2500 -182.7700 H         7 CUB7        0.0000 
     53 DU         63.6300   29.6800 -182.9000 H         7 CUB7        0.0000 
     54 DU         65.0100   29.1100 -183.0400 H         7 CUB7        0.0000 
     55 DU         66.6700   29.4900 -184.3000 H         7 CUB7        0.0000 
     56 DU         66.3900   28.5400 -183.1700 H         7 CUB7        0.0000 
     57 DU         68.0600   28.9100 -184.4300 H         7 CUB7        0.0000 
     58 DU         67.7700   27.9700 -183.3000 H         7 CUB7        0.0000 
     59 DU         69.4400   28.3400 -184.5600 H         7 CUB7        0.0000 
     60 DU         64.1400   30.6900 -181.9200 H         7 CUB7        0.0000 
     61 DU         65.8100   31.0700 -183.1800 H         7 CUB7        0.0000 
     62 DU         65.5200   30.1200 -182.0600 H         7 CUB7        0.0000 
@<TRIPOS>BOND
@<TRIPOS>SUBSTRUCTURE
     1 SER1        1 GROUP   
     2 ALA2        2 GROUP   
     3 ASP3       15 GROUP   
     4 LYS4       17 GROUP   
     5 PHE5       24 GROUP   
     6 GLY6       34 GROUP   
     7 CUB7       50 GROUP   
@<TRIPOS>SET

