#    Name: 6av6_3_H4B_CAVITY_N1_8
#    Modification time : Fri May 22 19:36:45 2020

@<TRIPOS>MOLECULE
6av6_3_H4B_CAVITY_N1_8
   62     0     7     0     0
SMALL
NO_CHARGES


@<TRIPOS>ATOM
      1 OG         91.7700  -32.3500 -200.0800 O.3       1 SER1        0.0000 
      2 N          95.3300  -31.5300 -200.4900 N.am      2 ALA2        0.0000 
      3 N          95.0400  -32.4800 -199.3600 N.am      2 ALA2        0.0000 
      4 N          95.8400  -30.5200 -199.5100 N.am      2 ALA2        0.0000 
      5 N          95.5500  -31.4700 -198.3800 N.am      2 ALA2        0.0000 
      6 N          96.6500  -32.9900 -197.3900 N.am      2 ALA2        0.0000 
      7 N          96.6300  -28.5600 -199.6500 N.am      2 ALA2        0.0000 
      8 N          96.3500  -29.5100 -198.5300 N.am      2 ALA2        0.0000 
      9 N          98.0200  -29.1300 -199.7800 N.am      2 ALA2        0.0000 
     10 N          97.7300  -30.0800 -198.6600 N.am      2 ALA2        0.0000 
     11 N          97.1600  -31.9700 -196.4000 N.am      2 ALA2        0.0000 
     12 O          98.8300  -31.5900 -197.6600 O.2       2 ALA2        0.0000 
     13 N          96.0500  -26.0300 -199.6700 N.am      2 ALA2        0.0000 
     14 N          97.4300  -26.6000 -199.8000 N.am      2 ALA2        0.0000 
     15 N          97.1500  -27.5400 -198.6700 N.am      2 ALA2        0.0000 
     16 N          98.5300  -28.1100 -198.8000 N.am      2 ALA2        0.0000 
     17 N          98.2300  -24.6300 -199.9400 N.am      2 ALA2        0.0000 
     18 OD1        93.0000  -25.8300 -198.2700 O.co2     3 ASP3        0.0000 
     19 NZ         94.1000  -27.3500 -197.2800 N.4       4 LYS4        0.0000 
     20 NZ         95.4800  -27.9200 -197.4100 N.4       4 LYS4        0.0000 
     21 NZ         96.8600  -28.4900 -197.5400 N.4       4 LYS4        0.0000 
     22 NZ         96.5800  -29.4400 -196.4200 N.4       4 LYS4        0.0000 
     23 NZ         97.9600  -30.0100 -196.5500 N.4       4 LYS4        0.0000 
     24 NZ         97.6800  -30.9600 -195.4200 N.4       4 LYS4        0.0000 
     25 NZ         93.2300  -25.7700 -196.1700 N.4       4 LYS4        0.0000 
     26 NZ         94.6100  -26.3400 -196.3000 N.4       4 LYS4        0.0000 
     27 NZ         98.7500  -28.0500 -196.6900 N.4       4 LYS4        0.0000 
     28 NZ         98.4700  -29.0000 -195.5700 N.4       4 LYS4        0.0000 
     29 CZ         93.9500  -30.9600 -200.3600 C.ar      5 PHE5        0.0000 
     30 CZ         94.4600  -29.9500 -199.3700 C.ar      5 PHE5        0.0000 
     31 CZ         93.8700  -27.4200 -199.3900 C.ar      5 PHE5        0.0000 
     32 CZ         93.5900  -28.3600 -198.2600 C.ar      5 PHE5        0.0000 
     33 CZ         95.2500  -27.9900 -199.5200 C.ar      5 PHE5        0.0000 
     34 CZ         94.9700  -28.9300 -198.3900 C.ar      5 PHE5        0.0000 
     35 CA         92.9200  -32.9800 -202.3200 C.3       6 GLY6        0.0000 
     36 CA         94.5300  -33.4900 -200.3400 C.3       6 GLY6        0.0000 
     37 CA         96.4200  -33.0500 -199.4900 C.3       6 GLY6        0.0000 
     38 CA         96.9400  -32.0400 -198.5100 C.3       6 GLY6        0.0000 
     39 CA         97.4500  -31.0200 -197.5300 C.3       6 GLY6        0.0000 
     40 CA         98.2400  -29.0600 -197.6800 C.3       6 GLY6        0.0000 
     41 CA         99.3400  -30.5800 -196.6800 C.3       6 GLY6        0.0000 
     42 CA         94.9000  -25.3900 -197.4300 C.3       6 GLY6        0.0000 
     43 CA         96.2800  -25.9600 -197.5600 C.3       6 GLY6        0.0000 
     44 CA         97.9400  -25.5800 -198.8200 C.3       6 GLY6        0.0000 
     45 CA         97.6600  -26.5300 -197.6900 C.3       6 GLY6        0.0000 
     46 CA         97.3700  -27.4800 -196.5600 C.3       6 GLY6        0.0000 
     47 CA         99.3200  -26.1500 -198.9500 C.3       6 GLY6        0.0000 
     48 CA         99.0400  -27.1000 -197.8200 C.3       6 GLY6        0.0000 
     49 CA         99.8500  -29.5700 -195.7000 C.3       6 GLY6        0.0000 
     50 CA         97.0700  -24.0000 -197.7000 C.3       6 GLY6        0.0000 
     51 CA         98.4500  -24.5700 -197.8300 C.3       6 GLY6        0.0000 
     52 CA         98.1700  -25.5200 -196.7100 C.3       6 GLY6        0.0000 
     53 DU         93.1500  -32.9200 -200.2100 H         7 CUB7        0.0000 
     54 DU         92.0000  -32.2900 -197.9700 H         7 CUB7        0.0000 
     55 DU         93.6600  -31.9100 -199.2300 H         7 CUB7        0.0000 
     56 DU         93.3800  -32.8600 -198.1000 H         7 CUB7        0.0000 
     57 DU         94.7600  -33.4300 -198.2300 H         7 CUB7        0.0000 
     58 DU         94.1700  -30.9000 -198.2500 H         7 CUB7        0.0000 
     59 DU         95.2700  -32.4100 -197.2500 H         7 CUB7        0.0000 
     60 DU         96.0700  -30.4500 -197.4000 H         7 CUB7        0.0000 
     61 DU         94.3800  -26.4000 -198.4100 H         7 CUB7        0.0000 
     62 DU         95.7700  -26.9700 -198.5400 H         7 CUB7        0.0000 
@<TRIPOS>BOND
@<TRIPOS>SUBSTRUCTURE
     1 SER1        1 GROUP   
     2 ALA2        2 GROUP   
     3 ASP3       18 GROUP   
     4 LYS4       19 GROUP   
     5 PHE5       29 GROUP   
     6 GLY6       35 GROUP   
     7 CUB7       53 GROUP   
@<TRIPOS>SET

