#    Name: 6av6_1_H4B
#    Modification time : Fri May 22 19:36:26 2020

@<TRIPOS>MOLECULE
6av6_1_H4B
   17    18     1     0     1
SMALL
NO_CHARGES


@<TRIPOS>ATOM
      1 N1         65.7320   22.9510 -178.2710 N.2       1 H4B501      0.0000 
      2 C2         65.4880   23.3230 -179.5480 C.2       1 H4B501      0.0000 
      3 N2         66.4970   23.8460 -180.2880 N.pl3     1 H4B501      0.0000 
      4 N3         64.2510   23.1720 -180.0820 N.am      1 H4B501      0.0000 
      5 C4         63.2410   22.6490 -179.3470 C.2       1 H4B501      0.0000 
      6 O4         62.1000   22.5180 -179.8500 O.2       1 H4B501      0.0000 
      7 C4A        63.4810   22.2680 -178.0340 C.2       1 H4B501      0.0000 
      8 C8A        64.7510   22.4270 -177.5040 C.2       1 H4B501      0.0000 
      9 N5         62.5040   21.7450 -177.2620 N.3       1 H4B501      0.0000 
     10 N8         65.0220   22.0700 -176.2230 N.pl3     1 H4B501      0.0000 
     11 C6         62.6410   21.9030 -175.8250 C.3       1 H4B501      0.0000 
     12 C7         64.0250   21.4640 -175.3500 C.3       1 H4B501      0.0000 
     13 C9         61.5070   21.1980 -175.0770 C.3       1 H4B501      0.0000 
     14 O9         61.1500   19.9670 -175.7130 O.3       1 H4B501      0.0000 
     15 C10        61.8940   20.8930 -173.6390 C.3       1 H4B501      0.0000 
     16 C11        60.7500   20.1540 -172.9670 C.3       1 H4B501      0.0000 
     17 O10        62.1680   22.1060 -172.9270 O.3       1 H4B501      0.0000 
@<TRIPOS>BOND
     1    1    2 2    
     2    1    8 1    
     3    2    3 1    
     4    2    4 1    
     5    4    5 am   
     6    5    6 2    
     7    5    7 1    
     8    7    8 2    
     9    7    9 1    
    10    8   10 1    
    11    9   11 1    
    12   10   12 1    
    13   11   12 1    
    14   11   13 1    
    15   13   14 1    
    16   13   15 1    
    17   15   16 1    
    18   15   17 1    
@<TRIPOS>SUBSTRUCTURE
     1 H4B501      1 GROUP   
@<TRIPOS>SET
ATOM$ORANGE STATIC     ATOMS   COLORGROUP SYSTEM 
18 2 2 5 5 7 7 8 8 11 11 12 12 13 13 15 15 16 \
16 

