#    Name: 6av6_2_H4B
#    Modification time : Fri May 22 19:36:35 2020

@<TRIPOS>MOLECULE
6av6_2_H4B
   17    18     1     0     1
SMALL
NO_CHARGES


@<TRIPOS>ATOM
      1 N1         73.8590   15.2850 -167.4550 N.2       1 H4B503      0.0000 
      2 C2         74.2800   14.1310 -166.8700 C.2       1 H4B503      0.0000 
      3 N2         73.4420   13.0630 -166.7590 N.pl3     1 H4B503      0.0000 
      4 N3         75.5420   14.0370 -166.3890 N.am      1 H4B503      0.0000 
      5 C4         76.3940   15.0830 -166.4830 C.2       1 H4B503      0.0000 
      6 O4         77.5550   14.9900 -166.0310 O.2       1 H4B503      0.0000 
      7 C4A        75.9720   16.2670 -167.0680 C.2       1 H4B503      0.0000 
      8 C8A        74.6820   16.3610 -167.5650 C.2       1 H4B503      0.0000 
      9 N5         76.7990   17.3300 -167.1640 N.3       1 H4B503      0.0000 
     10 N8         74.2510   17.5220 -168.1450 N.pl3     1 H4B503      0.0000 
     11 C6         76.1700   18.6350 -167.2170 C.3       1 H4B503      0.0000 
     12 C7         75.1230   18.6850 -168.3330 C.3       1 H4B503      0.0000 
     13 C9         77.2240   19.7480 -167.2570 C.3       1 H4B503      0.0000 
     14 O9         78.3710   19.3500 -168.0170 O.3       1 H4B503      0.0000 
     15 C10        76.6710   21.0610 -167.7940 C.3       1 H4B503      0.0000 
     16 C11        77.7000   22.1700 -167.6310 C.3       1 H4B503      0.0000 
     17 O10        75.4990   21.4390 -167.0690 O.3       1 H4B503      0.0000 
@<TRIPOS>BOND
     1    1    2 2    
     2    1    8 1    
     3    2    3 1    
     4    2    4 1    
     5    4    5 am   
     6    5    6 2    
     7    5    7 1    
     8    7    8 2    
     9    7    9 1    
    10    8   10 1    
    11    9   11 1    
    12   10   12 1    
    13   11   12 1    
    14   11   13 1    
    15   13   14 1    
    16   13   15 1    
    17   15   16 1    
    18   15   17 1    
@<TRIPOS>SUBSTRUCTURE
     1 H4B503      1 GROUP   
@<TRIPOS>SET
ATOM$ORANGE STATIC     ATOMS   COLORGROUP SYSTEM 
18 2 2 5 5 7 7 8 8 11 11 12 12 13 13 15 15 16 \
16 

