#    Name: 5vlg_7_MGR
#    Modification time : Fri May 22 19:12:36 2020

@<TRIPOS>MOLECULE
5vlg_7_MGR
   50    52     1     0     0
SMALL
NO_CHARGES


@<TRIPOS>ATOM
      1 C1          0.5550   51.2680   23.2310 C.2       1 MGR300      0.0000 
      2 C2          1.1180   50.4230   22.0860 C.ar      1 MGR300      0.0000 
      3 C3          2.0180   50.9730   21.1850 C.ar      1 MGR300      0.0000 
      4 C4          2.5270   50.2030   20.1530 C.ar      1 MGR300      0.0000 
      5 C5          2.1330   48.8820   20.0170 C.ar      1 MGR300      0.0000 
      6 C6          1.2300   48.3310   20.9120 C.ar      1 MGR300      0.0000 
      7 C7          0.7250   49.1000   21.9460 C.ar      1 MGR300      0.0000 
      8 C8         -0.8040   50.8660   23.8050 C.ar      1 MGR300      0.0000 
      9 C9         -0.9980   50.7620   25.1710 C.ar      1 MGR300      0.0000 
     10 C10        -2.2370   50.3900   25.6690 C.ar      1 MGR300      0.0000 
     11 C11        -3.2820   50.1170   24.8020 C.ar      1 MGR300      0.0000 
     12 C12        -3.0840   50.2180   23.4370 C.ar      1 MGR300      0.0000 
     13 C13        -1.8480   50.5920   22.9390 C.ar      1 MGR300      0.0000 
     14 C14         1.3500   52.1080   23.8760 C.2       1 MGR300      0.0000 
     15 C15         0.8180   53.4360   24.4130 C.2       1 MGR300      0.0000 
     16 C16         1.7470   54.4000   25.1530 C.2       1 MGR300      0.0000 
     17 C17         3.2220   54.0520   25.3620 C.2       1 MGR300      0.0000 
     18 C18         3.7490   52.7200   24.8280 C.2       1 MGR300      0.0000 
     19 C19         2.8200   51.7590   24.0900 C.2       1 MGR300      0.0000 
     20 C22        -5.7540   49.8690   24.4420 C.3       1 MGR300      0.0000 
     21 C23        -4.7400   49.1840   26.6430 C.3       1 MGR300      0.0000 
     22 C24         3.4310   55.8000   26.9170 C.3       1 MGR300      0.0000 
     23 C25         5.3770   55.0090   25.5670 C.3       1 MGR300      0.0000 
     24 N2         -4.5890   49.7240   25.3010 N.pl3     1 MGR300      0.0000 
     25 N3          3.9840   54.8420   25.9710 N.pl3     1 MGR300      0.0000 
     26 H31         2.2850   51.8590   21.2780 H         1 MGR300      0.0000 
     27 H41         3.1310   50.5720   19.5500 H         1 MGR300      0.0000 
     28 H51         2.4710   48.3650   19.3220 H         1 MGR300      0.0000 
     29 H61         0.9660   47.4430   20.8200 H         1 MGR300      0.0000 
     30 H71         0.1200   48.7290   22.5480 H         1 MGR300      0.0000 
     31 H91        -0.2980   50.9450   25.7550 H         1 MGR300      0.0000 
     32 H101       -2.3670   50.3220   26.5870 H         1 MGR300      0.0000 
     33 H121       -3.7830   50.0370   22.8520 H         1 MGR300      0.0000 
     34 H131       -1.7180   50.6570   22.0210 H         1 MGR300      0.0000 
     35 H151       -0.0760   53.6600   24.2880 H         1 MGR300      0.0000 
     36 H161        1.4140   55.2070   25.4740 H         1 MGR300      0.0000 
     37 H181        4.6430   52.4960   24.9500 H         1 MGR300      0.0000 
     38 H191        3.1540   50.9540   23.7660 H         1 MGR300      0.0000 
     39 H221       -5.6690   49.2760   23.6790 H         1 MGR300      0.0000 
     40 H222       -6.5540   49.6400   24.9410 H         1 MGR300      0.0000 
     41 H223       -5.8170   50.7860   24.1340 H         1 MGR300      0.0000 
     42 H231       -5.5050   48.5880   26.6680 H         1 MGR300      0.0000 
     43 H232       -4.8750   49.9110   27.2700 H         1 MGR300      0.0000 
     44 H233       -3.9390   48.6920   26.8850 H         1 MGR300      0.0000 
     45 H241        2.9310   55.3270   27.6010 H         1 MGR300      0.0000 
     46 H242        2.8400   56.4120   26.4500 H         1 MGR300      0.0000 
     47 H243        4.1520   56.3000   27.3310 H         1 MGR300      0.0000 
     48 H251        5.9590   54.7670   26.3050 H         1 MGR300      0.0000 
     49 H252        5.5640   54.4370   24.8070 H         1 MGR300      0.0000 
     50 H253        5.5340   55.9340   25.3220 H         1 MGR300      0.0000 
@<TRIPOS>BOND
     1    1    2 1    
     2    1    8 1    
     3    1   14 2    
     4    2    3 ar   
     5    2    7 ar   
     6    3    4 ar   
     7    4    5 ar   
     8    3   26 1    
     9    5    6 ar   
    10    4   27 1    
    11    6    7 ar   
    12    5   28 1    
    13    8    9 ar   
    14    6   29 1    
    15    7   30 1    
    16    8   13 ar   
    17    9   10 ar   
    18   10   11 ar   
    19    9   31 1    
    20   11   12 ar   
    21   10   32 1    
    22   11   24 1    
    23   12   13 ar   
    24   14   15 1    
    25   12   33 1    
    26   13   34 1    
    27   14   19 1    
    28   15   16 2    
    29   16   17 1    
    30   15   35 1    
    31   17   18 1    
    32   16   36 1    
    33   17   25 2    
    34   18   19 2    
    35   20   24 1    
    36   18   37 1    
    37   19   38 1    
    38   20   39 1    
    39   20   40 1    
    40   20   41 1    
    41   21   24 1    
    42   21   42 1    
    43   21   43 1    
    44   21   44 1    
    45   22   25 1    
    46   22   45 1    
    47   22   46 1    
    48   22   47 1    
    49   23   25 1    
    50   23   48 1    
    51   23   49 1    
    52   23   50 1    
@<TRIPOS>SUBSTRUCTURE
     1 MGR300      1 GROUP   
@<TRIPOS>SET

