#    Name: 5vlg_8_MGR
#    Modification time : Fri May 22 19:12:41 2020

@<TRIPOS>MOLECULE
5vlg_8_MGR
   50    52     1     0     0
SMALL
NO_CHARGES


@<TRIPOS>ATOM
      1 C1         -7.8100   42.4980   41.3420 C.2       1 MGR300      0.0000 
      2 C2         -7.1770   42.6050   42.7330 C.ar      1 MGR300      0.0000 
      3 C3         -7.5800   41.7530   43.7520 C.ar      1 MGR300      0.0000 
      4 C4         -7.0050   41.8470   45.0090 C.ar      1 MGR300      0.0000 
      5 C5         -6.0270   42.7960   45.2540 C.ar      1 MGR300      0.0000 
      6 C6         -5.6250   43.6520   44.2420 C.ar      1 MGR300      0.0000 
      7 C7         -6.1980   43.5560   42.9840 C.ar      1 MGR300      0.0000 
      8 C8         -7.9600   43.7670   40.4990 C.ar      1 MGR300      0.0000 
      9 C9         -7.7410   43.7350   39.1340 C.ar      1 MGR300      0.0000 
     10 C10        -7.8770   44.8920   38.3810 C.ar      1 MGR300      0.0000 
     11 C11        -8.2280   46.0850   38.9920 C.ar      1 MGR300      0.0000 
     12 C12        -8.4450   46.1180   40.3580 C.ar      1 MGR300      0.0000 
     13 C13        -8.3110   44.9620   41.1090 C.ar      1 MGR300      0.0000 
     14 C14        -8.0120   41.3010   40.8130 C.2       1 MGR300      0.0000 
     15 C15        -9.2390   41.0190   39.9460 C.2       1 MGR300      0.0000 
     16 C16        -9.4590   39.6280   39.3500 C.2       1 MGR300      0.0000 
     17 C17        -8.4620   38.5000   39.6160 C.2       1 MGR300      0.0000 
     18 C18        -7.2350   38.7840   40.4800 C.2       1 MGR300      0.0000 
     19 C19        -7.0160   40.1740   41.0750 C.2       1 MGR300      0.0000 
     20 C22        -9.3240   48.3150   38.6220 C.3       1 MGR300      0.0000 
     21 C23        -7.5740   47.5040   37.0120 C.3       1 MGR300      0.0000 
     22 C24        -9.3570   37.2160   37.8640 C.3       1 MGR300      0.0000 
     23 C25        -8.3760   36.1560   39.9020 C.3       1 MGR300      0.0000 
     24 N2         -8.3730   47.2990   38.2070 N.pl3     1 MGR300      0.0000 
     25 N3         -8.6440   37.3600   39.1240 N.pl3     1 MGR300      0.0000 
     26 H31        -8.2350   41.1130   43.5890 H         1 MGR300      0.0000 
     27 H41        -7.2770   41.2740   45.6890 H         1 MGR300      0.0000 
     28 H51        -5.6440   42.8620   46.0990 H         1 MGR300      0.0000 
     29 H61        -4.9680   44.2900   44.4060 H         1 MGR300      0.0000 
     30 H71        -5.9250   44.1300   42.3060 H         1 MGR300      0.0000 
     31 H91        -7.5050   42.9360   38.7200 H         1 MGR300      0.0000 
     32 H101       -7.7310   44.8670   37.4620 H         1 MGR300      0.0000 
     33 H121       -8.6820   46.9170   40.7710 H         1 MGR300      0.0000 
     34 H131       -8.4560   44.9880   42.0270 H         1 MGR300      0.0000 
     35 H151       -9.8540   41.6960   39.7810 H         1 MGR300      0.0000 
     36 H161      -10.2090   39.4650   38.8240 H         1 MGR300      0.0000 
     37 H181       -6.6200   38.1070   40.6480 H         1 MGR300      0.0000 
     38 H191       -6.2680   40.3350   41.6030 H         1 MGR300      0.0000 
     39 H221       -9.3560   49.0190   37.9560 H         1 MGR300      0.0000 
     40 H222       -9.0480   48.6880   39.4740 H         1 MGR300      0.0000 
     41 H223      -10.2030   47.9160   38.7130 H         1 MGR300      0.0000 
     42 H231       -6.7540   46.9900   37.0790 H         1 MGR300      0.0000 
     43 H232       -7.3580   48.4460   36.9240 H         1 MGR300      0.0000 
     44 H233       -8.0750   47.2130   36.2340 H         1 MGR300      0.0000 
     45 H241       -9.3700   36.2820   37.6050 H         1 MGR300      0.0000 
     46 H242      -10.2670   37.5350   37.9700 H         1 MGR300      0.0000 
     47 H243       -8.9100   37.7360   37.1780 H         1 MGR300      0.0000 
     48 H251       -7.6970   35.6270   39.4550 H         1 MGR300      0.0000 
     49 H252       -9.1900   35.6360   39.9840 H         1 MGR300      0.0000 
     50 H253       -8.0610   36.4060   40.7850 H         1 MGR300      0.0000 
@<TRIPOS>BOND
     1    1    2 1    
     2    1    8 1    
     3    1   14 2    
     4    2    3 ar   
     5    2    7 ar   
     6    3    4 ar   
     7    4    5 ar   
     8    3   26 1    
     9    5    6 ar   
    10    4   27 1    
    11    6    7 ar   
    12    5   28 1    
    13    8    9 ar   
    14    6   29 1    
    15    7   30 1    
    16    8   13 ar   
    17    9   10 ar   
    18   10   11 ar   
    19    9   31 1    
    20   11   12 ar   
    21   10   32 1    
    22   11   24 1    
    23   12   13 ar   
    24   14   15 1    
    25   12   33 1    
    26   13   34 1    
    27   14   19 1    
    28   15   16 2    
    29   16   17 1    
    30   15   35 1    
    31   17   18 1    
    32   16   36 1    
    33   17   25 2    
    34   18   19 2    
    35   20   24 1    
    36   18   37 1    
    37   19   38 1    
    38   20   39 1    
    39   20   40 1    
    40   20   41 1    
    41   21   24 1    
    42   21   42 1    
    43   21   43 1    
    44   21   44 1    
    45   22   25 1    
    46   22   45 1    
    47   22   46 1    
    48   22   47 1    
    49   23   25 1    
    50   23   48 1    
    51   23   49 1    
    52   23   50 1    
@<TRIPOS>SUBSTRUCTURE
     1 MGR300      1 GROUP   
@<TRIPOS>SET

