#    Name: 5vlg_2_MGR
#    Modification time : Fri May 22 19:12:14 2020

@<TRIPOS>MOLECULE
5vlg_2_MGR
   50    52     1     0     0
SMALL
NO_CHARGES


@<TRIPOS>ATOM
      1 C1        -37.7990   26.4710  -30.0730 C.2       1 MGR300      0.0000 
      2 C2        -38.6830   25.5610  -29.2160 C.ar      1 MGR300      0.0000 
      3 C3        -39.2070   26.0320  -28.0240 C.ar      1 MGR300      0.0000 
      4 C4        -40.0110   25.2140  -27.2470 C.ar      1 MGR300      0.0000 
      5 C5        -40.2930   23.9220  -27.6600 C.ar      1 MGR300      0.0000 
      6 C6        -39.7710   23.4490  -28.8510 C.ar      1 MGR300      0.0000 
      7 C7        -38.9680   24.2690  -29.6290 C.ar      1 MGR300      0.0000 
      8 C8        -36.6760   25.8450  -30.9020 C.ar      1 MGR300      0.0000 
      9 C9        -36.4070   26.3040  -32.1800 C.ar      1 MGR300      0.0000 
     10 C10       -35.3890   25.7270  -32.9240 C.ar      1 MGR300      0.0000 
     11 C11       -34.6400   24.6870  -32.3950 C.ar      1 MGR300      0.0000 
     12 C12       -34.9100   24.2310  -31.1170 C.ar      1 MGR300      0.0000 
     13 C13       -35.9250   24.8080  -30.3720 C.ar      1 MGR300      0.0000 
     14 C14       -38.2170   27.6990  -30.3230 C.2       1 MGR300      0.0000 
     15 C15       -37.2370   28.8680  -30.3460 C.2       1 MGR300      0.0000 
     16 C16       -37.7380   30.2820  -30.6290 C.2       1 MGR300      0.0000 
     17 C17       -39.2210   30.5430  -30.8870 C.2       1 MGR300      0.0000 
     18 C18       -40.1990   29.3710  -30.8650 C.2       1 MGR300      0.0000 
     19 C19       -39.6980   27.9570  -30.5820 C.2       1 MGR300      0.0000 
     20 C22       -32.4630   23.4410  -32.4580 C.3       1 MGR300      0.0000 
     21 C23       -33.5810   24.0700  -34.6170 C.3       1 MGR300      0.0000 
     22 C24       -38.7560   32.6660  -31.7770 C.3       1 MGR300      0.0000 
     23 C25       -40.8570   32.1970  -30.5050 C.3       1 MGR300      0.0000 
     24 N2        -33.5680   24.0700  -33.1610 N.pl3     1 MGR300      0.0000 
     25 N3        -39.6310   31.7050  -31.1210 N.pl3     1 MGR300      0.0000 
     26 H31       -39.0190   26.8990  -27.7450 H         1 MGR300      0.0000 
     27 H41       -40.3600   25.5330  -26.4460 H         1 MGR300      0.0000 
     28 H51       -40.8320   23.3730  -27.1370 H         1 MGR300      0.0000 
     29 H61       -39.9590   22.5820  -29.1300 H         1 MGR300      0.0000 
     30 H71       -38.6180   23.9500  -30.4290 H         1 MGR300      0.0000 
     31 H91       -36.9090   27.0000  -32.5390 H         1 MGR300      0.0000 
     32 H101      -35.2110   26.0370  -33.7830 H         1 MGR300      0.0000 
     33 H121      -34.4090   23.5350  -30.7570 H         1 MGR300      0.0000 
     34 H131      -36.1060   24.4960  -29.5140 H         1 MGR300      0.0000 
     35 H151      -36.3330   28.7190  -30.1860 H         1 MGR300      0.0000 
     36 H161      -37.1360   30.9910  -30.6410 H         1 MGR300      0.0000 
     37 H181      -41.1030   29.5190  -31.0220 H         1 MGR300      0.0000 
     38 H191      -40.3000   27.2480  -30.5670 H         1 MGR300      0.0000 
     39 H221      -32.7900   22.6760  -31.9600 H         1 MGR300      0.0000 
     40 H222      -31.7970   23.1490  -33.0990 H         1 MGR300      0.0000 
     41 H223      -32.0640   24.0790  -31.8460 H         1 MGR300      0.0000 
     42 H231      -32.9740   24.7510  -34.9460 H         1 MGR300      0.0000 
     43 H232      -34.4790   24.2570  -34.9320 H         1 MGR300      0.0000 
     44 H233      -33.2990   23.2010  -34.9430 H         1 MGR300      0.0000 
     45 H241      -37.9840   32.8360  -31.2150 H         1 MGR300      0.0000 
     46 H242      -38.4630   32.3070  -32.6290 H         1 MGR300      0.0000 
     47 H243      -39.2380   33.4950  -31.9230 H         1 MGR300      0.0000 
     48 H251      -41.4940   32.4350  -31.1970 H         1 MGR300      0.0000 
     49 H252      -41.2360   31.5040  -29.9410 H         1 MGR300      0.0000 
     50 H253      -40.6570   32.9780  -29.9660 H         1 MGR300      0.0000 
@<TRIPOS>BOND
     1    1    2 1    
     2    1    8 1    
     3    1   14 2    
     4    2    3 ar   
     5    2    7 ar   
     6    3    4 ar   
     7    4    5 ar   
     8    3   26 1    
     9    5    6 ar   
    10    4   27 1    
    11    6    7 ar   
    12    5   28 1    
    13    8    9 ar   
    14    6   29 1    
    15    7   30 1    
    16    8   13 ar   
    17    9   10 ar   
    18   10   11 ar   
    19    9   31 1    
    20   11   12 ar   
    21   10   32 1    
    22   11   24 1    
    23   12   13 ar   
    24   14   15 1    
    25   12   33 1    
    26   13   34 1    
    27   14   19 1    
    28   15   16 2    
    29   16   17 1    
    30   15   35 1    
    31   17   18 1    
    32   16   36 1    
    33   17   25 2    
    34   18   19 2    
    35   20   24 1    
    36   18   37 1    
    37   19   38 1    
    38   20   39 1    
    39   20   40 1    
    40   20   41 1    
    41   21   24 1    
    42   21   42 1    
    43   21   43 1    
    44   21   44 1    
    45   22   25 1    
    46   22   45 1    
    47   22   46 1    
    48   22   47 1    
    49   23   25 1    
    50   23   48 1    
    51   23   49 1    
    52   23   50 1    
@<TRIPOS>SUBSTRUCTURE
     1 MGR300      1 GROUP   
@<TRIPOS>SET

