#    Name: 5vlg_2_MGR_CAVITY_N1_4
#    Modification time : Fri May 22 19:12:15 2020

@<TRIPOS>MOLECULE
5vlg_2_MGR_CAVITY_N1_4
  100     0     7     0     0
SMALL
NO_CHARGES


@<TRIPOS>ATOM
      1 OG        -32.2800   23.6100  -34.4600 O.3       1 SER1        0.0000 
      2 OG        -33.2600   22.9500  -33.5300 O.3       1 SER1        0.0000 
      3 OG        -37.0100   34.0500  -29.5800 O.3       1 SER1        0.0000 
      4 N         -34.1600   22.6500  -34.7000 N.am      2 ALA2        0.0000 
      5 N         -34.8500   23.9700  -34.4900 N.am      2 ALA2        0.0000 
      6 N         -42.3600   33.1600  -31.0200 N.am      2 ALA2        0.0000 
      7 N         -39.1800   24.6200  -31.3200 N.am      2 ALA2        0.0000 
      8 N         -40.5700   27.2500  -30.9100 N.am      2 ALA2        0.0000 
      9 N         -42.6500   31.1900  -30.3000 N.am      2 ALA2        0.0000 
     10 N         -32.9800   24.9200  -34.2500 N.am      2 ALA2        0.0000 
     11 N         -38.2900   24.9100  -30.1500 N.am      2 ALA2        0.0000 
     12 N         -38.9800   26.2300  -29.9500 N.am      2 ALA2        0.0000 
     13 N         -41.0600   30.1700  -29.3400 N.am      2 ALA2        0.0000 
     14 N         -41.7500   31.4800  -29.1400 N.am      2 ALA2        0.0000 
     15 N         -39.2700   24.2500  -29.2300 N.am      2 ALA2        0.0000 
     16 N         -39.9600   25.5700  -29.0300 N.am      2 ALA2        0.0000 
     17 O         -33.0600   24.5600  -32.1600 O.2       2 ALA2        0.0000 
     18 N         -39.4700   29.1500  -28.3800 N.am      2 ALA2        0.0000 
     19 N         -40.1600   30.4600  -28.1800 N.am      2 ALA2        0.0000 
     20 N         -40.8500   31.7800  -27.9700 N.am      2 ALA2        0.0000 
     21 N         -39.7500   27.1700  -27.6600 N.am      2 ALA2        0.0000 
     22 N         -39.2600   30.7600  -27.0100 N.am      2 ALA2        0.0000 
     23 OD1       -36.8100   29.1500  -30.4300 O.co2     3 ASP3        0.0000 
     24 OD1       -37.5100   30.4700  -30.2300 O.co2     3 ASP3        0.0000 
     25 OD1       -36.3200   32.7400  -29.7800 O.co2     3 ASP3        0.0000 
     26 OD1       -36.6100   30.7600  -29.0600 O.co2     3 ASP3        0.0000 
     27 OD1       -37.3000   32.0800  -28.8600 O.co2     3 ASP3        0.0000 
     28 NZ        -34.6500   25.5800  -33.1300 N.4       4 LYS4        0.0000 
     29 NZ        -35.3400   26.8900  -32.9200 N.4       4 LYS4        0.0000 
     30 NZ        -37.0200   27.5500  -31.8000 N.4       4 LYS4        0.0000 
     31 NZ        -37.7100   28.8600  -31.5900 N.4       4 LYS4        0.0000 
     32 NZ        -39.7900   32.8000  -30.9800 N.4       4 LYS4        0.0000 
     33 NZ        -40.7700   32.1400  -30.0600 N.4       4 LYS4        0.0000 
     34 NZ        -41.4700   33.4600  -29.8600 N.4       4 LYS4        0.0000 
     35 NZ        -33.7500   25.8700  -31.9600 N.4       4 LYS4        0.0000 
     36 NZ        -34.4400   27.1900  -31.7600 N.4       4 LYS4        0.0000 
     37 NZ        -37.9100   33.7600  -30.7400 N.4       4 LYS4        0.0000 
     38 NZ        -38.8900   33.1000  -29.8200 N.4       4 LYS4        0.0000 
     39 NZ        -39.8700   32.4400  -28.9000 N.4       4 LYS4        0.0000 
     40 NZ        -40.5700   33.7500  -28.6900 N.4       4 LYS4        0.0000 
     41 NZ        -37.9900   33.3900  -28.6500 N.4       4 LYS4        0.0000 
     42 NZ        -38.9700   32.7300  -27.7300 N.4       4 LYS4        0.0000 
     43 NZ        -39.6700   34.0500  -27.5300 N.4       4 LYS4        0.0000 
     44 CZ        -35.8400   23.3100  -33.5700 C.ar      5 PHE5        0.0000 
     45 CZ        -36.5300   24.6200  -33.3700 C.ar      5 PHE5        0.0000 
     46 CZ        -39.5900   27.9100  -31.8300 C.ar      5 PHE5        0.0000 
     47 CZ        -40.2800   29.2200  -31.6300 C.ar      5 PHE5        0.0000 
     48 CZ        -40.9800   30.5300  -31.4300 C.ar      5 PHE5        0.0000 
     49 CZ        -41.6700   31.8500  -31.2200 C.ar      5 PHE5        0.0000 
     50 CZ        -38.1200   32.1500  -32.1100 C.ar      5 PHE5        0.0000 
     51 CZ        -34.2400   22.2900  -32.6100 C.ar      5 PHE5        0.0000 
     52 CZ        -34.9400   23.6000  -32.4100 C.ar      5 PHE5        0.0000 
     53 CZ        -35.6300   24.9200  -32.2000 C.ar      5 PHE5        0.0000 
     54 CZ        -38.4000   30.1700  -31.3900 C.ar      5 PHE5        0.0000 
     55 CZ        -39.1000   31.4900  -31.1900 C.ar      5 PHE5        0.0000 
     56 CZ        -35.9200   22.9400  -31.4800 C.ar      5 PHE5        0.0000 
     57 CZ        -36.6100   24.2600  -31.2800 C.ar      5 PHE5        0.0000 
     58 CZ        -39.3800   29.5100  -30.4700 C.ar      5 PHE5        0.0000 
     59 CZ        -37.5900   23.6000  -30.3600 C.ar      5 PHE5        0.0000 
     60 CZ        -38.5700   22.9400  -29.4300 C.ar      5 PHE5        0.0000 
     61 CZ        -32.3600   23.2400  -32.3700 C.ar      5 PHE5        0.0000 
     62 CZ        -37.2200   32.4400  -30.9500 C.ar      5 PHE5        0.0000 
     63 CZ        -34.0400   23.9000  -31.2400 C.ar      5 PHE5        0.0000 
     64 CZ        -35.7100   24.5500  -30.1100 C.ar      5 PHE5        0.0000 
     65 CZ        -36.6900   23.8900  -29.1900 C.ar      5 PHE5        0.0000 
     66 CA        -33.8700   24.6300  -35.4200 C.3       6 GLY6        0.0000 
     67 CA        -35.5500   25.2800  -34.2900 C.3       6 GLY6        0.0000 
     68 CA        -37.2200   25.9400  -33.1600 C.3       6 GLY6        0.0000 
     69 CA        -37.9200   27.2500  -32.9600 C.3       6 GLY6        0.0000 
     70 CA        -36.3200   26.2300  -32.0000 C.3       6 GLY6        0.0000 
     71 CA        -37.3000   25.5700  -31.0800 C.3       6 GLY6        0.0000 
     72 CA        -38.0000   26.8900  -30.8700 C.3       6 GLY6        0.0000 
     73 CA        -42.1600   34.7700  -29.6500 C.3       6 GLY6        0.0000 
     74 CA        -39.6700   27.5400  -29.7500 C.3       6 GLY6        0.0000 
     75 CA        -40.3700   28.8500  -29.5400 C.3       6 GLY6        0.0000 
     76 CA        -42.4500   32.8000  -28.9300 C.3       6 GLY6        0.0000 
     77 CA        -43.1400   34.1100  -28.7300 C.3       6 GLY6        0.0000 
     78 CA        -40.6500   26.8800  -28.8200 C.3       6 GLY6        0.0000 
     79 CA        -34.7300   25.2100  -31.0400 C.3       6 GLY6        0.0000 
     80 CA        -35.4300   26.5200  -30.8300 C.3       6 GLY6        0.0000 
     81 CA        -36.1200   27.8400  -30.6300 C.3       6 GLY6        0.0000 
     82 CA        -36.4100   25.8600  -29.9100 C.3       6 GLY6        0.0000 
     83 CA        -37.7900   28.4900  -29.5100 C.3       6 GLY6        0.0000 
     84 CA        -38.4900   29.8100  -29.3000 C.3       6 GLY6        0.0000 
     85 CA        -37.3900   25.2000  -28.9900 C.3       6 GLY6        0.0000 
     86 CA        -38.0800   26.5200  -28.7900 C.3       6 GLY6        0.0000 
     87 CA        -38.7700   27.8300  -28.5800 C.3       6 GLY6        0.0000 
     88 CA        -41.5500   33.0900  -27.7700 C.3       6 GLY6        0.0000 
     89 CA        -42.2400   34.4100  -27.5700 C.3       6 GLY6        0.0000 
     90 CA        -33.8300   25.5000  -29.8700 C.3       6 GLY6        0.0000 
     91 CA        -37.5900   30.1000  -28.1400 C.3       6 GLY6        0.0000 
     92 CA        -38.2800   31.4200  -27.9300 C.3       6 GLY6        0.0000 
     93 CA        -39.9600   32.0700  -26.8100 C.3       6 GLY6        0.0000 
     94 CA        -35.7100   31.0600  -27.9000 C.3       6 GLY6        0.0000 
     95 DU        -33.9600   24.2600  -33.3300 H         7 CUB7        0.0000 
     96 DU        -38.6900   28.2000  -30.6700 H         7 CUB7        0.0000 
     97 DU        -40.0800   30.8300  -30.2600 H         7 CUB7        0.0000 
     98 DU        -38.2000   31.7800  -30.0200 H         7 CUB7        0.0000 
     99 DU        -39.1800   31.1200  -29.1000 H         7 CUB7        0.0000 
    100 DU        -36.4000   32.3700  -27.6900 H         7 CUB7        0.0000 
@<TRIPOS>BOND
@<TRIPOS>SUBSTRUCTURE
     1 SER1        1 GROUP   
     2 ALA2        4 GROUP   
     3 ASP3       23 GROUP   
     4 LYS4       28 GROUP   
     5 PHE5       44 GROUP   
     6 GLY6       66 GROUP   
     7 CUB7       95 GROUP   
@<TRIPOS>SET

