#    Name: 5vlg_5_MGR
#    Modification time : Fri May 22 19:12:27 2020

@<TRIPOS>MOLECULE
5vlg_5_MGR
   50    52     1     0     0
SMALL
NO_CHARGES


@<TRIPOS>ATOM
      1 C1         11.4130   37.4250  -27.8290 C.2       1 MGR300      0.0000 
      2 C2         10.9330   38.2560  -29.0190 C.ar      1 MGR300      0.0000 
      3 C3         10.9740   37.7240  -30.2960 C.ar      1 MGR300      0.0000 
      4 C4         10.5410   38.4780  -31.3740 C.ar      1 MGR300      0.0000 
      5 C5         10.0700   39.7650  -31.1770 C.ar      1 MGR300      0.0000 
      6 C6         10.0330   40.3000  -29.9010 C.ar      1 MGR300      0.0000 
      7 C7         10.4610   39.5450  -28.8240 C.ar      1 MGR300      0.0000 
      8 C8         12.0980   38.1440  -26.6640 C.ar      1 MGR300      0.0000 
      9 C9         11.9190   37.7180  -25.3590 C.ar      1 MGR300      0.0000 
     10 C10        12.5460   38.3920  -24.3210 C.ar      1 MGR300      0.0000 
     11 C11        13.3420   39.4940  -24.5910 C.ar      1 MGR300      0.0000 
     12 C12        13.5170   39.9200  -25.8920 C.ar      1 MGR300      0.0000 
     13 C13        12.8980   39.2460  -26.9270 C.ar      1 MGR300      0.0000 
     14 C14        11.1250   36.1360  -27.7910 C.2       1 MGR300      0.0000 
     15 C15        12.1650   35.1070  -27.3530 C.2       1 MGR300      0.0000 
     16 C16        11.8090   33.6190  -27.3320 C.2       1 MGR300      0.0000 
     17 C17        10.4150   33.1490  -27.7520 C.2       1 MGR300      0.0000 
     18 C18         9.3790   34.1820  -28.1860 C.2       1 MGR300      0.0000 
     19 C19         9.7340   35.6660  -28.2080 C.2       1 MGR300      0.0000 
     20 C22        15.4320   40.4600  -23.6150 C.3       1 MGR300      0.0000 
     21 C23        13.2530   40.6920  -22.3750 C.3       1 MGR300      0.0000 
     22 C24        10.6920   31.0530  -26.7230 C.3       1 MGR300      0.0000 
     23 C25         9.3890   31.3290  -28.8430 C.3       1 MGR300      0.0000 
     24 N2         14.0050   40.2130  -23.5220 N.pl3     1 MGR300      0.0000 
     25 N3         10.1170   31.9310  -27.7330 N.pl3     1 MGR300      0.0000 
     26 H31        11.2900   36.8590  -30.4300 H         1 MGR300      0.0000 
     27 H41        10.5670   38.1190  -32.2320 H         1 MGR300      0.0000 
     28 H51         9.7800   40.2710  -31.9020 H         1 MGR300      0.0000 
     29 H61         9.7150   41.1640  -29.7670 H         1 MGR300      0.0000 
     30 H71        10.4360   39.9050  -27.9670 H         1 MGR300      0.0000 
     31 H91        11.3830   36.9800  -25.1780 H         1 MGR300      0.0000 
     32 H101       12.4280   38.1070  -23.4440 H         1 MGR300      0.0000 
     33 H121       14.0540   40.6570  -26.0730 H         1 MGR300      0.0000 
     34 H131       13.0130   39.5350  -27.8040 H         1 MGR300      0.0000 
     35 H151       13.0160   35.3840  -27.1010 H         1 MGR300      0.0000 
     36 H161       12.4450   32.9960  -27.0640 H         1 MGR300      0.0000 
     37 H181        8.5290   33.9050  -28.4420 H         1 MGR300      0.0000 
     38 H191        9.0980   36.2880  -28.4790 H         1 MGR300      0.0000 
     39 H221       15.8980   39.6190  -23.7450 H         1 MGR300      0.0000 
     40 H222       15.6110   41.0480  -24.3650 H         1 MGR300      0.0000 
     41 H223       15.7420   40.8780  -22.7960 H         1 MGR300      0.0000 
     42 H231       13.7670   40.5430  -21.5660 H         1 MGR300      0.0000 
     43 H232       12.4120   40.2130  -22.3160 H         1 MGR300      0.0000 
     44 H233       13.0780   41.6410  -22.4760 H         1 MGR300      0.0000 
     45 H241       10.3240   30.1610  -26.8230 H         1 MGR300      0.0000 
     46 H242       10.4800   31.3930  -25.8400 H         1 MGR300      0.0000 
     47 H243       11.6550   31.0200  -26.8340 H         1 MGR300      0.0000 
     48 H251        9.9210   30.6180  -29.2320 H         1 MGR300      0.0000 
     49 H252        8.5500   30.9640  -28.5190 H         1 MGR300      0.0000 
     50 H253        9.2090   32.0040  -29.5160 H         1 MGR300      0.0000 
@<TRIPOS>BOND
     1    1    2 1    
     2    1    8 1    
     3    1   14 2    
     4    2    3 ar   
     5    2    7 ar   
     6    3    4 ar   
     7    4    5 ar   
     8    3   26 1    
     9    5    6 ar   
    10    4   27 1    
    11    6    7 ar   
    12    5   28 1    
    13    8    9 ar   
    14    6   29 1    
    15    7   30 1    
    16    8   13 ar   
    17    9   10 ar   
    18   10   11 ar   
    19    9   31 1    
    20   11   12 ar   
    21   10   32 1    
    22   11   24 1    
    23   12   13 ar   
    24   14   15 1    
    25   12   33 1    
    26   13   34 1    
    27   14   19 1    
    28   15   16 2    
    29   16   17 1    
    30   15   35 1    
    31   17   18 1    
    32   16   36 1    
    33   17   25 2    
    34   18   19 2    
    35   20   24 1    
    36   18   37 1    
    37   19   38 1    
    38   20   39 1    
    39   20   40 1    
    40   20   41 1    
    41   21   24 1    
    42   21   42 1    
    43   21   43 1    
    44   21   44 1    
    45   22   25 1    
    46   22   45 1    
    47   22   46 1    
    48   22   47 1    
    49   23   25 1    
    50   23   48 1    
    51   23   49 1    
    52   23   50 1    
@<TRIPOS>SUBSTRUCTURE
     1 MGR300      1 GROUP   
@<TRIPOS>SET

