#    Name: 5vlg_3_MGR
#    Modification time : Fri May 22 19:12:18 2020

@<TRIPOS>MOLECULE
5vlg_3_MGR
   50    52     1     0     0
SMALL
NO_CHARGES


@<TRIPOS>ATOM
      1 C1        -48.1510   21.0380   -1.1400 C.2       1 MGR300      0.0000 
      2 C2        -47.0190   21.0290   -2.1740 C.ar      1 MGR300      0.0000 
      3 C3        -47.0290   21.9430   -3.2170 C.ar      1 MGR300      0.0000 
      4 C4        -46.0040   21.9470   -4.1510 C.ar      1 MGR300      0.0000 
      5 C5        -44.9670   21.0340   -4.0490 C.ar      1 MGR300      0.0000 
      6 C6        -44.9530   20.1190   -3.0100 C.ar      1 MGR300      0.0000 
      7 C7        -45.9770   20.1180   -2.0740 C.ar      1 MGR300      0.0000 
      8 C8        -48.6150   19.7340   -0.4820 C.ar      1 MGR300      0.0000 
      9 C9        -49.0220   19.7300    0.8430 C.ar      1 MGR300      0.0000 
     10 C10       -49.4470   18.5560    1.4420 C.ar      1 MGR300      0.0000 
     11 C11       -49.4620   17.3740    0.7210 C.ar      1 MGR300      0.0000 
     12 C12       -49.0540   17.3750   -0.6020 C.ar      1 MGR300      0.0000 
     13 C13       -48.6340   18.5510   -1.2050 C.ar      1 MGR300      0.0000 
     14 C14       -48.5980   22.2010   -0.6950 C.2       1 MGR300      0.0000 
     15 C15       -50.0840   22.4020   -0.4120 C.2       1 MGR300      0.0000 
     16 C16       -50.5990   23.7440    0.0970 C.2       1 MGR300      0.0000 
     17 C17       -49.6360   24.9070    0.3270 C.2       1 MGR300      0.0000 
     18 C18       -48.1470   24.7040    0.0480 C.2       1 MGR300      0.0000 
     19 C19       -47.6310   23.3590   -0.4620 C.2       1 MGR300      0.0000 
     20 C22       -50.4230   15.0570    0.5220 C.3       1 MGR300      0.0000 
     21 C23       -49.8390   15.9830    2.7900 C.3       1 MGR300      0.0000 
     22 C24       -51.3110   26.0580    1.5010 C.3       1 MGR300      0.0000 
     23 C25       -49.5320   27.2650    0.2370 C.3       1 MGR300      0.0000 
     24 N2        -49.9060   16.1380    1.3460 N.pl3     1 MGR300      0.0000 
     25 N3        -50.0660   26.0080    0.7480 N.pl3     1 MGR300      0.0000 
     26 H31       -47.7220   22.5590   -3.2880 H         1 MGR300      0.0000 
     27 H41       -46.0160   22.5600   -4.8500 H         1 MGR300      0.0000 
     28 H51       -44.2820   21.0350   -4.6780 H         1 MGR300      0.0000 
     29 H61       -44.2580   19.5060   -2.9390 H         1 MGR300      0.0000 
     30 H71       -45.9650   19.5040   -1.3760 H         1 MGR300      0.0000 
     31 H91       -49.0140   20.5220    1.3310 H         1 MGR300      0.0000 
     32 H101      -49.7180   18.5600    2.3320 H         1 MGR300      0.0000 
     33 H121      -49.0660   16.5840   -1.0900 H         1 MGR300      0.0000 
     34 H131      -48.3610   18.5460   -2.0940 H         1 MGR300      0.0000 
     35 H151      -50.6800   21.7010   -0.5530 H         1 MGR300      0.0000 
     36 H161      -51.5070   23.8570    0.2650 H         1 MGR300      0.0000 
     37 H181      -47.5520   25.4050    0.1860 H         1 MGR300      0.0000 
     38 H191      -46.7240   23.2470   -0.6320 H         1 MGR300      0.0000 
     39 H221      -50.7470   14.3430    1.0930 H         1 MGR300      0.0000 
     40 H222      -51.1510   15.3890   -0.0260 H         1 MGR300      0.0000 
     41 H223      -49.7160   14.7200   -0.0490 H         1 MGR300      0.0000 
     42 H231      -50.6190   16.3930    3.1950 H         1 MGR300      0.0000 
     43 H232      -49.8170   15.0390    3.0130 H         1 MGR300      0.0000 
     44 H233      -49.0370   16.4130    3.1240 H         1 MGR300      0.0000 
     45 H241      -51.2430   25.4790    2.2770 H         1 MGR300      0.0000 
     46 H242      -52.0420   25.7580    0.9380 H         1 MGR300      0.0000 
     47 H243      -51.4780   26.9680    1.7900 H         1 MGR300      0.0000 
     48 H251      -50.2470   27.7780   -0.1710 H         1 MGR300      0.0000 
     49 H252      -49.1460   27.7730    0.9670 H         1 MGR300      0.0000 
     50 H253      -48.8490   27.0800   -0.4260 H         1 MGR300      0.0000 
@<TRIPOS>BOND
     1    1    2 1    
     2    1    8 1    
     3    1   14 2    
     4    2    3 ar   
     5    2    7 ar   
     6    3    4 ar   
     7    4    5 ar   
     8    3   26 1    
     9    5    6 ar   
    10    4   27 1    
    11    6    7 ar   
    12    5   28 1    
    13    8    9 ar   
    14    6   29 1    
    15    7   30 1    
    16    8   13 ar   
    17    9   10 ar   
    18   10   11 ar   
    19    9   31 1    
    20   11   12 ar   
    21   10   32 1    
    22   11   24 1    
    23   12   13 ar   
    24   14   15 1    
    25   12   33 1    
    26   13   34 1    
    27   14   19 1    
    28   15   16 2    
    29   16   17 1    
    30   15   35 1    
    31   17   18 1    
    32   16   36 1    
    33   17   25 2    
    34   18   19 2    
    35   20   24 1    
    36   18   37 1    
    37   19   38 1    
    38   20   39 1    
    39   20   40 1    
    40   20   41 1    
    41   21   24 1    
    42   21   42 1    
    43   21   43 1    
    44   21   44 1    
    45   22   25 1    
    46   22   45 1    
    47   22   46 1    
    48   22   47 1    
    49   23   25 1    
    50   23   48 1    
    51   23   49 1    
    52   23   50 1    
@<TRIPOS>SUBSTRUCTURE
     1 MGR300      1 GROUP   
@<TRIPOS>SET

