#    Name: 5vlg_1_MGR
#    Modification time : Fri May 22 19:12:09 2020

@<TRIPOS>MOLECULE
5vlg_1_MGR
   50    52     1     0     0
SMALL
NO_CHARGES


@<TRIPOS>ATOM
      1 C1        -32.9580   22.7040  -51.1990 C.2       1 MGR300      0.0000 
      2 C2        -33.5040   23.4390  -52.4250 C.ar      1 MGR300      0.0000 
      3 C3        -33.5520   22.7920  -53.6510 C.ar      1 MGR300      0.0000 
      4 C4        -34.0520   23.4470  -54.7650 C.ar      1 MGR300      0.0000 
      5 C5        -34.5010   24.7540  -54.6560 C.ar      1 MGR300      0.0000 
      6 C6        -34.4500   25.4030  -53.4330 C.ar      1 MGR300      0.0000 
      7 C7        -33.9530   24.7460  -52.3180 C.ar      1 MGR300      0.0000 
      8 C8        -32.3840   23.4950  -50.0230 C.ar      1 MGR300      0.0000 
      9 C9        -32.8480   23.2580  -48.7390 C.ar      1 MGR300      0.0000 
     10 C10       -32.3280   23.9720  -47.6680 C.ar      1 MGR300      0.0000 
     11 C11       -31.3450   24.9270  -47.8790 C.ar      1 MGR300      0.0000 
     12 C12       -30.8820   25.1600  -49.1640 C.ar      1 MGR300      0.0000 
     13 C13       -31.3990   24.4460  -50.2360 C.ar      1 MGR300      0.0000 
     14 C14       -33.2360   21.4220  -51.0400 C.2       1 MGR300      0.0000 
     15 C15       -32.1570   20.4570  -50.5570 C.2       1 MGR300      0.0000 
     16 C16       -32.4740   18.9750  -50.3740 C.2       1 MGR300      0.0000 
     17 C17       -33.8740   18.4390  -50.6700 C.2       1 MGR300      0.0000 
     18 C18       -34.9520   19.4110  -51.1470 C.2       1 MGR300      0.0000 
     19 C19       -34.6360   20.8940  -51.3330 C.2       1 MGR300      0.0000 
     20 C22       -29.3690   26.0040  -46.7710 C.3       1 MGR300      0.0000 
     21 C23       -31.6130   26.1380  -45.6620 C.3       1 MGR300      0.0000 
     22 C24       -33.2850   16.4030  -49.6520 C.3       1 MGR300      0.0000 
     23 C25       -35.0660   16.5250  -51.3870 C.3       1 MGR300      0.0000 
     24 N2        -30.7860   25.6840  -46.7700 N.pl3     1 MGR300      0.0000 
     25 N3        -34.1290   17.2200  -50.5140 N.pl3     1 MGR300      0.0000 
     26 H31       -33.2540   21.9140  -53.7240 H         1 MGR300      0.0000 
     27 H41       -34.0830   23.0120  -55.5860 H         1 MGR300      0.0000 
     28 H51       -34.8320   25.1960  -55.4050 H         1 MGR300      0.0000 
     29 H61       -34.7510   26.2800  -53.3600 H         1 MGR300      0.0000 
     30 H71       -33.9220   25.1820  -51.4970 H         1 MGR300      0.0000 
     31 H91       -33.5080   22.6190  -48.5940 H         1 MGR300      0.0000 
     32 H101      -32.6420   23.8110  -46.8080 H         1 MGR300      0.0000 
     33 H121      -30.2220   25.7990  -49.3090 H         1 MGR300      0.0000 
     34 H131      -31.0860   24.6080  -51.0970 H         1 MGR300      0.0000 
     35 H151      -31.3010   20.7730  -50.3770 H         1 MGR300      0.0000 
     36 H161      -31.8090   18.3930  -50.0810 H         1 MGR300      0.0000 
     37 H181      -35.8070   19.0960  -51.3300 H         1 MGR300      0.0000 
     38 H191      -35.2990   21.4760  -51.6270 H         1 MGR300      0.0000 
     39 H221      -29.1720   26.5990  -47.5110 H         1 MGR300      0.0000 
     40 H222      -29.1360   26.4390  -45.9360 H         1 MGR300      0.0000 
     41 H223      -28.8530   25.1880  -46.8650 H         1 MGR300      0.0000 
     42 H231      -31.8930   27.0530  -45.8210 H         1 MGR300      0.0000 
     43 H232      -32.3960   25.5690  -45.5890 H         1 MGR300      0.0000 
     44 H233      -31.1030   26.0930  -44.8390 H         1 MGR300      0.0000 
     45 H241      -33.6460   15.5030  -49.6060 H         1 MGR300      0.0000 
     46 H242      -32.3860   16.3730  -50.0150 H         1 MGR300      0.0000 
     47 H243      -33.2630   16.7880  -48.7620 H         1 MGR300      0.0000 
     48 H251      -34.6100   15.7970  -51.8360 H         1 MGR300      0.0000 
     49 H252      -35.4130   17.1450  -52.0470 H         1 MGR300      0.0000 
     50 H253      -35.7990   16.1710  -50.8590 H         1 MGR300      0.0000 
@<TRIPOS>BOND
     1    1    2 1    
     2    1    8 1    
     3    1   14 2    
     4    2    3 ar   
     5    2    7 ar   
     6    3    4 ar   
     7    4    5 ar   
     8    3   26 1    
     9    5    6 ar   
    10    4   27 1    
    11    6    7 ar   
    12    5   28 1    
    13    8    9 ar   
    14    6   29 1    
    15    7   30 1    
    16    8   13 ar   
    17    9   10 ar   
    18   10   11 ar   
    19    9   31 1    
    20   11   12 ar   
    21   10   32 1    
    22   11   24 1    
    23   12   13 ar   
    24   14   15 1    
    25   12   33 1    
    26   13   34 1    
    27   14   19 1    
    28   15   16 2    
    29   16   17 1    
    30   15   35 1    
    31   17   18 1    
    32   16   36 1    
    33   17   25 2    
    34   18   19 2    
    35   20   24 1    
    36   18   37 1    
    37   19   38 1    
    38   20   39 1    
    39   20   40 1    
    40   20   41 1    
    41   21   24 1    
    42   21   42 1    
    43   21   43 1    
    44   21   44 1    
    45   22   25 1    
    46   22   45 1    
    47   22   46 1    
    48   22   47 1    
    49   23   25 1    
    50   23   48 1    
    51   23   49 1    
    52   23   50 1    
@<TRIPOS>SUBSTRUCTURE
     1 MGR300      1 GROUP   
@<TRIPOS>SET

