#    Name: 5vlg_6_MGR
#    Modification time : Fri May 22 19:12:32 2020

@<TRIPOS>MOLECULE
5vlg_6_MGR
   50    52     1     0     0
SMALL
NO_CHARGES


@<TRIPOS>ATOM
      1 C1          7.3170   41.2040   -6.8700 C.2       1 MGR300      0.0000 
      2 C2          6.3930   40.3600   -5.9930 C.ar      1 MGR300      0.0000 
      3 C3          5.8910   40.8840   -4.8140 C.ar      1 MGR300      0.0000 
      4 C4          5.0530   40.1230   -4.0160 C.ar      1 MGR300      0.0000 
      5 C5          4.7190   38.8350   -4.3970 C.ar      1 MGR300      0.0000 
      6 C6          5.2230   38.3080   -5.5760 C.ar      1 MGR300      0.0000 
      7 C7          6.0590   39.0710   -6.3740 C.ar      1 MGR300      0.0000 
      8 C8          8.3960   40.4980   -7.6910 C.ar      1 MGR300      0.0000 
      9 C9          8.6310   40.8680   -9.0030 C.ar      1 MGR300      0.0000 
     10 C10         9.6110   40.2210   -9.7400 C.ar      1 MGR300      0.0000 
     11 C11        10.3550   39.2000   -9.1700 C.ar      1 MGR300      0.0000 
     12 C12        10.1170   38.8290   -7.8590 C.ar      1 MGR300      0.0000 
     13 C13         9.1390   39.4770   -7.1210 C.ar      1 MGR300      0.0000 
     14 C14         7.0350   42.4790   -7.0750 C.2       1 MGR300      0.0000 
     15 C15         8.1490   43.5220   -7.1020 C.2       1 MGR300      0.0000 
     16 C16         7.8220   44.9970   -7.3350 C.2       1 MGR300      0.0000 
     17 C17         6.3780   45.4490   -7.5430 C.2       1 MGR300      0.0000 
     18 C18         5.2650   44.4000   -7.5230 C.2       1 MGR300      0.0000 
     19 C19         5.5900   42.9240   -7.2870 C.2       1 MGR300      0.0000 
     20 C22        12.5070   37.9070   -9.2520 C.3       1 MGR300      0.0000 
     21 C23        11.2890   38.4340  -11.3890 C.3       1 MGR300      0.0000 
     22 C24         7.1210   47.5300   -8.3480 C.3       1 MGR300      0.0000 
     23 C25         4.8820   47.2700   -7.2760 C.3       1 MGR300      0.0000 
     24 N2         11.3820   38.5160   -9.9390 N.pl3     1 MGR300      0.0000 
     25 N3          6.1210   46.6620   -7.7420 N.pl3     1 MGR300      0.0000 
     26 H31         6.1150   41.7500   -4.5580 H         1 MGR300      0.0000 
     27 H41         4.7160   40.4770   -3.2250 H         1 MGR300      0.0000 
     28 H51         4.1570   38.3230   -3.8610 H         1 MGR300      0.0000 
     29 H61         4.9970   37.4430   -5.8320 H         1 MGR300      0.0000 
     30 H71         6.3960   38.7170   -7.1650 H         1 MGR300      0.0000 
     31 H91         8.1350   41.5530   -9.3890 H         1 MGR300      0.0000 
     32 H101        9.7690   40.4710  -10.6220 H         1 MGR300      0.0000 
     33 H121       10.6140   38.1450   -7.4720 H         1 MGR300      0.0000 
     34 H131        8.9810   39.2250   -6.2390 H         1 MGR300      0.0000 
     35 H151        9.0310   43.2600   -6.9720 H         1 MGR300      0.0000 
     36 H161        8.5080   45.6240   -7.3490 H         1 MGR300      0.0000 
     37 H181        4.3820   44.6630   -7.6500 H         1 MGR300      0.0000 
     38 H191        4.9050   42.2960   -7.2720 H         1 MGR300      0.0000 
     39 H221       12.1900   37.1800   -8.6940 H         1 MGR300      0.0000 
     40 H222       13.1360   37.5640   -9.9050 H         1 MGR300      0.0000 
     41 H223       12.9450   38.5720   -8.6990 H         1 MGR300      0.0000 
     42 H231       10.3560   38.4420  -11.6540 H         1 MGR300      0.0000 
     43 H232       11.7050   37.6130  -11.6940 H         1 MGR300      0.0000 
     44 H233       11.7430   39.1940  -11.7850 H         1 MGR300      0.0000 
     45 H241        7.8970   47.5840   -7.7690 H         1 MGR300      0.0000 
     46 H242        7.3840   47.1690   -9.2090 H         1 MGR300      0.0000 
     47 H243        6.7470   48.4170   -8.4710 H         1 MGR300      0.0000 
     48 H251        4.3450   46.6030   -6.8220 H         1 MGR300      0.0000 
     49 H252        4.3890   47.6200   -8.0350 H         1 MGR300      0.0000 
     50 H253        5.0870   47.9930   -6.6630 H         1 MGR300      0.0000 
@<TRIPOS>BOND
     1    1    2 1    
     2    1    8 1    
     3    1   14 2    
     4    2    3 ar   
     5    2    7 ar   
     6    3    4 ar   
     7    4    5 ar   
     8    3   26 1    
     9    5    6 ar   
    10    4   27 1    
    11    6    7 ar   
    12    5   28 1    
    13    8    9 ar   
    14    6   29 1    
    15    7   30 1    
    16    8   13 ar   
    17    9   10 ar   
    18   10   11 ar   
    19    9   31 1    
    20   11   12 ar   
    21   10   32 1    
    22   11   24 1    
    23   12   13 ar   
    24   14   15 1    
    25   12   33 1    
    26   13   34 1    
    27   14   19 1    
    28   15   16 2    
    29   16   17 1    
    30   15   35 1    
    31   17   18 1    
    32   16   36 1    
    33   17   25 2    
    34   18   19 2    
    35   20   24 1    
    36   18   37 1    
    37   19   38 1    
    38   20   39 1    
    39   20   40 1    
    40   20   41 1    
    41   21   24 1    
    42   21   42 1    
    43   21   43 1    
    44   21   44 1    
    45   22   25 1    
    46   22   45 1    
    47   22   46 1    
    48   22   47 1    
    49   23   25 1    
    50   23   48 1    
    51   23   49 1    
    52   23   50 1    
@<TRIPOS>SUBSTRUCTURE
     1 MGR300      1 GROUP   
@<TRIPOS>SET

