#    Name: 5vlg_4_MGR
#    Modification time : Fri May 22 19:12:23 2020

@<TRIPOS>MOLECULE
5vlg_4_MGR
   50    52     1     0     0
SMALL
NO_CHARGES


@<TRIPOS>ATOM
      1 C1        -47.5280   12.4210   18.7630 C.2       1 MGR300      0.0000 
      2 C2        -47.5480   13.2140   20.0710 C.ar      1 MGR300      0.0000 
      3 C3        -47.1490   12.6250   21.2610 C.ar      1 MGR300      0.0000 
      4 C4        -47.1740   13.3560   22.4380 C.ar      1 MGR300      0.0000 
      5 C5        -47.6020   14.6740   22.4280 C.ar      1 MGR300      0.0000 
      6 C6        -48.0070   15.2610   21.2430 C.ar      1 MGR300      0.0000 
      7 C7        -47.9790   14.5320   20.0660 C.ar      1 MGR300      0.0000 
      8 C8        -48.5950   12.7480   17.7170 C.ar      1 MGR300      0.0000 
      9 C9        -48.2560   12.9270   16.3890 C.ar      1 MGR300      0.0000 
     10 C10       -49.2380   13.2280   15.4570 C.ar      1 MGR300      0.0000 
     11 C11       -50.5620   13.3590   15.8500 C.ar      1 MGR300      0.0000 
     12 C12       -50.8960   13.1830   17.1820 C.ar      1 MGR300      0.0000 
     13 C13       -49.9160   12.8800   18.1120 C.ar      1 MGR300      0.0000 
     14 C14       -46.5080   11.6230   18.4820 C.2       1 MGR300      0.0000 
     15 C15       -46.7210   10.3320   17.6930 C.2       1 MGR300      0.0000 
     16 C16       -45.5380    9.4150   17.3760 C.2       1 MGR300      0.0000 
     17 C17       -44.1290    9.7740   17.8450 C.2       1 MGR300      0.0000 
     18 C18       -43.9170   11.0680   18.6310 C.2       1 MGR300      0.0000 
     19 C19       -45.0990   11.9830   18.9480 C.2       1 MGR300      0.0000 
     20 C22       -52.9920   13.7190   15.3010 C.3       1 MGR300      0.0000 
     21 C23       -51.2520   13.9410   13.4910 C.3       1 MGR300      0.0000 
     22 C24       -43.2020    8.1560   16.4140 C.3       1 MGR300      0.0000 
     23 C25       -42.1200    8.7660   18.5750 C.3       1 MGR300      0.0000 
     24 N2        -51.6000   13.6750   14.8800 N.pl3     1 MGR300      0.0000 
     25 N3        -43.1590    9.0210   17.5830 N.pl3     1 MGR300      0.0000 
     26 H31       -46.8600   11.7410   21.2680 H         1 MGR300      0.0000 
     27 H41       -46.9040   12.9610   23.2350 H         1 MGR300      0.0000 
     28 H51       -47.6200   15.1620   23.2190 H         1 MGR300      0.0000 
     29 H61       -48.2930   16.1460   21.2360 H         1 MGR300      0.0000 
     30 H71       -48.2500   14.9280   19.2690 H         1 MGR300      0.0000 
     31 H91       -47.3700   12.8410   16.1190 H         1 MGR300      0.0000 
     32 H101      -49.0080   13.3460   14.5640 H         1 MGR300      0.0000 
     33 H121      -51.7820   13.2670   17.4530 H         1 MGR300      0.0000 
     34 H131      -50.1450   12.7640   19.0060 H         1 MGR300      0.0000 
     35 H151      -47.5750   10.1020   17.4050 H         1 MGR300      0.0000 
     36 H161      -45.6790    8.6310   16.8960 H         1 MGR300      0.0000 
     37 H181      -43.0640   11.2970   18.9210 H         1 MGR300      0.0000 
     38 H191      -44.9580   12.7660   19.4290 H         1 MGR300      0.0000 
     39 H221      -53.5590   13.8630   14.5270 H         1 MGR300      0.0000 
     40 H222      -53.2290   12.8780   15.7230 H         1 MGR300      0.0000 
     41 H223      -53.1160   14.4440   15.9330 H         1 MGR300      0.0000 
     42 H231      -50.5100   14.5640   13.4570 H         1 MGR300      0.0000 
     43 H232      -52.0170   14.3250   13.0340 H         1 MGR300      0.0000 
     44 H233      -50.9990   13.1120   13.0560 H         1 MGR300      0.0000 
     45 H241      -43.9280    7.5200   16.5080 H         1 MGR300      0.0000 
     46 H242      -43.3450    8.6940   15.6190 H         1 MGR300      0.0000 
     47 H243      -42.3610    7.6790   16.3330 H         1 MGR300      0.0000 
     48 H251      -41.2630    9.0590   18.2290 H         1 MGR300      0.0000 
     49 H252      -42.3240    9.2530   19.3890 H         1 MGR300      0.0000 
     50 H253      -42.0830    7.8160   18.7670 H         1 MGR300      0.0000 
@<TRIPOS>BOND
     1    1    2 1    
     2    1    8 1    
     3    1   14 2    
     4    2    3 ar   
     5    2    7 ar   
     6    3    4 ar   
     7    4    5 ar   
     8    3   26 1    
     9    5    6 ar   
    10    4   27 1    
    11    6    7 ar   
    12    5   28 1    
    13    8    9 ar   
    14    6   29 1    
    15    7   30 1    
    16    8   13 ar   
    17    9   10 ar   
    18   10   11 ar   
    19    9   31 1    
    20   11   12 ar   
    21   10   32 1    
    22   11   24 1    
    23   12   13 ar   
    24   14   15 1    
    25   12   33 1    
    26   13   34 1    
    27   14   19 1    
    28   15   16 2    
    29   16   17 1    
    30   15   35 1    
    31   17   18 1    
    32   16   36 1    
    33   17   25 2    
    34   18   19 2    
    35   20   24 1    
    36   18   37 1    
    37   19   38 1    
    38   20   39 1    
    39   20   40 1    
    40   20   41 1    
    41   21   24 1    
    42   21   42 1    
    43   21   43 1    
    44   21   44 1    
    45   22   25 1    
    46   22   45 1    
    47   22   46 1    
    48   22   47 1    
    49   23   25 1    
    50   23   48 1    
    51   23   49 1    
    52   23   50 1    
@<TRIPOS>SUBSTRUCTURE
     1 MGR300      1 GROUP   
@<TRIPOS>SET

