#    Name: 5yz3_5_ACP
#    Modification time : Fri May 22 19:23:41 2020

@<TRIPOS>MOLECULE
5yz3_5_ACP
   31    33     1     0     1
SMALL
NO_CHARGES


@<TRIPOS>ATOM
      1 PG         -8.3130  -50.2210   93.8670 P.3       1 ACP401      0.0000 
      2 O1G        -9.1000  -50.7540   92.5860 O.co2     1 ACP401      0.0000 
      3 O2G        -6.9170  -50.6120   93.7770 O.co2     1 ACP401      0.0000 
      4 O3G        -8.3710  -48.6370   93.8780 O.co2     1 ACP401      0.0000 
      5 PB        -10.3810  -49.8520   95.9580 P.3       1 ACP401      0.0000 
      6 O1B       -11.7590  -50.2020   95.2480 O.co2     1 ACP401      0.0000 
      7 O2B        -9.9720  -48.5260   95.5490 O.co2     1 ACP401      0.0000 
      8 C3B        -9.0530  -50.9350   95.3640 C.3       1 ACP401      0.0000 
      9 PA        -10.3200  -51.0790   98.4200 P.3       1 ACP401      0.0000 
     10 O1A        -9.0970  -51.7520   97.9420 O.co2     1 ACP401      0.0000 
     11 O2A       -11.5800  -51.8280   98.5180 O.co2     1 ACP401      0.0000 
     12 O3A       -10.5790  -49.8220   97.5190 O.3       1 ACP401      0.0000 
     13 O5'       -10.0480  -50.4530   99.8480 O.3       1 ACP401      0.0000 
     14 C5'        -9.7400  -49.0760   99.9720 C.3       1 ACP401      0.0000 
     15 C4'        -8.7850  -48.8340  101.1170 C.3       1 ACP401      0.0000 
     16 O4'        -9.3310  -49.4100  102.2790 O.3       1 ACP401      0.0000 
     17 C3'        -7.4900  -49.5530  100.9000 C.3       1 ACP401      0.0000 
     18 O3'        -6.5120  -48.6860  100.3540 O.3       1 ACP401      0.0000 
     19 C2'        -7.0880  -49.9750  102.2750 C.3       1 ACP401      0.0000 
     20 O2'        -6.4000  -48.8830  102.8250 O.3       1 ACP401      0.0000 
     21 C1'        -8.3320  -49.9950  103.0760 C.3       1 ACP401      0.0000 
     22 N9         -8.7960  -51.3330  103.4140 N.pl3     1 ACP401      0.0000 
     23 C8         -9.5810  -52.1020  102.6890 C.2       1 ACP401      0.0000 
     24 N7         -9.8450  -53.2380  103.3330 N.2       1 ACP401      0.0000 
     25 C5         -9.2230  -53.1920  104.4950 C.ar      1 ACP401      0.0000 
     26 C6         -9.0860  -54.0680  105.6560 C.ar      1 ACP401      0.0000 
     27 N6         -9.6890  -55.2660  105.7040 N.pl3     1 ACP401      0.0000 
     28 N1         -8.3480  -53.6230  106.6710 N.ar      1 ACP401      0.0000 
     29 C2         -7.7450  -52.4450  106.6370 C.ar      1 ACP401      0.0000 
     30 N3         -7.8290  -51.6120  105.6120 N.ar      1 ACP401      0.0000 
     31 C4         -8.5430  -51.9270  104.5410 C.ar      1 ACP401      0.0000 
@<TRIPOS>BOND
     1    1    2 ar   
     2    1    3 ar   
     3    1    4 ar   
     4    1    8 1    
     5    5    6 ar   
     6    5    7 ar   
     7    5    8 1    
     8    5   12 1    
     9    9   10 ar   
    10    9   11 ar   
    11    9   12 1    
    12    9   13 1    
    13   13   14 1    
    14   14   15 1    
    15   15   16 1    
    16   15   17 1    
    17   16   21 1    
    18   17   18 1    
    19   17   19 1    
    20   19   20 1    
    21   19   21 1    
    22   21   22 1    
    23   22   23 1    
    24   22   31 1    
    25   23   24 2    
    26   24   25 1    
    27   25   26 ar   
    28   25   31 ar   
    29   26   27 1    
    30   26   28 ar   
    31   28   29 ar   
    32   29   30 ar   
    33   30   31 ar   
@<TRIPOS>SUBSTRUCTURE
     1 ACP401      1 GROUP   
@<TRIPOS>SET
ATOM$ORANGE STATIC     ATOMS   COLORGROUP SYSTEM 
22 8 8 14 14 15 15 17 17 19 19 21 21 23 23 25 25 26 \
26 29 29 31 31 

