#    Name: 5yz3_2_GDP_CAVITY_N1_8
#    Modification time : Fri May 22 19:23:36 2020

@<TRIPOS>MOLECULE
5yz3_2_GDP_CAVITY_N1_8
   33     0     6     0     0
SMALL
NO_CHARGES


@<TRIPOS>ATOM
      1 OG         -7.6400  -46.0500   15.8600 O.3       1 SER1        0.0000 
      2 OG         -6.0800  -45.8400   17.2800 O.3       1 SER1        0.0000 
      3 N          -8.6200  -50.0200   11.2100 N.am      2 ALA2        0.0000 
      4 N          -9.5900  -48.3000   10.4400 N.am      2 ALA2        0.0000 
      5 N          -8.0400  -48.0800   11.8600 N.am      2 ALA2        0.0000 
      6 N          -8.1700  -43.0800   14.4000 N.am      2 ALA2        0.0000 
      7 N          -3.6800  -48.0100   18.1500 N.am      2 ALA2        0.0000 
      8 N          -7.0600  -44.1200   16.5100 N.am      2 ALA2        0.0000 
      9 N          -3.5500  -47.3300   19.4800 N.am      2 ALA2        0.0000 
     10 O          -5.5000  -43.9000   17.9300 O.2       2 ALA2        0.0000 
     11 N          -5.0600  -42.6400   17.2500 N.am      2 ALA2        0.0000 
     12 N          -4.9200  -41.9700   18.5800 N.am      2 ALA2        0.0000 
     13 NZ         -8.6200  -44.3400   15.0800 N.4       3 LYS4        0.0000 
     14 NZ         -7.1900  -44.8000   15.1800 N.4       3 LYS4        0.0000 
     15 CZ         -7.9000  -47.4100   13.1900 C.ar      4 PHE5        0.0000 
     16 CZ         -6.4800  -47.8600   13.2800 C.ar      4 PHE5        0.0000 
     17 CZ         -7.7700  -46.7300   14.5300 C.ar      4 PHE5        0.0000 
     18 CZ         -6.3500  -47.1900   14.6200 C.ar      4 PHE5        0.0000 
     19 CZ         -5.2400  -48.2300   16.7200 C.ar      4 PHE5        0.0000 
     20 CZ         -6.2200  -46.5100   15.9500 C.ar      4 PHE5        0.0000 
     21 CZ         -5.1100  -47.5500   18.0600 C.ar      4 PHE5        0.0000 
     22 CA         -4.9700  -46.8800   19.3900 C.3       5 GLY6        0.0000 
     23 CA         -5.9500  -45.1600   18.6100 C.3       5 GLY6        0.0000 
     24 CA         -4.5300  -45.6200   18.7100 C.3       5 GLY6        0.0000 
     25 CA         -3.4200  -46.6600   20.8100 C.3       5 GLY6        0.0000 
     26 CA         -4.3900  -44.9400   20.0400 C.3       5 GLY6        0.0000 
     27 DU         -9.4600  -47.6300   11.7700 H         6 CUB7        0.0000 
     28 DU         -7.3300  -45.4700   13.8400 H         6 CUB7        0.0000 
     29 DU         -4.7900  -46.9700   16.0400 H         6 CUB7        0.0000 
     30 DU         -5.7700  -45.2500   15.2700 H         6 CUB7        0.0000 
     31 DU         -4.6600  -46.2900   17.3700 H         6 CUB7        0.0000 
     32 DU         -5.6400  -44.5800   16.6000 H         6 CUB7        0.0000 
     33 DU         -4.0800  -44.3600   18.0200 H         6 CUB7        0.0000 
@<TRIPOS>BOND
@<TRIPOS>SUBSTRUCTURE
     1 SER1        1 GROUP   
     2 ALA2        3 GROUP   
     3 LYS4       13 GROUP   
     4 PHE5       15 GROUP   
     5 GLY6       22 GROUP   
     6 CUB7       27 GROUP   
@<TRIPOS>SET

