#    Name: 5yz3_2_GDP_CAVITY_N1_12
#    Modification time : Fri May 22 19:23:36 2020

@<TRIPOS>MOLECULE
5yz3_2_GDP_CAVITY_N1_12
  105     0     6     0     0
SMALL
NO_CHARGES


@<TRIPOS>ATOM
      1 OG         -7.6400  -46.0500   15.8600 O.3       1 SER1        0.0000 
      2 OG         -6.0800  -45.8400   17.2800 O.3       1 SER1        0.0000 
      3 OG         -0.5200  -42.6600   20.1900 O.3       1 SER1        0.0000 
      4 OG         -0.3800  -41.9900   21.5200 O.3       1 SER1        0.0000 
      5 N          -8.6200  -50.0200   11.2100 N.am      2 ALA2        0.0000 
      6 N          -9.5900  -48.3000   10.4400 N.am      2 ALA2        0.0000 
      7 N          -8.0400  -48.0800   11.8600 N.am      2 ALA2        0.0000 
      8 N          -7.5900  -46.8200   11.1800 N.am      2 ALA2        0.0000 
      9 N          -5.7200  -46.0200   10.5900 N.am      2 ALA2        0.0000 
     10 N          -5.5800  -45.3500   11.9200 N.am      2 ALA2        0.0000 
     11 N          -5.1400  -44.0900   11.2400 N.am      2 ALA2        0.0000 
     12 N          -3.7100  -44.5500   11.3300 N.am      2 ALA2        0.0000 
     13 N          -6.8800  -44.2100   13.1600 N.am      2 ALA2        0.0000 
     14 N          -5.4500  -44.6700   13.2500 N.am      2 ALA2        0.0000 
     15 N          -5.0000  -43.4100   12.5700 N.am      2 ALA2        0.0000 
     16 N          -3.5800  -43.8700   12.6600 N.am      2 ALA2        0.0000 
     17 N          -1.9400  -47.8800   16.2200 N.am      2 ALA2        0.0000 
     18 N          -8.1700  -43.0800   14.4000 N.am      2 ALA2        0.0000 
     19 N          -3.6800  -48.0100   18.1500 N.am      2 ALA2        0.0000 
     20 N          -3.2300  -46.7500   17.4600 N.am      2 ALA2        0.0000 
     21 N          -7.0600  -44.1200   16.5100 N.am      2 ALA2        0.0000 
     22 N          -1.3600  -45.9500   16.8700 N.am      2 ALA2        0.0000 
     23 N          -0.9100  -44.6900   16.1900 N.am      2 ALA2        0.0000 
     24 O          -1.8900  -42.9800   15.4200 O.2       2 ALA2        0.0000 
     25 N          -3.5500  -47.3300   19.4800 N.am      2 ALA2        0.0000 
     26 N          -3.1000  -46.0700   18.8000 N.am      2 ALA2        0.0000 
     27 O          -5.5000  -43.9000   17.9300 O.2       2 ALA2        0.0000 
     28 N          -1.2300  -45.2700   18.2000 N.am      2 ALA2        0.0000 
     29 N          -5.0600  -42.6400   17.2500 N.am      2 ALA2        0.0000 
     30 O          -2.2000  -43.5600   17.4300 O.2       2 ALA2        0.0000 
     31 N          -0.7800  -44.0200   17.5200 N.am      2 ALA2        0.0000 
     32 O          -3.1800  -41.8400   16.6600 O.2       2 ALA2        0.0000 
     33 O          -1.7600  -42.3000   16.7500 O.2       2 ALA2        0.0000 
     34 N          -2.5200  -44.1400   19.4500 N.am      2 ALA2        0.0000 
     35 N          -4.9200  -41.9700   18.5800 N.am      2 ALA2        0.0000 
     36 N          -3.5000  -42.4200   18.6700 N.am      2 ALA2        0.0000 
     37 N          -0.6500  -43.3400   18.8500 N.am      2 ALA2        0.0000 
     38 O          -1.6300  -41.6200   18.0800 O.2       2 ALA2        0.0000 
     39 N          -2.3900  -43.4600   20.7800 N.am      2 ALA2        0.0000 
     40 N          -1.9400  -42.2100   20.1000 N.am      2 ALA2        0.0000 
     41 N          -2.9200  -40.4900   19.3200 N.am      2 ALA2        0.0000 
     42 O          -1.4900  -40.9500   19.4100 O.2       2 ALA2        0.0000 
     43 N          -1.8100  -41.5300   21.4300 N.am      2 ALA2        0.0000 
     44 N          -2.7900  -39.8100   20.6500 N.am      2 ALA2        0.0000 
     45 NZ         -8.6200  -44.3400   15.0800 N.4       3 LYS4        0.0000 
     46 NZ         -7.1900  -44.8000   15.1800 N.4       3 LYS4        0.0000 
     47 CZ         -7.9000  -47.4100   13.1900 C.ar      4 PHE5        0.0000 
     48 CZ         -6.4800  -47.8600   13.2800 C.ar      4 PHE5        0.0000 
     49 CZ         -7.7700  -46.7300   14.5300 C.ar      4 PHE5        0.0000 
     50 CZ         -6.3500  -47.1900   14.6200 C.ar      4 PHE5        0.0000 
     51 CZ         -5.2400  -48.2300   16.7200 C.ar      4 PHE5        0.0000 
     52 CZ         -6.2200  -46.5100   15.9500 C.ar      4 PHE5        0.0000 
     53 CZ         -5.1100  -47.5500   18.0600 C.ar      4 PHE5        0.0000 
     54 CZ         -2.9700  -45.4000   20.1300 C.ar      4 PHE5        0.0000 
     55 CZ         -1.5400  -45.8600   20.2200 C.ar      4 PHE5        0.0000 
     56 CZ         -1.0900  -44.6000   19.5400 C.ar      4 PHE5        0.0000 
     57 CZ         -2.8400  -44.7200   21.4600 C.ar      4 PHE5        0.0000 
     58 CZ         -0.9600  -43.9200   20.8700 C.ar      4 PHE5        0.0000 
     59 CA         -9.0100  -46.3700   11.0900 C.3       5 GLY6        0.0000 
     60 CA         -6.1600  -47.2800   11.2700 C.3       5 GLY6        0.0000 
     61 CA         -7.1400  -45.5700   10.5000 C.3       5 GLY6        0.0000 
     62 CA         -4.6100  -47.0600   12.6900 C.3       5 GLY6        0.0000 
     63 CA         -7.0100  -44.8900   11.8300 C.3       5 GLY6        0.0000 
     64 CA         -4.1600  -45.8100   12.0100 C.3       5 GLY6        0.0000 
     65 CA         -2.7300  -46.2600   12.1000 C.3       5 GLY6        0.0000 
     66 CA         -3.0500  -46.8400   14.1200 C.3       5 GLY6        0.0000 
     67 CA         -1.6200  -47.3000   14.2100 C.3       5 GLY6        0.0000 
     68 CA         -8.3000  -43.7600   13.0700 C.3       5 GLY6        0.0000 
     69 CA         -2.6000  -45.5900   13.4300 C.3       5 GLY6        0.0000 
     70 CA         -1.4900  -46.6300   15.5400 C.3       5 GLY6        0.0000 
     71 CA         -2.4700  -44.9100   14.7700 C.3       5 GLY6        0.0000 
     72 CA         -1.0400  -45.3700   14.8600 C.3       5 GLY6        0.0000 
     73 CA         -3.4500  -43.1900   13.9900 C.3       5 GLY6        0.0000 
     74 CA         -2.0200  -43.6500   14.0800 C.3       5 GLY6        0.0000 
     75 CA         -4.9700  -46.8800   19.3900 C.3       5 GLY6        0.0000 
     76 CA         -5.9500  -45.1600   18.6100 C.3       5 GLY6        0.0000 
     77 CA         -4.5300  -45.6200   18.7100 C.3       5 GLY6        0.0000 
     78 CA         -3.4200  -46.6600   20.8100 C.3       5 GLY6        0.0000 
     79 CA         -4.3900  -44.9400   20.0400 C.3       5 GLY6        0.0000 
     80 DU         -9.4600  -47.6300   11.7700 H         6 CUB7        0.0000 
     81 DU         -7.4600  -46.1500   12.5100 H         6 CUB7        0.0000 
     82 DU         -6.0300  -46.6100   12.6000 H         6 CUB7        0.0000 
     83 DU         -7.3300  -45.4700   13.8400 H         6 CUB7        0.0000 
     84 DU         -5.9000  -45.9300   13.9300 H         6 CUB7        0.0000 
     85 DU         -4.4700  -46.3900   14.0300 H         6 CUB7        0.0000 
     86 DU         -4.0300  -45.1300   13.3400 H         6 CUB7        0.0000 
     87 DU         -4.7900  -46.9700   16.0400 H         6 CUB7        0.0000 
     88 DU         -3.3600  -47.4300   16.1300 H         6 CUB7        0.0000 
     89 DU         -5.7700  -45.2500   15.2700 H         6 CUB7        0.0000 
     90 DU         -2.9200  -46.1700   15.4500 H         6 CUB7        0.0000 
     91 DU         -6.7500  -43.5400   14.4900 H         6 CUB7        0.0000 
     92 DU         -5.3200  -44.0000   14.5800 H         6 CUB7        0.0000 
     93 DU         -4.6600  -46.2900   17.3700 H         6 CUB7        0.0000 
     94 DU         -5.6400  -44.5800   16.6000 H         6 CUB7        0.0000 
     95 DU         -2.7800  -45.4900   16.7800 H         6 CUB7        0.0000 
     96 DU         -5.1900  -43.3200   15.9200 H         6 CUB7        0.0000 
     97 DU         -2.3400  -44.2300   16.1000 H         6 CUB7        0.0000 
     98 DU         -3.3100  -42.5200   15.3200 H         6 CUB7        0.0000 
     99 DU         -4.0800  -44.3600   18.0200 H         6 CUB7        0.0000 
    100 DU         -2.6500  -44.8200   18.1100 H         6 CUB7        0.0000 
    101 DU         -3.6300  -43.1000   17.3400 H         6 CUB7        0.0000 
    102 DU         -2.0700  -42.8800   18.7600 H         6 CUB7        0.0000 
    103 DU         -4.4800  -40.7100   17.9000 H         6 CUB7        0.0000 
    104 DU         -3.0500  -41.1700   17.9900 H         6 CUB7        0.0000 
    105 DU         -1.3600  -40.2700   20.7400 H         6 CUB7        0.0000 
@<TRIPOS>BOND
@<TRIPOS>SUBSTRUCTURE
     1 SER1        1 GROUP   
     2 ALA2        5 GROUP   
     3 LYS4       45 GROUP   
     4 PHE5       47 GROUP   
     5 GLY6       59 GROUP   
     6 CUB7       80 GROUP   
@<TRIPOS>SET

