#    Name: 5yz3_2_GDP
#    Modification time : Fri May 22 19:23:35 2020

@<TRIPOS>MOLECULE
5yz3_2_GDP
   38    40     1     0     1
SMALL
NO_CHARGES


@<TRIPOS>ATOM
      1 PB        -18.7550  -49.4830   15.9500 P.3       1 GDP501      0.0000 
      2 O1B       -18.0840  -50.4560   15.0170 O.co2     1 GDP501      0.0000 
      3 O2B       -19.5120  -50.2040   17.0370 O.co2     1 GDP501      0.0000 
      4 O3B       -19.7220  -48.6180   15.1830 O.co2     1 GDP501      0.0000 
      5 O3A       -17.6870  -48.5230   16.6520 O.3       1 GDP501      0.0000 
      6 PA        -16.1960  -48.9600   17.0580 P.3       1 GDP501      0.0000 
      7 O1A       -15.2050  -48.7350   15.9440 O.co2     1 GDP501      0.0000 
      8 O2A       -16.1330  -50.3730   17.5770 O.co2     1 GDP501      0.0000 
      9 O5'       -15.9890  -47.9160   18.2550 O.3       1 GDP501      0.0000 
     10 C5'       -14.9190  -46.9860   18.2620 C.3       1 GDP501      0.0000 
     11 C4'       -14.3950  -46.9590   19.6840 C.3       1 GDP501      0.0000 
     12 O4'       -14.0340  -48.2920   20.0290 O.3       1 GDP501      0.0000 
     13 C3'       -13.1550  -46.1060   19.8240 C.3       1 GDP501      0.0000 
     14 O3'       -13.1760  -45.4370   21.0870 O.3       1 GDP501      0.0000 
     15 C2'       -12.0040  -47.0800   19.7620 C.3       1 GDP501      0.0000 
     16 O2'       -10.9550  -46.6950   20.6510 O.3       1 GDP501      0.0000 
     17 C1'       -12.6230  -48.4010   20.1750 C.3       1 GDP501      0.0000 
     18 N9        -12.1500  -49.4940   19.3100 N.pl3     1 GDP501      0.0000 
     19 C8        -12.3930  -49.6260   17.9950 C.2       1 GDP501      0.0000 
     20 N7        -11.8110  -50.7550   17.5220 N.2       1 GDP501      0.0000 
     21 C5        -11.1970  -51.3550   18.5540 C.2       1 GDP501      0.0000 
     22 C6        -10.3990  -52.5760   18.7590 C.2       1 GDP501      0.0000 
     23 O6        -10.1470  -53.3510   17.8200 O.2       1 GDP501      0.0000 
     24 N1         -9.9480  -52.8310   19.9850 N.am      1 GDP501      0.0000 
     25 C2        -10.1920  -52.0250   21.0320 C.2       1 GDP501      0.0000 
     26 N2         -9.6960  -52.3580   22.2470 N.pl3     1 GDP501      0.0000 
     27 N3        -10.9140  -50.8890   20.9220 N.2       1 GDP501      0.0000 
     28 C4        -11.4270  -50.5190   19.7310 C.2       1 GDP501      0.0000 
     29 H4'       -15.1780  -46.5840   20.3570 H         1 GDP501      0.0000 
     30 H3'       -13.0920  -45.3900   18.9920 H         1 GDP501      0.0000 
     31 HO3'      -12.3850  -44.8870   21.1730 H         1 GDP501      0.0000 
     32 H2'       -11.6360  -47.1510   18.7290 H         1 GDP501      0.0000 
     33 HO2'      -10.6220  -45.8230   20.3980 H         1 GDP501      0.0000 
     34 H1'       -12.3640  -48.6070   21.2230 H         1 GDP501      0.0000 
     35 H8        -12.9630  -48.9260   17.3970 H         1 GDP501      0.0000 
     36 HN1        -9.3840  -53.6910   20.1380 H         1 GDP501      0.0000 
     37 HN21       -9.1520  -53.2020   22.3570 H         1 GDP501      0.0000 
     38 HN22       -9.8700  -51.7620   23.0440 H         1 GDP501      0.0000 
@<TRIPOS>BOND
     1    1    2 ar   
     2    1    3 ar   
     3    1    4 ar   
     4    1    5 1    
     5    5    6 1    
     6    6    7 ar   
     7    6    8 ar   
     8    6    9 1    
     9    9   10 1    
    10   10   11 1    
    11   11   12 1    
    12   11   13 1    
    13   11   29 1    
    14   12   17 1    
    15   13   14 1    
    16   13   15 1    
    17   13   30 1    
    18   14   31 1    
    19   15   16 1    
    20   15   17 1    
    21   15   32 1    
    22   16   33 1    
    23   17   18 1    
    24   17   34 1    
    25   18   19 1    
    26   18   28 1    
    27   19   20 2    
    28   19   35 1    
    29   20   21 1    
    30   21   22 1    
    31   21   28 2    
    32   22   23 2    
    33   22   24 am   
    34   24   25 1    
    35   24   36 1    
    36   25   26 1    
    37   25   27 2    
    38   26   37 1    
    39   26   38 1    
    40   27   28 1    
@<TRIPOS>SUBSTRUCTURE
     1 GDP501      1 GROUP   
@<TRIPOS>SET
ATOM$ORANGE STATIC     ATOMS   COLORGROUP SYSTEM 
20 10 10 11 11 13 13 15 15 17 17 19 19 21 21 22 22 25 \
25 28 28 

