#    Name: 5yz3_2_GDP_CAVITY_N1_6
#    Modification time : Fri May 22 19:23:36 2020

@<TRIPOS>MOLECULE
5yz3_2_GDP_CAVITY_N1_6
    3     0     2     0     0
SMALL
NO_CHARGES


@<TRIPOS>ATOM
      1 OG         -7.6400  -46.0500   15.8600 O.3       1 SER1        0.0000 
      2 OG         -6.0800  -45.8400   17.2800 O.3       1 SER1        0.0000 
      3 CA         -5.9500  -45.1600   18.6100 C.3       2 GLY6        0.0000 
@<TRIPOS>BOND
@<TRIPOS>SUBSTRUCTURE
     1 SER1        1 GROUP   
     2 GLY6        3 GROUP   
@<TRIPOS>SET

