#    Name: 6mgo_1_ADP
#    Modification time : Fri May 22 19:24:08 2020

@<TRIPOS>MOLECULE
6mgo_1_ADP
   27    29     1     0     1
SMALL
NO_CHARGES


@<TRIPOS>ATOM
      1 PB         12.5240   -1.2240   16.0520 P.3       1 ADP403      0.0000 
      2 O1B        13.2770   -1.2960   14.7170 O.co2     1 ADP403      0.0000 
      3 O2B        11.3050   -0.3690   15.9020 O.co2     1 ADP403      0.0000 
      4 O3B        13.4070   -0.7810   17.2490 O.co2     1 ADP403      0.0000 
      5 PA         10.6180   -3.4440   15.9830 P.3       1 ADP403      0.0000 
      6 O1A        10.5300   -3.2820   14.5060 O.co2     1 ADP403      0.0000 
      7 O2A         9.5270   -2.9990   16.9150 O.co2     1 ADP403      0.0000 
      8 O3A        11.9900   -2.6880   16.4120 O.3       1 ADP403      0.0000 
      9 O5'        11.0230   -4.9390   16.3100 O.3       1 ADP403      0.0000 
     10 C5'        12.1680   -5.5890   15.6940 C.3       1 ADP403      0.0000 
     11 C4'        12.6520   -6.6120   16.6920 C.3       1 ADP403      0.0000 
     12 O4'        11.5210   -7.4400   17.0970 O.3       1 ADP403      0.0000 
     13 C3'        13.7480   -7.5870   16.2240 C.3       1 ADP403      0.0000 
     14 O3'        14.6930   -7.7730   17.2810 O.3       1 ADP403      0.0000 
     15 C2'        12.9540   -8.8540   15.8800 C.3       1 ADP403      0.0000 
     16 O2'        13.7500  -10.0150   15.9800 O.3       1 ADP403      0.0000 
     17 C1'        11.8750   -8.7990   16.9650 C.3       1 ADP403      0.0000 
     18 N9         10.6880   -9.5850   16.6490 N.pl3     1 ADP403      0.0000 
     19 C8          9.9190   -9.5060   15.5190 C.2       1 ADP403      0.0000 
     20 N7          8.9540  -10.3860   15.4870 N.2       1 ADP403      0.0000 
     21 C5          9.1170  -11.1130   16.6550 C.ar      1 ADP403      0.0000 
     22 C6          8.4190  -12.2050   17.1960 C.ar      1 ADP403      0.0000 
     23 N6          7.3880  -12.7820   16.6020 N.pl3     1 ADP403      0.0000 
     24 N1          8.8370  -12.7010   18.3870 N.ar      1 ADP403      0.0000 
     25 C2          9.9220  -12.1610   18.9510 C.ar      1 ADP403      0.0000 
     26 N3         10.6600  -11.1280   18.5400 N.ar      1 ADP403      0.0000 
     27 C4         10.1970  -10.6450   17.3690 C.ar      1 ADP403      0.0000 
@<TRIPOS>BOND
     1    1    2 ar   
     2    1    3 ar   
     3    1    4 ar   
     4    1    8 1    
     5    5    6 ar   
     6    5    7 ar   
     7    5    8 1    
     8    5    9 1    
     9    9   10 1    
    10   10   11 1    
    11   11   12 1    
    12   11   13 1    
    13   12   17 1    
    14   13   14 1    
    15   13   15 1    
    16   15   16 1    
    17   15   17 1    
    18   17   18 1    
    19   18   19 1    
    20   18   27 1    
    21   19   20 2    
    22   20   21 1    
    23   21   22 ar   
    24   21   27 ar   
    25   22   23 1    
    26   22   24 ar   
    27   24   25 ar   
    28   25   26 ar   
    29   26   27 ar   
@<TRIPOS>SUBSTRUCTURE
     1 ADP403      1 GROUP   
@<TRIPOS>SET
ATOM$ORANGE STATIC     ATOMS   COLORGROUP SYSTEM 
20 10 10 11 11 13 13 15 15 17 17 19 19 21 21 22 22 25 \
25 27 27 

