#    Name: 6a7j_1_TES
#    Modification time : Fri May 22 19:25:22 2020

@<TRIPOS>MOLECULE
6a7j_1_TES
   21    24     1     0     0
SMALL
NO_CHARGES


@<TRIPOS>ATOM
      1 C1         -6.9370  -10.8860   -9.9290 C.3       1 TES502      0.0000 
      2 C2         -8.3510  -10.3090   -9.9550 C.3       1 TES502      0.0000 
      3 C3         -8.3910   -9.1340  -10.8800 C.2       1 TES502      0.0000 
      4 O3         -9.2970   -8.3230  -10.7580 O.2       1 TES502      0.0000 
      5 C4         -7.3630   -9.0270  -11.9340 C.2       1 TES502      0.0000 
      6 C5         -6.5220  -10.0460  -12.1840 C.2       1 TES502      0.0000 
      7 C6         -5.7520  -10.0780  -13.4640 C.3       1 TES502      0.0000 
      8 C7         -4.2940  -10.3610  -13.1470 C.3       1 TES502      0.0000 
      9 C8         -4.1690  -11.7360  -12.5560 C.3       1 TES502      0.0000 
     10 C9         -4.9130  -11.7010  -11.2220 C.3       1 TES502      0.0000 
     11 C10        -6.3900  -11.2650  -11.3050 C.3       1 TES502      0.0000 
     12 C11        -4.7300  -13.0610  -10.5580 C.3       1 TES502      0.0000 
     13 C12        -3.2420  -13.4240  -10.4010 C.3       1 TES502      0.0000 
     14 C13        -2.5200  -13.4890  -11.7180 C.3       1 TES502      0.0000 
     15 C14        -2.7120  -12.1430  -12.3560 C.3       1 TES502      0.0000 
     16 C15        -1.7710  -12.2590  -13.5380 C.3       1 TES502      0.0000 
     17 C16        -0.5410  -13.0010  -12.9930 C.3       1 TES502      0.0000 
     18 C17        -0.9840  -13.5610  -11.6410 C.3       1 TES502      0.0000 
     19 O17        -0.3980  -14.8600  -11.3620 O.3       1 TES502      0.0000 
     20 C18        -3.1050  -14.6280  -12.5510 C.3       1 TES502      0.0000 
     21 C19        -7.2660  -12.3760  -11.8930 C.3       1 TES502      0.0000 
@<TRIPOS>BOND
     1    1    2 1    
     2    1   11 1    
     3    2    3 1    
     4    3    4 2    
     5    3    5 1    
     6    5    6 2    
     7    6    7 1    
     8    6   11 1    
     9    7    8 1    
    10    8    9 1    
    11    9   10 1    
    12    9   15 1    
    13   10   11 1    
    14   10   12 1    
    15   11   21 1    
    16   12   13 1    
    17   13   14 1    
    18   14   15 1    
    19   14   18 1    
    20   14   20 1    
    21   15   16 1    
    22   16   17 1    
    23   17   18 1    
    24   18   19 1    
@<TRIPOS>SUBSTRUCTURE
     1 TES502      1 GROUP   
@<TRIPOS>SET

