#    Name: 6a4f_4_U5P
#    Modification time : Fri May 22 19:30:42 2020

@<TRIPOS>MOLECULE
6a4f_4_U5P
   21    22     1     0     0
SMALL
NO_CHARGES


@<TRIPOS>ATOM
      1 N1         31.4430   18.0660  -23.0590 N.am      1 U5P202      0.0000 
      2 C2         30.6980   17.6440  -21.9210 C.2       1 U5P202      0.0000 
      3 N3         30.8360   16.3790  -21.4780 N.am      1 U5P202      0.0000 
      4 C4         31.6410   15.4880  -22.0980 C.2       1 U5P202      0.0000 
      5 C5         32.3660   15.8670  -23.2320 C.2       1 U5P202      0.0000 
      6 C6         32.2360   17.1820  -23.7000 C.2       1 U5P202      0.0000 
      7 O2         29.9310   18.4480  -21.3160 O.2       1 U5P202      0.0000 
      8 O4         31.7170   14.3200  -21.6460 O.2       1 U5P202      0.0000 
      9 C1'        31.2650   19.4440  -23.5610 C.3       1 U5P202      0.0000 
     10 C2'        32.4860   20.3360  -23.8320 C.3       1 U5P202      0.0000 
     11 O2'        32.8750   21.1090  -22.6820 O.3       1 U5P202      0.0000 
     12 C3'        31.9940   21.2200  -24.9880 C.3       1 U5P202      0.0000 
     13 C4'        30.9580   20.3440  -25.7120 C.3       1 U5P202      0.0000 
     14 O3'        31.3770   22.4600  -24.5450 O.3       1 U5P202      0.0000 
     15 O4'        30.5960   19.2930  -24.8130 O.3       1 U5P202      0.0000 
     16 C5'        31.3320   19.7220  -27.0760 C.3       1 U5P202      0.0000 
     17 O5'        30.1640   19.7890  -27.9060 O.3       1 U5P202      0.0000 
     18 P          29.6230   18.7290  -28.9670 P.3       1 U5P202      0.0000 
     19 O1P        30.0370   19.4140  -30.2120 O.co2     1 U5P202      0.0000 
     20 O2P        28.1380   18.5600  -28.7310 O.co2     1 U5P202      0.0000 
     21 O3P        30.2130   17.3640  -28.8310 O.co2     1 U5P202      0.0000 
@<TRIPOS>BOND
     1    1    2 1    
     2    1    6 1    
     3    1    9 1    
     4    2    3 1    
     5    2    7 2    
     6    3    4 1    
     7    4    5 1    
     8    4    8 2    
     9    5    6 2    
    10    9   10 1    
    11    9   15 1    
    12   10   11 1    
    13   10   12 1    
    14   12   13 1    
    15   12   14 1    
    16   13   15 1    
    17   13   16 1    
    18   16   17 1    
    19   17   18 1    
    20   18   19 ar   
    21   18   20 ar   
    22   18   21 ar   
@<TRIPOS>SUBSTRUCTURE
     1 U5P202      1 GROUP   
@<TRIPOS>SET

