#    Name: 6b5d_1_ADP
#    Modification time : Fri May 22 19:25:01 2020

@<TRIPOS>MOLECULE
6b5d_1_ADP
   27    29     1     0     1
SMALL
NO_CHARGES


@<TRIPOS>ATOM
      1 PB         81.3810   29.7440    3.0520 P.3       1 ADP501      0.0000 
      2 O1B        82.6710   30.0660    2.3370 O.co2     1 ADP501      0.0000 
      3 O2B        81.4590   29.8970    4.5520 O.co2     1 ADP501      0.0000 
      4 O3B        80.7290   28.4640    2.5870 O.co2     1 ADP501      0.0000 
      5 PA         79.9250   31.1230    1.0400 P.3       1 ADP501      0.0000 
      6 O1A        79.9430   29.8010    0.3120 O.co2     1 ADP501      0.0000 
      7 O2A        80.7280   32.2780    0.4900 O.co2     1 ADP501      0.0000 
      8 O3A        80.3670   30.9090    2.5790 O.3       1 ADP501      0.0000 
      9 O5'        78.3930   31.6110    1.1550 O.3       1 ADP501      0.0000 
     10 C5'        77.3320   30.8150    0.6280 C.3       1 ADP501      0.0000 
     11 C4'        76.1840   31.7120    0.1760 C.3       1 ADP501      0.0000 
     12 O4'        75.7010   32.4920    1.2720 O.3       1 ADP501      0.0000 
     13 C3'        76.6190   32.6820   -0.9110 C.3       1 ADP501      0.0000 
     14 O3'        76.0690   32.3060   -2.1760 O.3       1 ADP501      0.0000 
     15 C2'        76.0710   34.0310   -0.5000 C.3       1 ADP501      0.0000 
     16 O2'        75.0800   34.4560   -1.4430 O.3       1 ADP501      0.0000 
     17 C1'        75.4570   33.8450    0.8790 C.3       1 ADP501      0.0000 
     18 N9         76.1250   34.7340    1.8640 N.pl3     1 ADP501      0.0000 
     19 C8         76.7620   34.3150    2.9740 C.2       1 ADP501      0.0000 
     20 N7         77.2660   35.3600    3.6800 N.2       1 ADP501      0.0000 
     21 C5         76.9460   36.4850    3.0150 C.ar      1 ADP501      0.0000 
     22 C6         77.1700   37.9380    3.2060 C.ar      1 ADP501      0.0000 
     23 N6         77.8520   38.4120    4.2760 N.pl3     1 ADP501      0.0000 
     24 N1         76.6680   38.7790    2.2750 N.ar      1 ADP501      0.0000 
     25 C2         75.9860   38.3250    1.2050 C.ar      1 ADP501      0.0000 
     26 N3         75.7460   37.0230    0.9680 N.ar      1 ADP501      0.0000 
     27 C4         76.1890   36.0680    1.8210 C.ar      1 ADP501      0.0000 
@<TRIPOS>BOND
     1    1    2 ar   
     2    1    3 ar   
     3    1    4 ar   
     4    1    8 1    
     5    5    6 ar   
     6    5    7 ar   
     7    5    8 1    
     8    5    9 1    
     9    9   10 1    
    10   10   11 1    
    11   11   12 1    
    12   11   13 1    
    13   12   17 1    
    14   13   14 1    
    15   13   15 1    
    16   15   16 1    
    17   15   17 1    
    18   17   18 1    
    19   18   19 1    
    20   18   27 1    
    21   19   20 2    
    22   20   21 1    
    23   21   22 ar   
    24   21   27 ar   
    25   22   23 1    
    26   22   24 ar   
    27   24   25 ar   
    28   25   26 ar   
    29   26   27 ar   
@<TRIPOS>SUBSTRUCTURE
     1 ADP501      1 GROUP   
@<TRIPOS>SET
ATOM$ORANGE STATIC     ATOMS   COLORGROUP SYSTEM 
20 10 10 11 11 13 13 15 15 17 17 19 19 21 21 22 22 25 \
25 27 27 

