#    Name: 5my0_1_MLC
#    Modification time : Fri May 22 19:12:36 2020

@<TRIPOS>MOLECULE
5my0_1_MLC
   54    56     1     0     0
SMALL
NO_CHARGES


@<TRIPOS>ATOM
      1 C8         29.2000  290.6760  164.4880 C.2       1 MLC900      0.0000 
      2 N9         29.6710  290.9900  163.2460 N.pl3     1 MLC900      0.0000 
      3 C4         30.9710  291.3560  163.3570 C.ar      1 MLC900      0.0000 
      4 C5         31.3110  291.2490  164.7910 C.ar      1 MLC900      0.0000 
      5 N7         30.1780  290.8350  165.4210 N.2       1 MLC900      0.0000 
      6 N3         31.9520  291.7650  162.4730 N.ar      1 MLC900      0.0000 
      7 C2         33.2160  292.0640  162.8550 C.ar      1 MLC900      0.0000 
      8 N1         33.5980  291.9960  164.1510 N.ar      1 MLC900      0.0000 
      9 C6         32.7280  291.6050  165.1430 C.ar      1 MLC900      0.0000 
     10 N6         33.1370  291.5380  166.4300 N.pl3     1 MLC900      0.0000 
     11 C1'        28.9570  290.9600  161.9080 C.3       1 MLC900      0.0000 
     12 C2'        28.0610  289.7400  161.6000 C.3       1 MLC900      0.0000 
     13 O2'        28.7370  288.8520  160.6990 O.3       1 MLC900      0.0000 
     14 C3'        26.7740  290.2670  160.9470 C.3       1 MLC900      0.0000 
     15 O3'        26.4260  289.6050  159.7060 O.3       1 MLC900      0.0000 
     16 C4'        27.1120  291.7310  160.7100 C.3       1 MLC900      0.0000 
     17 O4'        28.1050  292.0900  161.6940 O.3       1 MLC900      0.0000 
     18 C5'        25.9270  292.7030  160.7210 C.3       1 MLC900      0.0000 
     19 O5'        26.3960  294.0390  160.9100 O.3       1 MLC900      0.0000 
     20 P1         27.0650  294.9280  159.7390 P.3       1 MLC900      0.0000 
     21 O11        25.9400  295.8050  159.2360 O.co2     1 MLC900      0.0000 
     22 O12        28.2670  295.6020  160.3590 O.co2     1 MLC900      0.0000 
     23 O6         27.5330  293.8950  158.5480 O.3       1 MLC900      0.0000 
     24 P2         29.0680  293.5560  158.0750 P.3       1 MLC900      0.0000 
     25 O21        29.7120  292.5960  159.0480 O.co2     1 MLC900      0.0000 
     26 O22        29.7560  294.8780  157.8320 O.co2     1 MLC900      0.0000 
     27 O7         29.0350  292.7930  156.6330 O.3       1 MLC900      0.0000 
     28 CPB        28.4390  291.5150  156.3520 C.3       1 MLC900      0.0000 
     29 CPA        29.4090  290.3280  156.1250 C.3       1 MLC900      0.0000 
     30 CP7        28.8900  289.1610  156.9970 C.3       1 MLC900      0.0000 
     31 CP9        29.4610  289.9250  154.6460 C.3       1 MLC900      0.0000 
     32 CP8        30.8520  290.7100  156.4990 C.3       1 MLC900      0.0000 
     33 OP3        27.6540  288.6680  156.4440 O.3       1 MLC900      0.0000 
     34 CP6        29.8640  288.0240  157.2090 C.2       1 MLC900      0.0000 
     35 OP2        30.6450  288.1030  158.1490 O.2       1 MLC900      0.0000 
     36 NP2        29.8040  286.9620  156.3880 N.am      1 MLC900      0.0000 
     37 CP5        30.5940  285.7580  156.6020 C.3       1 MLC900      0.0000 
     38 CP4        32.0990  286.0220  156.7720 C.3       1 MLC900      0.0000 
     39 CP3        32.9280  285.1170  155.8930 C.2       1 MLC900      0.0000 
     40 OP1        32.5600  284.9330  154.7410 O.2       1 MLC900      0.0000 
     41 NP1        34.0490  284.5840  156.4140 N.am      1 MLC900      0.0000 
     42 CP2        34.9990  283.7730  155.6430 C.3       1 MLC900      0.0000 
     43 CP1        34.4450  282.4740  155.0340 C.3       1 MLC900      0.0000 
     44 S          35.1610  281.0450  155.7880 S.3       1 MLC900      0.0000 
     45 P3         25.0560  289.8220  158.8490 P.3       1 MLC900      0.0000 
     46 O31        25.4060  290.8080  157.7600 O.co2     1 MLC900      0.0000 
     47 O32        24.7230  288.4530  158.3020 O.co2     1 MLC900      0.0000 
     48 O33        24.0370  290.3490  159.8310 O.co2     1 MLC900      0.0000 
     49 CM1        34.5970  279.7650  154.8500 C.2       1 MLC900      0.0000 
     50 CM2        35.4810  278.5620  154.5090 C.3       1 MLC900      0.0000 
     51 CM3        35.0300  277.7900  153.2690 C.2       1 MLC900      0.0000 
     52 OM2        33.4390  279.8130  154.4600 O.2       1 MLC900      0.0000 
     53 OM3        33.8680  277.3310  153.2320 O.co2     1 MLC900      0.0000 
     54 OM4        35.8180  277.6140  152.3050 O.co2     1 MLC900      0.0000 
@<TRIPOS>BOND
     1    1    2 1    
     2    1    5 2    
     3    2    3 1    
     4    2   11 1    
     5    3    4 ar   
     6    3    6 ar   
     7    4    5 1    
     8    4    9 ar   
     9    6    7 ar   
    10    7    8 ar   
    11    8    9 ar   
    12    9   10 1    
    13   11   12 1    
    14   11   17 1    
    15   12   13 1    
    16   12   14 1    
    17   14   15 1    
    18   14   16 1    
    19   15   45 1    
    20   16   17 1    
    21   16   18 1    
    22   18   19 1    
    23   19   20 1    
    24   20   21 ar   
    25   20   22 ar   
    26   20   23 1    
    27   23   24 1    
    28   24   25 ar   
    29   24   26 ar   
    30   24   27 1    
    31   27   28 1    
    32   28   29 1    
    33   29   30 1    
    34   29   31 1    
    35   29   32 1    
    36   30   33 1    
    37   30   34 1    
    38   34   35 2    
    39   34   36 am   
    40   36   37 1    
    41   37   38 1    
    42   38   39 1    
    43   39   40 2    
    44   39   41 am   
    45   41   42 1    
    46   42   43 1    
    47   43   44 1    
    48   44   49 1    
    49   45   46 ar   
    50   45   47 ar   
    51   45   48 ar   
    52   49   50 1    
    53   49   52 2    
    54   50   51 1    
    55   51   53 ar   
    56   51   54 ar   
@<TRIPOS>SUBSTRUCTURE
     1 MLC900      1 GROUP   
@<TRIPOS>SET

