#    Name: 5my0_3_COA
#    Modification time : Fri May 22 19:12:54 2020

@<TRIPOS>MOLECULE
5my0_3_COA
   48    50     1     0     1
SMALL
NO_CHARGES


@<TRIPOS>ATOM
      1 N1A       106.1440  341.2750   51.2280 N.ar      1 COA900      0.0000 
      2 C2A       106.4270  340.4730   52.2830 C.ar      1 COA900      0.0000 
      3 N3A       107.3760  340.7990   53.1660 N.ar      1 COA900      0.0000 
      4 C4A       108.1120  341.9540   53.0460 C.ar      1 COA900      0.0000 
      5 C5A       107.8610  342.8800   51.9250 C.ar      1 COA900      0.0000 
      6 C6A       106.7800  342.4580   50.9790 C.ar      1 COA900      0.0000 
      7 N6A       106.4360  343.2030   49.8980 N.pl3     1 COA900      0.0000 
      8 N7A       108.7300  343.9140   52.0760 N.2       1 COA900      0.0000 
      9 C8A       109.4700  343.6850   53.1870 C.2       1 COA900      0.0000 
     10 N9A       109.0940  342.5140   53.7640 N.pl3     1 COA900      0.0000 
     11 C1B       109.6750  341.9160   55.0070 C.3       1 COA900      0.0000 
     12 C2B       108.6570  341.3330   56.0190 C.3       1 COA900      0.0000 
     13 O2B       108.0390  342.2600   56.9230 O.3       1 COA900      0.0000 
     14 C3B       109.5600  340.3690   56.7350 C.3       1 COA900      0.0000 
     15 O3B       110.4400  341.1050   57.5950 O.3       1 COA900      0.0000 
     16 P3B       110.5150  340.9630   59.2020 P.3       1 COA900      0.0000 
     17 O7A       109.2390  341.6960   59.6050 O.co2     1 COA900      0.0000 
     18 O8A       110.5440  339.4640   59.4320 O.co2     1 COA900      0.0000 
     19 O9A       111.8430  341.6110   59.6010 O.co2     1 COA900      0.0000 
     20 C4B       110.3770  339.7500   55.6030 C.3       1 COA900      0.0000 
     21 O4B       110.5560  340.8220   54.6660 O.3       1 COA900      0.0000 
     22 C5B       109.7120  338.5190   54.9720 C.3       1 COA900      0.0000 
     23 O5B       110.6310  337.7930   54.1390 O.3       1 COA900      0.0000 
     24 P1A       111.6410  336.6190   54.6580 P.3       1 COA900      0.0000 
     25 O1A       112.5090  337.1640   55.7620 O.co2     1 COA900      0.0000 
     26 O2A       112.3340  335.9540   53.4930 O.co2     1 COA900      0.0000 
     27 O3A       110.7460  335.5000   55.4090 O.3       1 COA900      0.0000 
     28 P2A       109.6180  334.5540   54.7600 P.3       1 COA900      0.0000 
     29 O4A       109.9270  333.0880   55.0690 O.co2     1 COA900      0.0000 
     30 O5A       108.3150  335.2100   55.1860 O.co2     1 COA900      0.0000 
     31 O6A       109.8570  334.7940   53.1890 O.3       1 COA900      0.0000 
     32 CBP       108.4920  334.1800   51.2600 C.3       1 COA900      0.0000 
     33 CCP       109.6240  333.7830   52.2110 C.3       1 COA900      0.0000 
     34 CDP       109.0380  335.2860   50.3480 C.3       1 COA900      0.0000 
     35 CEP       108.2690  332.8580   50.4730 C.3       1 COA900      0.0000 
     36 CAP       107.2460  334.7330   52.1020 C.3       1 COA900      0.0000 
     37 OAP       106.9710  336.1660   52.1420 O.3       1 COA900      0.0000 
     38 C9P       105.9280  334.0890   51.8100 C.2       1 COA900      0.0000 
     39 O9P       105.3560  333.7880   52.8240 O.2       1 COA900      0.0000 
     40 N8P       105.5230  333.8040   50.5560 N.am      1 COA900      0.0000 
     41 C7P       104.4650  332.8660   50.2390 C.3       1 COA900      0.0000 
     42 C6P       104.9510  331.8350   49.2330 C.3       1 COA900      0.0000 
     43 C5P       103.8050  331.1330   48.5090 C.2       1 COA900      0.0000 
     44 O5P       103.0230  331.8250   47.8770 O.2       1 COA900      0.0000 
     45 N4P       103.7410  329.7800   48.5780 N.am      1 COA900      0.0000 
     46 C3P       102.7300  328.9550   47.9190 C.3       1 COA900      0.0000 
     47 C2P       103.1700  327.9150   46.9130 C.3       1 COA900      0.0000 
     48 S1P       101.8080  327.7030   45.7330 S.3       1 COA900      0.0000 
@<TRIPOS>BOND
     1    1    2 ar   
     2    1    6 ar   
     3    2    3 ar   
     4    3    4 ar   
     5    4    5 ar   
     6    4   10 1    
     7    5    6 ar   
     8    5    8 1    
     9    6    7 1    
    10    8    9 2    
    11    9   10 1    
    12   10   11 1    
    13   11   12 1    
    14   11   21 1    
    15   12   13 1    
    16   12   14 1    
    17   14   15 1    
    18   14   20 1    
    19   15   16 1    
    20   16   17 ar   
    21   16   18 ar   
    22   16   19 ar   
    23   20   21 1    
    24   20   22 1    
    25   22   23 1    
    26   23   24 1    
    27   24   25 ar   
    28   24   26 ar   
    29   24   27 1    
    30   27   28 1    
    31   28   29 ar   
    32   28   30 ar   
    33   28   31 1    
    34   31   33 1    
    35   32   33 1    
    36   32   34 1    
    37   32   35 1    
    38   32   36 1    
    39   36   37 1    
    40   36   38 1    
    41   38   39 2    
    42   38   40 am   
    43   40   41 1    
    44   41   42 1    
    45   42   43 1    
    46   43   44 2    
    47   43   45 am   
    48   45   46 1    
    49   46   47 1    
    50   47   48 1    
@<TRIPOS>SUBSTRUCTURE
     1 COA900      1 GROUP   
@<TRIPOS>SET
ATOM$ORANGE STATIC     ATOMS   COLORGROUP SYSTEM 
42 2 2 4 4 5 5 6 6 9 9 11 11 12 12 14 14 20 \
20 22 22 32 32 33 33 34 34 35 35 36 36 38 38 41 41 42 \
42 43 43 46 46 47 47 

