#    Name: 5my0_2_COA
#    Modification time : Fri May 22 19:12:45 2020

@<TRIPOS>MOLECULE
5my0_2_COA
   48    50     1     0     1
SMALL
NO_CHARGES


@<TRIPOS>ATOM
      1 N1A       -38.7620  325.1860  171.8150 N.ar      1 COA900      0.0000 
      2 C2A       -39.0710  326.4710  172.1080 C.ar      1 COA900      0.0000 
      3 N3A       -40.0990  327.1150  171.4980 N.ar      1 COA900      0.0000 
      4 C4A       -40.9010  326.5210  170.5400 C.ar      1 COA900      0.0000 
      5 C5A       -40.6150  325.1120  170.1710 C.ar      1 COA900      0.0000 
      6 C6A       -39.4620  324.4540  170.8880 C.ar      1 COA900      0.0000 
      7 N6A       -39.1140  323.1630  170.6290 N.pl3     1 COA900      0.0000 
      8 N7A       -41.5310  324.7680  169.2260 N.2       1 COA900      0.0000 
      9 C8A       -42.3330  325.8410  169.0010 C.2       1 COA900      0.0000 
     10 N9A       -41.9650  326.8910  169.7810 N.pl3     1 COA900      0.0000 
     11 C1B       -42.6700  328.2220  169.7250 C.3       1 COA900      0.0000 
     12 C2B       -42.2250  329.3520  170.6720 C.3       1 COA900      0.0000 
     13 O2B       -42.7850  329.3040  171.9930 O.3       1 COA900      0.0000 
     14 C3B       -42.6350  330.6150  169.9190 C.3       1 COA900      0.0000 
     15 O3B       -44.0030  330.9740  170.1910 O.3       1 COA900      0.0000 
     16 P3B       -44.7400  332.3660  169.7770 P.3       1 COA900      0.0000 
     17 O7A       -46.1290  332.1930  170.3500 O.co2     1 COA900      0.0000 
     18 O8A       -43.9340  333.4730  170.4210 O.co2     1 COA900      0.0000 
     19 O9A       -44.7300  332.4140  168.2650 O.co2     1 COA900      0.0000 
     20 C4B       -42.4130  330.2270  168.4500 C.3       1 COA900      0.0000 
     21 O4B       -42.4580  328.7850  168.4130 O.3       1 COA900      0.0000 
     22 C5B       -41.1190  330.8340  167.8570 C.3       1 COA900      0.0000 
     23 O5B       -39.9340  330.0780  168.1720 O.3       1 COA900      0.0000 
     24 P1A       -38.6310  330.5130  169.0500 P.3       1 COA900      0.0000 
     25 O1A       -37.7280  329.3170  168.8950 O.co2     1 COA900      0.0000 
     26 O2A       -39.0290  330.8910  170.4560 O.co2     1 COA900      0.0000 
     27 O3A       -37.9780  331.8140  168.3250 O.3       1 COA900      0.0000 
     28 P2A       -38.3510  333.3790  168.5940 P.3       1 COA900      0.0000 
     29 O4A       -38.4430  334.0990  167.2670 O.co2     1 COA900      0.0000 
     30 O5A       -39.5170  333.5370  169.5410 O.co2     1 COA900      0.0000 
     31 O6A       -37.0210  333.9180  169.3370 O.3       1 COA900      0.0000 
     32 CBP       -34.9040  335.1550  169.5820 C.3       1 COA900      0.0000 
     33 CCP       -36.0440  334.7200  168.6570 C.3       1 COA900      0.0000 
     34 CDP       -33.7840  335.6720  168.6790 C.3       1 COA900      0.0000 
     35 CEP       -35.4220  336.2910  170.4690 C.3       1 COA900      0.0000 
     36 CAP       -34.4530  333.9620  170.4800 C.3       1 COA900      0.0000 
     37 OAP       -34.5140  332.7250  169.7490 O.3       1 COA900      0.0000 
     38 C9P       -33.0550  334.0260  171.0550 C.2       1 COA900      0.0000 
     39 O9P       -32.5430  335.0730  171.4350 O.2       1 COA900      0.0000 
     40 N8P       -32.4290  332.8510  171.1210 N.am      1 COA900      0.0000 
     41 C7P       -31.0820  332.6860  171.6400 C.3       1 COA900      0.0000 
     42 C6P       -31.0730  332.1470  173.0740 C.3       1 COA900      0.0000 
     43 C5P       -29.6440  332.0230  173.5720 C.2       1 COA900      0.0000 
     44 O5P       -28.8900  332.9430  173.2910 O.2       1 COA900      0.0000 
     45 N4P       -29.2150  330.9590  174.2890 N.am      1 COA900      0.0000 
     46 C3P       -30.0100  329.7860  174.6600 C.3       1 COA900      0.0000 
     47 C2P       -29.2540  328.6030  175.3140 C.3       1 COA900      0.0000 
     48 S1P       -27.4940  328.9380  175.5710 S.3       1 COA900      0.0000 
@<TRIPOS>BOND
     1    1    2 ar   
     2    1    6 ar   
     3    2    3 ar   
     4    3    4 ar   
     5    4    5 ar   
     6    4   10 1    
     7    5    6 ar   
     8    5    8 1    
     9    6    7 1    
    10    8    9 2    
    11    9   10 1    
    12   10   11 1    
    13   11   12 1    
    14   11   21 1    
    15   12   13 1    
    16   12   14 1    
    17   14   15 1    
    18   14   20 1    
    19   15   16 1    
    20   16   17 ar   
    21   16   18 ar   
    22   16   19 ar   
    23   20   21 1    
    24   20   22 1    
    25   22   23 1    
    26   23   24 1    
    27   24   25 ar   
    28   24   26 ar   
    29   24   27 1    
    30   27   28 1    
    31   28   29 ar   
    32   28   30 ar   
    33   28   31 1    
    34   31   33 1    
    35   32   33 1    
    36   32   34 1    
    37   32   35 1    
    38   32   36 1    
    39   36   37 1    
    40   36   38 1    
    41   38   39 2    
    42   38   40 am   
    43   40   41 1    
    44   41   42 1    
    45   42   43 1    
    46   43   44 2    
    47   43   45 am   
    48   45   46 1    
    49   46   47 1    
    50   47   48 1    
@<TRIPOS>SUBSTRUCTURE
     1 COA900      1 GROUP   
@<TRIPOS>SET
ATOM$ORANGE STATIC     ATOMS   COLORGROUP SYSTEM 
42 2 2 4 4 5 5 6 6 9 9 11 11 12 12 14 14 20 \
20 22 22 32 32 33 33 34 34 35 35 36 36 38 38 41 41 42 \
42 43 43 46 46 47 47 

