#    Name: 6m81_3_SAH_CAVITY_N1_4
#    Modification time : Fri May 22 19:26:49 2020

@<TRIPOS>MOLECULE
6m81_3_SAH_CAVITY_N1_4
   34     0     6     0     0
SMALL
NO_CHARGES


@<TRIPOS>ATOM
      1 OG         95.9700  -11.7200   82.6500 O.3       1 SER1        0.0000 
      2 OG         95.0500  -10.7100   83.2700 O.3       1 SER1        0.0000 
      3 OG         94.1300   -9.7000   83.9000 O.3       1 SER1        0.0000 
      4 OG         94.6600   -8.6500   82.9700 O.3       1 SER1        0.0000 
      5 OG         97.0300  -11.3700   83.6500 O.3       1 SER1        0.0000 
      6 OG         98.0900   -9.2600   81.8000 O.3       1 SER1        0.0000 
      7 OG         96.1100  -10.3600   84.2700 O.3       1 SER1        0.0000 
      8 OG         96.6400   -9.3100   83.3500 O.3       1 SER1        0.0000 
      9 OG         99.1500   -8.9100   82.8000 O.3       1 SER1        0.0000 
     10 OG         97.1700  -10.0100   85.2700 O.3       1 SER1        0.0000 
     11 OG         97.7000   -8.9600   84.3500 O.3       1 SER1        0.0000 
     12 OG         99.6800   -9.6200   84.7300 O.3       1 SER1        0.0000 
     13 OG         98.7600   -8.6100   85.3500 O.3       1 SER1        0.0000 
     14 OG         99.8200   -8.2600   86.3500 O.3       1 SER1        0.0000 
     15 O          94.5200  -10.0000   81.3400 O.2       2 ALA2        0.0000 
     16 N          95.5800   -9.6600   82.3500 N.am      2 ALA2        0.0000 
     17 N          96.2600   -9.0100   85.9000 N.am      2 ALA2        0.0000 
     18 N          98.2400   -9.6700   86.2800 N.am      2 ALA2        0.0000 
     19 N          97.8400   -7.6000   85.9700 N.am      2 ALA2        0.0000 
     20 NZ         97.9500  -10.6200   80.1700 N.4       3 LYS4        0.0000 
     21 NZ         97.0300   -9.6100   80.8000 N.4       3 LYS4        0.0000 
     22 CZ         98.4800  -11.3200   82.1000 C.ar      4 PHE5        0.0000 
     23 CZ         99.0100  -10.2700   81.1700 C.ar      4 PHE5        0.0000 
     24 CZ         98.0900  -11.0200   84.6500 C.ar      4 PHE5        0.0000 
     25 CZ         98.6200   -9.9700   83.7200 C.ar      4 PHE5        0.0000 
     26 CZ         99.5500  -12.7400   85.9500 C.ar      4 PHE5        0.0000 
     27 CZ         98.6300  -11.7300   86.5800 C.ar      4 PHE5        0.0000 
     28 CZ         99.1600  -10.6700   85.6500 C.ar      4 PHE5        0.0000 
     29 CZ         97.7100  -10.7200   87.2000 C.ar      4 PHE5        0.0000 
     30 CZ        100.2200  -10.3200   86.6500 C.ar      4 PHE5        0.0000 
     31 CA         93.9900  -11.0600   82.2700 C.3       5 GLY6        0.0000 
     32 CA         96.5000  -10.6600   81.7200 C.3       5 GLY6        0.0000 
     33 CA         95.1900   -9.3600   84.9000 C.3       5 GLY6        0.0000 
     34 DU         97.5600  -10.3100   82.7200 H         6 CUB7        0.0000 
@<TRIPOS>BOND
@<TRIPOS>SUBSTRUCTURE
     1 SER1        1 GROUP   
     2 ALA2       15 GROUP   
     3 LYS4       20 GROUP   
     4 PHE5       22 GROUP   
     5 GLY6       31 GROUP   
     6 CUB7       34 GROUP   
@<TRIPOS>SET

