#    Name: 6m81_7_SAH_CAVITY_N1_4
#    Modification time : Fri May 22 19:27:02 2020

@<TRIPOS>MOLECULE
6m81_7_SAH_CAVITY_N1_4
   65     0     7     0     0
SMALL
NO_CHARGES


@<TRIPOS>ATOM
      1 OG         40.1700   -0.6100  126.6900 O.3       1 SER1        0.0000 
      2 OG         40.6900    0.4500  125.7600 O.3       1 SER1        0.0000 
      3 OG         43.2000    0.8400  125.2100 O.3       1 SER1        0.0000 
      4 OG         43.7300    1.9000  124.2900 O.3       1 SER1        0.0000 
      5 OG         41.2300   -0.2600  127.6900 O.3       1 SER1        0.0000 
      6 OG         41.7600    0.8000  126.7600 O.3       1 SER1        0.0000 
      7 OG         42.2800    1.8500  125.8400 O.3       1 SER1        0.0000 
      8 OG         40.3100    0.7500  128.3100 O.3       1 SER1        0.0000 
      9 OG         41.8900    3.9100  125.5300 O.3       1 SER1        0.0000 
     10 OG         36.8900   -0.4000  132.3400 O.3       1 SER1        0.0000 
     11 OG         43.7400    0.1400  127.1400 O.3       1 SER1        0.0000 
     12 OG         42.8200    1.1400  127.7600 O.3       1 SER1        0.0000 
     13 OG         43.3400    2.2000  126.8400 O.3       1 SER1        0.0000 
     14 N          43.5900    0.5400  122.6600 N.am      2 ALA2        0.0000 
     15 N          42.1400    0.4900  124.2100 N.am      2 ALA2        0.0000 
     16 N          42.6700    1.5500  123.2900 N.am      2 ALA2        0.0000 
     17 N          41.2200    1.5000  124.8400 N.am      2 ALA2        0.0000 
     18 N          35.6900   -3.8700  132.5700 N.am      2 ALA2        0.0000 
     19 N          44.2600    1.1900  126.2100 N.am      2 ALA2        0.0000 
     20 OD1        34.6300   -4.2200  131.5700 O.co2     3 ASP3        0.0000 
     21 OD1        33.7100   -3.2100  132.1900 O.co2     3 ASP3        0.0000 
     22 NZ         35.0200   -4.5200  129.0200 N.4       4 LYS4        0.0000 
     23 NZ         38.1900    0.0500  126.3100 N.4       4 LYS4        0.0000 
     24 NZ         36.7400    0.0000  127.8600 N.4       4 LYS4        0.0000 
     25 NZ         37.2700    1.0600  126.9400 N.4       4 LYS4        0.0000 
     26 NZ         39.7700    1.4500  126.3900 N.4       4 LYS4        0.0000 
     27 CZ         38.1900   -1.7100  129.1700 C.ar      5 PHE5        0.0000 
     28 CZ         38.7200   -0.6600  128.2400 C.ar      5 PHE5        0.0000 
     29 CZ         37.2700   -0.7000  129.7900 C.ar      5 PHE5        0.0000 
     30 CZ         37.8000    0.3500  128.8600 C.ar      5 PHE5        0.0000 
     31 CZ         38.3300    1.4100  127.9400 C.ar      5 PHE5        0.0000 
     32 CZ         38.8500    2.4600  127.0100 C.ar      5 PHE5        0.0000 
     33 CZ         40.8400    1.8000  127.3900 C.ar      5 PHE5        0.0000 
     34 CZ         41.3600    2.8600  126.4600 C.ar      5 PHE5        0.0000 
     35 CZ         38.3300   -0.3600  130.7900 C.ar      5 PHE5        0.0000 
     36 CZ         38.8600    0.7000  129.8600 C.ar      5 PHE5        0.0000 
     37 CZ         39.9200    2.8100  128.0100 C.ar      5 PHE5        0.0000 
     38 CZ         40.4400    3.8700  127.0900 C.ar      5 PHE5        0.0000 
     39 CZ         37.4100    0.6500  131.4100 C.ar      5 PHE5        0.0000 
     40 CZ         41.9000    2.1500  128.3900 C.ar      5 PHE5        0.0000 
     41 CZ         42.4200    3.2100  127.4600 C.ar      5 PHE5        0.0000 
     42 CA         35.5400   -3.4600  128.0900 C.3       6 GLY6        0.0000 
     43 CA         36.0700   -2.4100  127.1600 C.3       6 GLY6        0.0000 
     44 CA         34.1000   -3.5100  129.6400 C.3       6 GLY6        0.0000 
     45 CA         36.0800   -4.1700  130.0200 C.3       6 GLY6        0.0000 
     46 CA         36.6000   -3.1200  129.0900 C.3       6 GLY6        0.0000 
     47 CA         37.1300   -2.0600  128.1600 C.3       6 GLY6        0.0000 
     48 CA         37.6600   -1.0100  127.2400 C.3       6 GLY6        0.0000 
     49 CA         35.1600   -3.1600  130.6400 C.3       6 GLY6        0.0000 
     50 CA         35.6800   -2.1100  129.7100 C.3       6 GLY6        0.0000 
     51 CA         36.2100   -1.0500  128.7900 C.3       6 GLY6        0.0000 
     52 CA         39.6400   -1.6600  127.6100 C.3       6 GLY6        0.0000 
     53 CA         41.7500    2.5600  123.9100 C.3       6 GLY6        0.0000 
     54 CA         37.1400   -3.8200  131.0200 C.3       6 GLY6        0.0000 
     55 CA         37.6600   -2.7700  130.0900 C.3       6 GLY6        0.0000 
     56 CA         40.3000    2.5100  125.4600 C.3       6 GLY6        0.0000 
     57 CA         40.8300    3.5600  124.5300 C.3       6 GLY6        0.0000 
     58 CA         36.2200   -2.8200  131.6400 C.3       6 GLY6        0.0000 
     59 CA         36.7500   -1.7600  130.7200 C.3       6 GLY6        0.0000 
     60 CA         39.3800    3.5200  126.0800 C.3       6 GLY6        0.0000 
     61 CA         35.3000   -1.8100  132.2700 C.3       6 GLY6        0.0000 
     62 CA         35.8300   -0.7500  131.3400 C.3       6 GLY6        0.0000 
     63 CA         34.9100    0.2500  131.9600 C.3       6 GLY6        0.0000 
     64 CA         36.3600   -1.4600  133.2700 C.3       6 GLY6        0.0000 
     65 DU         39.2500    0.4000  127.3100 H         7 CUB7        0.0000 
@<TRIPOS>BOND
@<TRIPOS>SUBSTRUCTURE
     1 SER1        1 GROUP   
     2 ALA2       14 GROUP   
     3 ASP3       20 GROUP   
     4 LYS4       22 GROUP   
     5 PHE5       27 GROUP   
     6 GLY6       42 GROUP   
     7 CUB7       65 GROUP   
@<TRIPOS>SET

