#    Name: 6m81_4_TLO
#    Modification time : Fri May 22 19:26:56 2020

@<TRIPOS>MOLECULE
6m81_4_TLO
   31    33     1     0     0
SMALL
NO_CHARGES


@<TRIPOS>ATOM
      1 N1         99.2530   -7.9940   99.0460 N.am      1 TLO302      0.0000 
      2 C2         99.6300   -6.7700   99.6560 C.2       1 TLO302      0.0000 
      3 O2        100.6400   -6.1750   99.2560 O.2       1 TLO302      0.0000 
      4 N3         98.9020   -6.2450  100.6680 N.am      1 TLO302      0.0000 
      5 C4         97.7890   -6.8850  101.1030 C.2       1 TLO302      0.0000 
      6 O4         97.1310   -6.3780  102.0370 O.2       1 TLO302      0.0000 
      7 C5         97.4000   -8.1000  100.5160 C.2       1 TLO302      0.0000 
      8 C6         98.1560   -8.6370   99.4710 C.2       1 TLO302      0.0000 
      9 PA         98.7050  -13.6370   95.2700 P.3       1 TLO302      0.0000 
     10 PB         97.5860  -12.2030   92.9750 P.3       1 TLO302      0.0000 
     11 CG         98.6910  -10.3740   91.3510 C.ar      1 TLO302      0.0000 
     12 CZ         98.6270   -8.7740   89.0750 C.ar      1 TLO302      0.0000 
     13 C1'       100.0380   -8.5250   97.9260 C.3       1 TLO302      0.0000 
     14 O1A        99.6760  -14.6670   94.7590 O.co2     1 TLO302      0.0000 
     15 O1B        96.3840  -11.5720   93.6120 O.co2     1 TLO302      0.0000 
     16 C2'       101.0280   -9.6470   98.2430 C.3       1 TLO302      0.0000 
     17 O2A        97.3650  -13.9740   95.8280 O.co2     1 TLO302      0.0000 
     18 O2B        97.4620  -13.2990   91.9550 O.co2     1 TLO302      0.0000 
     19 C3'       101.1010  -10.3630   96.8970 C.3       1 TLO302      0.0000 
     20 O3'       101.9970   -9.6280   96.0550 O.3       1 TLO302      0.0000 
     21 O3A        98.6280  -12.5220   94.1430 O.3       1 TLO302      0.0000 
     22 O3B        98.7240  -11.1490   92.4710 O.3       1 TLO302      0.0000 
     23 C4'        99.6970  -10.2430   96.3430 C.3       1 TLO302      0.0000 
     24 O4'        99.1170   -9.1050   96.9980 O.3       1 TLO302      0.0000 
     25 C5'        98.8250  -11.4420   96.6910 C.3       1 TLO302      0.0000 
     26 O5'        99.4760  -12.6490   96.2900 O.3       1 TLO302      0.0000 
     27 C5M        96.1800   -8.8410  101.0020 C.3       1 TLO302      0.0000 
     28 CD1        97.4680   -9.9490   90.8300 C.ar      1 TLO302      0.0000 
     29 CD2        99.8940  -10.0060   90.7490 C.ar      1 TLO302      0.0000 
     30 CE1        97.4380   -9.1420   89.7000 C.ar      1 TLO302      0.0000 
     31 CE2        99.8460   -9.2050   89.6010 C.ar      1 TLO302      0.0000 
@<TRIPOS>BOND
     1    1    2 1    
     2    1    8 1    
     3    1   13 1    
     4    2    3 2    
     5    2    4 1    
     6    4    5 1    
     7    5    6 2    
     8    5    7 1    
     9    7    8 2    
    10    7   27 1    
    11    9   14 ar   
    12    9   17 ar   
    13    9   21 1    
    14    9   26 1    
    15   10   15 ar   
    16   10   18 ar   
    17   10   21 1    
    18   10   22 1    
    19   11   22 1    
    20   11   28 ar   
    21   11   29 ar   
    22   12   30 ar   
    23   12   31 ar   
    24   13   16 1    
    25   13   24 1    
    26   16   19 1    
    27   19   20 1    
    28   19   23 1    
    29   23   24 1    
    30   23   25 1    
    31   25   26 1    
    32   28   30 ar   
    33   29   31 ar   
@<TRIPOS>SUBSTRUCTURE
     1 TLO302      1 GROUP   
@<TRIPOS>SET

