#    Name: 6m81_3_SAH
#    Modification time : Fri May 22 19:26:47 2020

@<TRIPOS>MOLECULE
6m81_3_SAH
   26    28     1     0     0
SMALL
NO_CHARGES


@<TRIPOS>ATOM
      1 N          93.1300   -8.3680   82.7570 N.4       1 SAH301      0.0000 
      2 CA         93.3740   -9.8180   82.6870 C.3       1 SAH301      0.0000 
      3 CB         94.8650  -10.1920   82.7100 C.3       1 SAH301      0.0000 
      4 CG         95.7570   -9.5880   83.7910 C.3       1 SAH301      0.0000 
      5 SD         97.4100  -10.3830   83.8940 S.3       1 SAH301      0.0000 
      6 C          92.6530  -10.5070   83.8430 C.2       1 SAH301      0.0000 
      7 O          92.7380  -11.7330   84.0410 O.co2     1 SAH301      0.0000 
      8 OXT        91.9320   -9.8380   84.5800 O.co2     1 SAH301      0.0000 
      9 C5'        98.3430   -8.9720   83.2150 C.3       1 SAH301      0.0000 
     10 C4'        98.2320   -8.8820   81.6750 C.3       1 SAH301      0.0000 
     11 O4'        98.8980   -7.7150   81.2020 O.3       1 SAH301      0.0000 
     12 C3'        98.8890  -10.0420   80.9280 C.3       1 SAH301      0.0000 
     13 O3'        98.0060  -10.6010   79.9720 O.3       1 SAH301      0.0000 
     14 C2'       100.0830   -9.4170   80.2130 C.3       1 SAH301      0.0000 
     15 O2'       100.4210  -10.0750   79.0220 O.3       1 SAH301      0.0000 
     16 C1'        99.5190   -8.0360   79.9720 C.3       1 SAH301      0.0000 
     17 N9        100.4550   -6.9610   79.7370 N.pl3     1 SAH301      0.0000 
     18 C8        101.5600   -6.6190   80.4710 C.2       1 SAH301      0.0000 
     19 N7        102.0900   -5.4930   79.9500 N.2       1 SAH301      0.0000 
     20 C5        101.2910   -5.0780   78.8940 C.ar      1 SAH301      0.0000 
     21 C6        101.3550   -4.0020   78.0140 C.ar      1 SAH301      0.0000 
     22 N6        102.3290   -3.0780   78.0780 N.pl3     1 SAH301      0.0000 
     23 N1        100.3620   -3.8710   77.0610 N.ar      1 SAH301      0.0000 
     24 C2         99.3470   -4.8050   76.9710 C.ar      1 SAH301      0.0000 
     25 N3         99.2770   -5.8720   77.8430 N.ar      1 SAH301      0.0000 
     26 C4        100.2560   -5.9990   78.7830 C.ar      1 SAH301      0.0000 
@<TRIPOS>BOND
     1    1    2 1    
     2    2    3 1    
     3    2    6 1    
     4    3    4 1    
     5    4    5 1    
     6    5    9 1    
     7    6    7 ar   
     8    6    8 ar   
     9    9   10 1    
    10   10   11 1    
    11   10   12 1    
    12   11   16 1    
    13   12   13 1    
    14   12   14 1    
    15   14   15 1    
    16   14   16 1    
    17   16   17 1    
    18   17   18 1    
    19   17   26 1    
    20   18   19 2    
    21   19   20 1    
    22   20   21 ar   
    23   20   26 ar   
    24   21   22 1    
    25   21   23 ar   
    26   23   24 ar   
    27   24   25 ar   
    28   25   26 ar   
@<TRIPOS>SUBSTRUCTURE
     1 SAH301      1 GROUP   
@<TRIPOS>SET

