#    Name: 6m81_8_TLO
#    Modification time : Fri May 22 19:27:05 2020

@<TRIPOS>MOLECULE
6m81_8_TLO
   31    33     1     0     0
SMALL
NO_CHARGES


@<TRIPOS>ATOM
      1 N1         55.1890   -0.2030  134.9550 N.am      1 TLO302      0.0000 
      2 C2         56.1550    0.5330  134.2170 C.2       1 TLO302      0.0000 
      3 O2         55.8960    1.6930  133.8320 O.2       1 TLO302      0.0000 
      4 N3         57.3760    0.0260  133.9230 N.am      1 TLO302      0.0000 
      5 C4         57.6370   -1.2330  134.3390 C.2       1 TLO302      0.0000 
      6 O4         58.7300   -1.7950  134.1030 O.2       1 TLO302      0.0000 
      7 C5         56.7030   -1.9450  135.0490 C.2       1 TLO302      0.0000 
      8 C6         55.4440   -1.4600  135.3740 C.2       1 TLO302      0.0000 
      9 PA         52.1900    5.4890  132.6210 P.3       1 TLO302      0.0000 
     10 PB         49.9840    4.2240  131.3490 P.3       1 TLO302      0.0000 
     11 CG         48.5620    2.1750  130.8380 C.ar      1 TLO302      0.0000 
     12 CZ         45.9960    1.2160  130.2920 C.ar      1 TLO302      0.0000 
     13 C1'        53.8660    0.3710  135.2230 C.3       1 TLO302      0.0000 
     14 O1A        51.1760    6.4080  133.2870 O.co2     1 TLO302      0.0000 
     15 O1B        49.5780    4.9580  130.0990 O.co2     1 TLO302      0.0000 
     16 C2'        53.7820    1.5100  136.2280 C.3       1 TLO302      0.0000 
     17 O2A        53.4380    6.0180  131.9460 O.co2     1 TLO302      0.0000 
     18 O2B        49.3260    4.5330  132.6830 O.co2     1 TLO302      0.0000 
     19 C3'        52.5780    2.2770  135.6760 C.3       1 TLO302      0.0000 
     20 O3'        51.3600    1.6620  136.0970 O.3       1 TLO302      0.0000 
     21 O3A        51.5600    4.4830  131.5180 O.3       1 TLO302      0.0000 
     22 O3B        49.8280    2.6490  131.0860 O.3       1 TLO302      0.0000 
     23 C4'        52.5940    2.0600  134.1760 C.3       1 TLO302      0.0000 
     24 O4'        53.3610    0.8710  133.9740 O.3       1 TLO302      0.0000 
     25 C5'        53.2310    3.2220  133.4180 C.3       1 TLO302      0.0000 
     26 O5'        52.6060    4.4490  133.7790 O.3       1 TLO302      0.0000 
     27 C5M        57.1150   -3.3120  135.4160 C.3       1 TLO302      0.0000 
     28 CD1        47.5070    2.4620  131.7120 C.ar      1 TLO302      0.0000 
     29 CD2        48.3240    1.4120  129.6930 C.ar      1 TLO302      0.0000 
     30 CE1        46.2280    1.9880  131.4330 C.ar      1 TLO302      0.0000 
     31 CE2        47.0440    0.9320  129.4200 C.ar      1 TLO302      0.0000 
@<TRIPOS>BOND
     1    1    2 1    
     2    1    8 1    
     3    1   13 1    
     4    2    3 2    
     5    2    4 1    
     6    4    5 1    
     7    5    6 2    
     8    5    7 1    
     9    7    8 2    
    10    7   27 1    
    11    9   14 ar   
    12    9   17 ar   
    13    9   21 1    
    14    9   26 1    
    15   10   15 ar   
    16   10   18 ar   
    17   10   21 1    
    18   10   22 1    
    19   11   22 1    
    20   11   28 ar   
    21   11   29 ar   
    22   12   30 ar   
    23   12   31 ar   
    24   13   16 1    
    25   13   24 1    
    26   16   19 1    
    27   19   20 1    
    28   19   23 1    
    29   23   24 1    
    30   23   25 1    
    31   25   26 1    
    32   28   30 ar   
    33   29   31 ar   
@<TRIPOS>SUBSTRUCTURE
     1 TLO302      1 GROUP   
@<TRIPOS>SET

