#    Name: 6m81_1_SAH
#    Modification time : Fri May 22 19:26:38 2020

@<TRIPOS>MOLECULE
6m81_1_SAH
   26    28     1     0     0
SMALL
NO_CHARGES


@<TRIPOS>ATOM
      1 N          54.9270   -7.5850   83.1340 N.4       1 SAH301      0.0000 
      2 CA         55.2130   -9.0200   83.1610 C.3       1 SAH301      0.0000 
      3 CB         56.7120   -9.3570   83.3520 C.3       1 SAH301      0.0000 
      4 CG         57.4140   -8.8070   84.5960 C.3       1 SAH301      0.0000 
      5 SD         59.0450   -9.5790   84.9580 S.3       1 SAH301      0.0000 
      6 C          54.3840   -9.6420   84.2790 C.2       1 SAH301      0.0000 
      7 O          54.4450  -10.8590   84.5030 O.co2     1 SAH301      0.0000 
      8 OXT        53.6190   -8.9440   84.9630 O.co2     1 SAH301      0.0000 
      9 C5'        60.0290   -8.1760   84.3910 C.3       1 SAH301      0.0000 
     10 C4'        60.1140   -8.1420   82.8620 C.3       1 SAH301      0.0000 
     11 O4'        60.7860   -6.9530   82.4930 O.3       1 SAH301      0.0000 
     12 C3'        60.9360   -9.2880   82.2830 C.3       1 SAH301      0.0000 
     13 O3'        60.2200   -9.9540   81.2650 O.3       1 SAH301      0.0000 
     14 C2'        62.1600   -8.6010   81.6890 C.3       1 SAH301      0.0000 
     15 O2'        62.6740   -9.2370   80.5430 O.3       1 SAH301      0.0000 
     16 C1'        61.5530   -7.2520   81.3520 C.3       1 SAH301      0.0000 
     17 N9         62.5120   -6.1700   81.1970 N.pl3     1 SAH301      0.0000 
     18 C8         63.5620   -5.8640   82.0410 C.2       1 SAH301      0.0000 
     19 N7         64.1640   -4.7500   81.5590 N.2       1 SAH301      0.0000 
     20 C5         63.5150   -4.3660   80.4280 C.ar      1 SAH301      0.0000 
     21 C6         63.7340   -3.3240   79.5550 C.ar      1 SAH301      0.0000 
     22 N6         64.7390   -2.4750   79.7470 N.pl3     1 SAH301      0.0000 
     23 N1         62.8840   -3.1790   78.4820 N.ar      1 SAH301      0.0000 
     24 C2         61.8510   -4.0740   78.2800 C.ar      1 SAH301      0.0000 
     25 N3         61.6360   -5.1180   79.1480 N.ar      1 SAH301      0.0000 
     26 C4         62.4720   -5.2480   80.2040 C.ar      1 SAH301      0.0000 
@<TRIPOS>BOND
     1    1    2 1    
     2    2    3 1    
     3    2    6 1    
     4    3    4 1    
     5    4    5 1    
     6    5    9 1    
     7    6    7 ar   
     8    6    8 ar   
     9    9   10 1    
    10   10   11 1    
    11   10   12 1    
    12   11   16 1    
    13   12   13 1    
    14   12   14 1    
    15   14   15 1    
    16   14   16 1    
    17   16   17 1    
    18   17   18 1    
    19   17   26 1    
    20   18   19 2    
    21   19   20 1    
    22   20   21 ar   
    23   20   26 ar   
    24   21   22 1    
    25   21   23 ar   
    26   23   24 ar   
    27   24   25 ar   
    28   25   26 ar   
@<TRIPOS>SUBSTRUCTURE
     1 SAH301      1 GROUP   
@<TRIPOS>SET

