#    Name: 6m81_2_TLO_CAVITY_N1_4
#    Modification time : Fri May 22 19:26:44 2020

@<TRIPOS>MOLECULE
6m81_2_TLO_CAVITY_N1_4
  124     0     6     0     0
SMALL
NO_CHARGES


@<TRIPOS>ATOM
      1 OG         59.1500  -10.3800   87.5000 O.3       1 SER1        0.0000 
      2 OG         59.2800   -7.2600   86.2700 O.3       1 SER1        0.0000 
      3 OG         60.3600  -12.2000   95.8400 O.3       1 SER1        0.0000 
      4 OG         56.5500  -11.2900   99.5600 O.3       1 SER1        0.0000 
      5 OG         61.4200  -11.8500   96.8400 O.3       1 SER1        0.0000 
      6 OG         61.5600  -10.4900   98.4600 O.3       1 SER1        0.0000 
      7 OG         62.0900   -9.4400   97.5400 O.3       1 SER1        0.0000 
      8 OG         61.1700   -8.4300   98.1600 O.3       1 SER1        0.0000 
      9 OG         58.8100   -7.4700  100.3300 O.3       1 SER1        0.0000 
     10 OG         62.2300   -8.0800   99.1600 O.3       1 SER1        0.0000 
     11 OG         60.7900   -8.1300  100.7100 O.3       1 SER1        0.0000 
     12 OG         60.3900   -6.0700  100.4100 O.3       1 SER1        0.0000 
     13 N          58.7500   -8.3100   87.2000 N.am      2 ALA2        0.0000 
     14 N          59.2900   -9.0200   89.1300 N.am      2 ALA2        0.0000 
     15 N          59.8200   -7.9700   88.2000 N.am      2 ALA2        0.0000 
     16 N          59.4300   -7.6700   90.7500 N.am      2 ALA2        0.0000 
     17 O          58.6600   -8.8300   98.7100 O.2       2 ALA2        0.0000 
     18 O          59.1900   -7.7700   97.7800 O.2       2 ALA2        0.0000 
     19 O          60.2500   -7.4200   98.7800 O.2       2 ALA2        0.0000 
     20 O          59.3300   -6.4200   99.4100 O.2       2 ALA2        0.0000 
     21 OD1        54.4200  -10.2200   94.7000 O.co2     3 ASP3        0.0000 
     22 OD1        59.6900  -12.8500   92.2800 O.co2     3 ASP3        0.0000 
     23 OD1        60.2100  -11.7900   91.3600 O.co2     3 ASP3        0.0000 
     24 OD1        58.7700  -11.8400   92.9100 O.co2     3 ASP3        0.0000 
     25 OD1        57.8500  -10.8300   93.5300 O.co2     3 ASP3        0.0000 
     26 OD1        58.3700   -9.7800   92.6100 O.co2     3 ASP3        0.0000 
     27 OD1        58.9000   -8.7200   91.6800 O.co2     3 ASP3        0.0000 
     28 OD1        55.8700  -11.9400   96.0100 O.co2     3 ASP3        0.0000 
     29 OD1        56.4000  -10.8800   95.0800 O.co2     3 ASP3        0.0000 
     30 OD1        55.4800   -9.8700   95.7100 O.co2     3 ASP3        0.0000 
     31 OD1        61.2800  -11.4400   92.3600 O.co2     3 ASP3        0.0000 
     32 OD1        59.8300  -11.4900   93.9100 O.co2     3 ASP3        0.0000 
     33 OD1        57.3300  -13.6500   97.3100 O.co2     3 ASP3        0.0000 
     34 OD1        57.8500  -12.5900   96.3900 O.co2     3 ASP3        0.0000 
     35 OD1        58.3800  -11.5400   95.4600 O.co2     3 ASP3        0.0000 
     36 OD1        58.9100  -10.4800   94.5300 O.co2     3 ASP3        0.0000 
     37 OD1        59.4400   -9.4300   93.6100 O.co2     3 ASP3        0.0000 
     38 OD1        56.9300  -11.5900   97.0100 O.co2     3 ASP3        0.0000 
     39 OD1        57.4600  -10.5300   96.0800 O.co2     3 ASP3        0.0000 
     40 OD1        56.5400   -9.5200   96.7100 O.co2     3 ASP3        0.0000 
     41 OD1        55.6200   -8.5200   97.3300 O.co2     3 ASP3        0.0000 
     42 OD1        58.5200  -10.1800   97.0800 O.co2     3 ASP3        0.0000 
     43 OD1        59.0500   -9.1300   96.1600 O.co2     3 ASP3        0.0000 
     44 OD1        57.6000   -9.1800   97.7100 O.co2     3 ASP3        0.0000 
     45 OD1        58.1300   -8.1200   96.7800 O.co2     3 ASP3        0.0000 
     46 CZ         57.6900   -8.6600   86.2000 C.ar      4 PHE5        0.0000 
     47 CZ         58.6200  -11.4300   88.4300 C.ar      4 PHE5        0.0000 
     48 CZ         59.6700   -9.3200   86.5800 C.ar      4 PHE5        0.0000 
     49 CZ         60.2000   -8.2700   85.6500 C.ar      4 PHE5        0.0000 
     50 CZ         58.2300   -9.3700   88.1300 C.ar      4 PHE5        0.0000 
     51 CZ         55.2000  -12.5800   92.4600 C.ar      4 PHE5        0.0000 
     52 CZ         54.2800  -11.5800   93.0800 C.ar      4 PHE5        0.0000 
     53 CZ         61.1300  -11.0400   87.8800 C.ar      4 PHE5        0.0000 
     54 CZ         60.7300   -8.9700   87.5800 C.ar      4 PHE5        0.0000 
     55 CZ         57.7100  -12.1900   91.9100 C.ar      4 PHE5        0.0000 
     56 CZ         58.2300  -11.1300   90.9800 C.ar      4 PHE5        0.0000 
     57 CZ         58.7600  -10.0800   90.0500 C.ar      4 PHE5        0.0000 
     58 CZ         60.3400   -6.9100   87.2700 C.ar      4 PHE5        0.0000 
     59 CZ         56.7900  -11.1800   92.5300 C.ar      4 PHE5        0.0000 
     60 CZ         57.8400   -9.0700   90.6800 C.ar      4 PHE5        0.0000 
     61 CZ         55.3400  -11.2300   94.0800 C.ar      4 PHE5        0.0000 
     62 CZ         55.8700  -10.1700   93.1500 C.ar      4 PHE5        0.0000 
     63 CZ         62.1900  -10.6900   88.8800 C.ar      4 PHE5        0.0000 
     64 CZ         62.7200   -9.6300   87.9500 C.ar      4 PHE5        0.0000 
     65 CZ         61.8000   -8.6200   88.5800 C.ar      4 PHE5        0.0000 
     66 CZ         60.8800   -7.6200   89.2000 C.ar      4 PHE5        0.0000 
     67 CZ         62.7200  -11.3900   90.8100 C.ar      4 PHE5        0.0000 
     68 CZ         63.2500  -10.3400   89.8800 C.ar      4 PHE5        0.0000 
     69 CZ         59.9600   -8.3700   92.6800 C.ar      4 PHE5        0.0000 
     70 CZ         60.4900   -7.3200   91.7500 C.ar      4 PHE5        0.0000 
     71 CZ         59.9700  -10.1300   95.5300 C.ar      4 PHE5        0.0000 
     72 CZ         60.5000   -9.0800   94.6100 C.ar      4 PHE5        0.0000 
     73 CZ         57.4700  -12.2900   98.9400 C.ar      4 PHE5        0.0000 
     74 CZ         58.0000  -11.2400   98.0100 C.ar      4 PHE5        0.0000 
     75 CZ         57.0800  -10.2300   98.6300 C.ar      4 PHE5        0.0000 
     76 CZ         56.1600   -9.2200   99.2600 C.ar      4 PHE5        0.0000 
     77 CZ         56.6800   -8.1700   98.3300 C.ar      4 PHE5        0.0000 
     78 CZ         59.9800  -11.9000   98.3900 C.ar      4 PHE5        0.0000 
     79 CZ         59.0600  -10.8900   99.0100 C.ar      4 PHE5        0.0000 
     80 CZ         59.5800   -9.8300   98.0900 C.ar      4 PHE5        0.0000 
     81 CZ         60.1100   -8.7800   97.1600 C.ar      4 PHE5        0.0000 
     82 CZ         58.1400   -9.8800   99.6400 C.ar      4 PHE5        0.0000 
     83 CZ         57.2200   -8.8700  100.2600 C.ar      4 PHE5        0.0000 
     84 CZ         57.7400   -7.8200   99.3300 C.ar      4 PHE5        0.0000 
     85 CZ         56.3000   -7.8700  100.8800 C.ar      4 PHE5        0.0000 
     86 CZ         60.6400   -9.4900   99.0900 C.ar      4 PHE5        0.0000 
     87 CZ         61.7000   -7.3700   97.2300 C.ar      4 PHE5        0.0000 
     88 CZ         59.2000   -9.5300  100.6400 C.ar      4 PHE5        0.0000 
     89 CZ         59.7300   -8.4800   99.7100 C.ar      4 PHE5        0.0000 
     90 CZ         60.7800   -6.3700   97.8600 C.ar      4 PHE5        0.0000 
     91 CZ         58.2800   -8.5300  101.2600 C.ar      4 PHE5        0.0000 
     92 CZ         57.3600   -7.5200  101.8900 C.ar      4 PHE5        0.0000 
     93 CZ         57.8900   -6.4600  100.9600 C.ar      4 PHE5        0.0000 
     94 CZ         62.7600   -7.0300   98.2400 C.ar      4 PHE5        0.0000 
     95 CZ         61.3100   -7.0700   99.7900 C.ar      4 PHE5        0.0000 
     96 CZ         61.8400   -6.0200   98.8600 C.ar      4 PHE5        0.0000 
     97 CZ         60.9200   -5.0100   99.4800 C.ar      4 PHE5        0.0000 
     98 CA         54.2800  -13.3400   95.9300 C.3       5 GLY6        0.0000 
     99 CA         54.8100  -12.2800   95.0100 C.3       5 GLY6        0.0000 
    100 CA         60.3500   -8.6700   90.1300 C.3       5 GLY6        0.0000 
    101 CA         59.9600   -6.6100   89.8300 C.3       5 GLY6        0.0000 
    102 CA         61.8000  -10.3900   91.4300 C.3       5 GLY6        0.0000 
    103 CA         62.3300   -9.3300   90.5100 C.3       5 GLY6        0.0000 
    104 CA         60.3600  -10.4400   92.9800 C.3       5 GLY6        0.0000 
    105 CA         60.8800   -9.3800   92.0600 C.3       5 GLY6        0.0000 
    106 CA         61.4100   -8.3200   91.1300 C.3       5 GLY6        0.0000 
    107 CA         62.8600  -10.0400   92.4300 C.3       5 GLY6        0.0000 
    108 CA         59.8300  -13.2500   96.7600 C.3       5 GLY6        0.0000 
    109 CA         60.8900  -11.1400   94.9100 C.3       5 GLY6        0.0000 
    110 CA         61.4200  -10.0900   93.9800 C.3       5 GLY6        0.0000 
    111 CA         61.9400   -9.0300   93.0600 C.3       5 GLY6        0.0000 
    112 CA         58.9100  -12.2500   97.3900 C.3       5 GLY6        0.0000 
    113 CA         61.0300   -9.7900   96.5400 C.3       5 GLY6        0.0000 
    114 CA         61.7100   -9.1400  100.0900 C.3       5 GLY6        0.0000 
    115 DU         59.6800  -11.0800   89.4300 H         6 CUB7        0.0000 
    116 DU         60.2100  -10.0300   88.5000 H         6 CUB7        0.0000 
    117 DU         60.7400  -10.7400   90.4300 H         6 CUB7        0.0000 
    118 DU         61.2700   -9.6800   89.5000 H         6 CUB7        0.0000 
    119 DU         59.2900  -10.7800   91.9800 H         6 CUB7        0.0000 
    120 DU         59.8200   -9.7300   91.0500 H         6 CUB7        0.0000 
    121 DU         54.9500  -10.9300   96.6300 H         6 CUB7        0.0000 
    122 DU         56.0100  -10.5800   97.6300 H         6 CUB7        0.0000 
    123 DU         59.4400  -11.1900   96.4600 H         6 CUB7        0.0000 
    124 DU         60.5000  -10.8400   97.4600 H         6 CUB7        0.0000 
@<TRIPOS>BOND
@<TRIPOS>SUBSTRUCTURE
     1 SER1        1 GROUP   
     2 ALA2       13 GROUP   
     3 ASP3       21 GROUP   
     4 PHE5       46 GROUP   
     5 GLY6       98 GROUP   
     6 CUB7      115 GROUP   
@<TRIPOS>SET

