#    Name: 6m81_3_SAH_CAVITY_N1_12
#    Modification time : Fri May 22 19:26:49 2020

@<TRIPOS>MOLECULE
6m81_3_SAH_CAVITY_N1_12
   97     0     7     0     0
SMALL
NO_CHARGES


@<TRIPOS>ATOM
      1 OG         95.9700  -11.7200   82.6500 O.3       1 SER1        0.0000 
      2 OG         95.0500  -10.7100   83.2700 O.3       1 SER1        0.0000 
      3 OG         94.1300   -9.7000   83.9000 O.3       1 SER1        0.0000 
      4 OG         94.6600   -8.6500   82.9700 O.3       1 SER1        0.0000 
      5 OG         97.0300  -11.3700   83.6500 O.3       1 SER1        0.0000 
      6 OG         98.0900   -9.2600   81.8000 O.3       1 SER1        0.0000 
      7 OG         96.1100  -10.3600   84.2700 O.3       1 SER1        0.0000 
      8 OG         96.6400   -9.3100   83.3500 O.3       1 SER1        0.0000 
      9 OG         99.1500   -8.9100   82.8000 O.3       1 SER1        0.0000 
     10 OG         97.1700  -10.0100   85.2700 O.3       1 SER1        0.0000 
     11 OG         97.7000   -8.9600   84.3500 O.3       1 SER1        0.0000 
     12 OG         99.6800   -9.6200   84.7300 O.3       1 SER1        0.0000 
     13 OG         98.7600   -8.6100   85.3500 O.3       1 SER1        0.0000 
     14 OG         99.3000   -9.3200   87.2800 O.3       1 SER1        0.0000 
     15 OG         99.8200   -8.2600   86.3500 O.3       1 SER1        0.0000 
     16 OG        101.2800   -9.9800   87.6500 O.3       1 SER1        0.0000 
     17 OG        100.8900   -7.9100   87.3500 O.3       1 SER1        0.0000 
     18 O          94.5200  -10.0000   81.3400 O.2       2 ALA2        0.0000 
     19 N          95.5800   -9.6600   82.3500 N.am      2 ALA2        0.0000 
     20 N          96.2600   -9.0100   85.9000 N.am      2 ALA2        0.0000 
     21 N          98.2400   -9.6700   86.2800 N.am      2 ALA2        0.0000 
     22 N          96.7900   -9.7100   87.8300 N.am      2 ALA2        0.0000 
     23 N          97.8400   -7.6000   85.9700 N.am      2 ALA2        0.0000 
     24 N          97.8500   -9.3600   88.8300 N.am      2 ALA2        0.0000 
     25 N          98.3800   -8.3100   87.9000 N.am      2 ALA2        0.0000 
     26 N          98.9000   -7.2500   86.9700 N.am      2 ALA2        0.0000 
     27 N          99.4400   -7.9600   88.9000 N.am      2 ALA2        0.0000 
     28 N          99.9700   -6.9100   87.9800 N.am      2 ALA2        0.0000 
     29 OD1       100.6200  -14.1500   89.8100 O.co2     3 ASP3        0.0000 
     30 OD1        99.7000  -13.1400   90.4300 O.co2     3 ASP3        0.0000 
     31 OD1        98.2500  -13.1900   91.9800 O.co2     3 ASP3        0.0000 
     32 OD1        98.7800  -12.1300   91.0600 O.co2     3 ASP3        0.0000 
     33 OD1        96.4100  -11.1700   93.2300 O.co2     3 ASP3        0.0000 
     34 OD1        96.9400  -10.1200   92.3100 O.co2     3 ASP3        0.0000 
     35 OD1        97.4600   -9.0600   91.3800 O.co2     3 ASP3        0.0000 
     36 OD1        99.3100  -12.8400   92.9800 O.co2     3 ASP3        0.0000 
     37 OD1        97.4700  -10.8300   94.2300 O.co2     3 ASP3        0.0000 
     38 NZ         97.9500  -10.6200   80.1700 N.4       4 LYS4        0.0000 
     39 NZ         97.0300   -9.6100   80.8000 N.4       4 LYS4        0.0000 
     40 CZ         98.4800  -11.3200   82.1000 C.ar      5 PHE5        0.0000 
     41 CZ         99.0100  -10.2700   81.1700 C.ar      5 PHE5        0.0000 
     42 CZ         98.0900  -11.0200   84.6500 C.ar      5 PHE5        0.0000 
     43 CZ         98.6200   -9.9700   83.7200 C.ar      5 PHE5        0.0000 
     44 CZ         99.5500  -12.7400   85.9500 C.ar      5 PHE5        0.0000 
     45 CZ         98.6300  -11.7300   86.5800 C.ar      5 PHE5        0.0000 
     46 CZ         99.1600  -10.6700   85.6500 C.ar      5 PHE5        0.0000 
     47 CZ         97.1800  -11.7800   88.1300 C.ar      5 PHE5        0.0000 
     48 CZ         97.7100  -10.7200   87.2000 C.ar      5 PHE5        0.0000 
     49 CZ        100.6100  -12.3900   86.9600 C.ar      5 PHE5        0.0000 
     50 CZ         98.6300  -13.4900   89.4300 C.ar      5 PHE5        0.0000 
     51 CZ        100.2200  -10.3200   86.6500 C.ar      5 PHE5        0.0000 
     52 CZ         97.1900  -13.5400   90.9800 C.ar      5 PHE5        0.0000 
     53 CZ         97.7200  -12.4800   90.0600 C.ar      5 PHE5        0.0000 
     54 CZ         98.2400  -11.4300   89.1300 C.ar      5 PHE5        0.0000 
     55 CZ         96.2700  -12.5300   91.6100 C.ar      5 PHE5        0.0000 
     56 CZ         96.8000  -11.4800   90.6800 C.ar      5 PHE5        0.0000 
     57 CZ         97.3200  -10.4200   89.7500 C.ar      5 PHE5        0.0000 
     58 CZ         96.4000   -9.4100   90.3800 C.ar      5 PHE5        0.0000 
     59 CZ        101.6700  -12.0400   87.9600 C.ar      5 PHE5        0.0000 
     60 CZ        102.2000  -10.9800   87.0300 C.ar      5 PHE5        0.0000 
     61 CZ         98.3800  -10.0700   90.7500 C.ar      5 PHE5        0.0000 
     62 CZ         98.9100   -9.0200   89.8300 C.ar      5 PHE5        0.0000 
     63 CZ         98.9200  -10.7800   92.6800 C.ar      5 PHE5        0.0000 
     64 CZ         99.4400   -9.7200   91.7600 C.ar      5 PHE5        0.0000 
     65 CZ         99.9700   -8.6700   90.8300 C.ar      5 PHE5        0.0000 
     66 CZ         98.0000   -9.7700   93.3100 C.ar      5 PHE5        0.0000 
     67 CZ         98.5300  -10.4800   95.2300 C.ar      5 PHE5        0.0000 
     68 CA         93.9900  -11.0600   82.2700 C.3       6 GLY6        0.0000 
     69 CA         96.5000  -10.6600   81.7200 C.3       6 GLY6        0.0000 
     70 CA         95.1900   -9.3600   84.9000 C.3       6 GLY6        0.0000 
     71 CA        100.3600   -8.9700   88.2800 C.3       6 GLY6        0.0000 
     72 CA        102.2000  -12.7400   89.8800 C.3       6 GLY6        0.0000 
     73 CA        102.7300  -11.6900   88.9600 C.3       6 GLY6        0.0000 
     74 CA        100.7600  -12.7900   91.4300 C.3       6 GLY6        0.0000 
     75 CA        101.2800  -11.7400   90.5100 C.3       6 GLY6        0.0000 
     76 CA        101.8100  -10.6800   89.5800 C.3       6 GLY6        0.0000 
     77 CA        102.3400   -9.6300   88.6600 C.3       6 GLY6        0.0000 
     78 CA         99.8400  -11.7900   92.0600 C.3       6 GLY6        0.0000 
     79 CA        100.3600  -10.7300   91.1300 C.3       6 GLY6        0.0000 
     80 CA        100.8900   -9.6700   90.2100 C.3       6 GLY6        0.0000 
     81 CA        101.4200   -8.6200   89.2800 C.3       6 GLY6        0.0000 
     82 CA        100.5000   -7.6100   89.9000 C.3       6 GLY6        0.0000 
     83 CA        101.4300  -10.3800   92.1300 C.3       6 GLY6        0.0000 
     84 CA        101.9500   -9.3300   91.2100 C.3       6 GLY6        0.0000 
     85 CA         99.4500  -11.4900   94.6100 C.3       6 GLY6        0.0000 
     86 DU         97.5600  -10.3100   82.7200 H         7 CUB7        0.0000 
     87 DU         99.1600  -12.4300   88.5100 H         7 CUB7        0.0000 
     88 DU         99.6900  -11.3800   87.5800 H         7 CUB7        0.0000 
     89 DU         98.7700  -10.3700   88.2000 H         7 CUB7        0.0000 
     90 DU        101.1400  -13.0900   88.8800 H         7 CUB7        0.0000 
     91 DU        100.2200  -12.0900   89.5100 H         7 CUB7        0.0000 
     92 DU        100.7500  -11.0300   88.5800 H         7 CUB7        0.0000 
     93 DU         99.3000  -11.0800   90.1300 H         7 CUB7        0.0000 
     94 DU         99.8300  -10.0200   89.2000 H         7 CUB7        0.0000 
     95 DU         97.3300  -12.1800   92.6100 H         7 CUB7        0.0000 
     96 DU         97.8600  -11.1300   91.6800 H         7 CUB7        0.0000 
     97 DU         98.3900  -11.8300   93.6100 H         7 CUB7        0.0000 
@<TRIPOS>BOND
@<TRIPOS>SUBSTRUCTURE
     1 SER1        1 GROUP   
     2 ALA2       18 GROUP   
     3 ASP3       29 GROUP   
     4 LYS4       38 GROUP   
     5 PHE5       40 GROUP   
     6 GLY6       68 GROUP   
     7 CUB7       86 GROUP   
@<TRIPOS>SET

