#    Name: 6m81_7_SAH
#    Modification time : Fri May 22 19:27:00 2020

@<TRIPOS>MOLECULE
6m81_7_SAH
   26    28     1     0     0
SMALL
NO_CHARGES


@<TRIPOS>ATOM
      1 N          43.0710    0.1830  122.4170 N.4       1 SAH301      0.0000 
      2 CA         42.9680    1.6360  122.5820 C.3       1 SAH301      0.0000 
      3 CB         42.3360    2.0170  123.9260 C.3       1 SAH301      0.0000 
      4 CG         43.0630    1.5510  125.2080 C.3       1 SAH301      0.0000 
      5 SD         42.4220    2.3950  126.7040 S.3       1 SAH301      0.0000 
      6 C          44.3540    2.2700  122.4530 C.2       1 SAH301      0.0000 
      7 O          45.3340    1.5560  122.2150 O.co2     1 SAH301      0.0000 
      8 OXT        44.5310    3.4940  122.5680 O.co2     1 SAH301      0.0000 
      9 C5'        41.4340    0.9800  127.2860 C.3       1 SAH301      0.0000 
     10 C4'        40.0810    0.8780  126.5410 C.3       1 SAH301      0.0000 
     11 O4'        39.3990   -0.2890  126.9920 O.3       1 SAH301      0.0000 
     12 C3'        39.1390    2.0340  126.8830 C.3       1 SAH301      0.0000 
     13 O3'        38.5800    2.6200  125.7220 O.3       1 SAH301      0.0000 
     14 C2'        38.0110    1.4010  127.6670 C.3       1 SAH301      0.0000 
     15 O2'        36.8050    2.0660  127.4130 O.3       1 SAH301      0.0000 
     16 C1'        38.0060    0.0090  127.0740 C.3       1 SAH301      0.0000 
     17 N9         37.2990   -0.9980  127.8690 N.pl3     1 SAH301      0.0000 
     18 C8         37.3710   -1.2370  129.2310 C.2       1 SAH301      0.0000 
     19 N7         36.5900   -2.3040  129.5260 N.2       1 SAH301      0.0000 
     20 C5         36.0430   -2.7740  128.3760 C.ar      1 SAH301      0.0000 
     21 C6         35.1720   -3.8330  128.1010 C.ar      1 SAH301      0.0000 
     22 N6         34.7090   -4.6420  129.0600 N.pl3     1 SAH301      0.0000 
     23 N1         34.7950   -4.0320  126.7860 N.ar      1 SAH301      0.0000 
     24 C2         35.2530   -3.2140  125.7760 C.ar      1 SAH301      0.0000 
     25 N3         36.1120   -2.1670  126.0530 N.ar      1 SAH301      0.0000 
     26 C4         36.4920   -1.9650  127.3360 C.ar      1 SAH301      0.0000 
@<TRIPOS>BOND
     1    1    2 1    
     2    2    3 1    
     3    2    6 1    
     4    3    4 1    
     5    4    5 1    
     6    5    9 1    
     7    6    7 ar   
     8    6    8 ar   
     9    9   10 1    
    10   10   11 1    
    11   10   12 1    
    12   11   16 1    
    13   12   13 1    
    14   12   14 1    
    15   14   15 1    
    16   14   16 1    
    17   16   17 1    
    18   17   18 1    
    19   17   26 1    
    20   18   19 2    
    21   19   20 1    
    22   20   21 ar   
    23   20   26 ar   
    24   21   22 1    
    25   21   23 ar   
    26   23   24 ar   
    27   24   25 ar   
    28   25   26 ar   
@<TRIPOS>SUBSTRUCTURE
     1 SAH301      1 GROUP   
@<TRIPOS>SET

