#    Name: 6m81_2_TLO
#    Modification time : Fri May 22 19:26:43 2020

@<TRIPOS>MOLECULE
6m81_2_TLO
   31    33     1     0     0
SMALL
NO_CHARGES


@<TRIPOS>ATOM
      1 N1         59.1920   -6.7910  100.1290 N.am      1 TLO302      0.0000 
      2 C2         59.4170   -5.4770  100.6250 C.2       1 TLO302      0.0000 
      3 O2         60.4050   -4.8010  100.2710 O.2       1 TLO302      0.0000 
      4 N3         58.5530   -4.9080  101.4820 N.am      1 TLO302      0.0000 
      5 C4         57.4630   -5.5970  101.9010 C.2       1 TLO302      0.0000 
      6 O4         56.6790   -5.0560  102.7190 O.2       1 TLO302      0.0000 
      7 C5         57.2330   -6.8900  101.4360 C.2       1 TLO302      0.0000 
      8 C6         58.1140   -7.4770  100.5320 C.2       1 TLO302      0.0000 
      9 PA         59.3900  -12.3750   96.2150 P.3       1 TLO302      0.0000 
     10 PB         58.8200  -10.9610   93.7190 P.3       1 TLO302      0.0000 
     11 CG         59.7710   -9.2780   91.9140 C.ar      1 TLO302      0.0000 
     12 CZ         59.5220   -7.9970   89.4300 C.ar      1 TLO302      0.0000 
     13 C1'        60.0980   -7.3870   99.1230 C.3       1 TLO302      0.0000 
     14 O1A        60.6100  -13.2410   95.9600 O.co2     1 TLO302      0.0000 
     15 O1B        57.4570  -10.3520   93.9510 O.co2     1 TLO302      0.0000 
     16 C2'        61.2690   -8.1950   99.6490 C.3       1 TLO302      0.0000 
     17 O2A        57.9860  -12.9000   96.3830 O.co2     1 TLO302      0.0000 
     18 O2B        58.9670  -12.1970   92.8700 O.co2     1 TLO302      0.0000 
     19 C3'        61.6290   -8.9560   98.3790 C.3       1 TLO302      0.0000 
     20 O3'        62.4900   -8.2450   97.4980 O.3       1 TLO302      0.0000 
     21 O3A        59.4830  -11.1310   95.1870 O.3       1 TLO302      0.0000 
     22 O3B        59.8980   -9.8970   93.1380 O.3       1 TLO302      0.0000 
     23 C4'        60.3560   -9.1980   97.6190 C.3       1 TLO302      0.0000 
     24 O4'        59.4080   -8.2350   98.1520 O.3       1 TLO302      0.0000 
     25 C5'        60.3900  -10.6480   98.0850 C.3       1 TLO302      0.0000 
     26 O5'        59.4480  -11.5570   97.5990 O.3       1 TLO302      0.0000 
     27 C5M        56.0290   -7.6700  101.8930 C.3       1 TLO302      0.0000 
     28 CD1        58.5100   -8.8990   91.4320 C.ar      1 TLO302      0.0000 
     29 CD2        60.9110   -9.0070   91.1510 C.ar      1 TLO302      0.0000 
     30 CE1        58.3850   -8.2640   90.1980 C.ar      1 TLO302      0.0000 
     31 CE2        60.7800   -8.3700   89.9100 C.ar      1 TLO302      0.0000 
@<TRIPOS>BOND
     1    1    2 1    
     2    1    8 1    
     3    1   13 1    
     4    2    3 2    
     5    2    4 1    
     6    4    5 1    
     7    5    6 2    
     8    5    7 1    
     9    7    8 2    
    10    7   27 1    
    11    9   14 ar   
    12    9   17 ar   
    13    9   21 1    
    14    9   26 1    
    15   10   15 ar   
    16   10   18 ar   
    17   10   21 1    
    18   10   22 1    
    19   11   22 1    
    20   11   28 ar   
    21   11   29 ar   
    22   12   30 ar   
    23   12   31 ar   
    24   13   16 1    
    25   13   24 1    
    26   16   19 1    
    27   19   20 1    
    28   19   23 1    
    29   23   24 1    
    30   23   25 1    
    31   25   26 1    
    32   28   30 ar   
    33   29   31 ar   
@<TRIPOS>SUBSTRUCTURE
     1 TLO302      1 GROUP   
@<TRIPOS>SET

