#    Name: 6m81_1_SAH_CAVITY_N1_6
#    Modification time : Fri May 22 19:26:40 2020

@<TRIPOS>MOLECULE
6m81_1_SAH_CAVITY_N1_6
   70     0     6     0     0
SMALL
NO_CHARGES


@<TRIPOS>ATOM
      1 OG         56.4900  -10.3700   83.5700 O.3       1 SER1        0.0000 
      2 OG         55.5700   -9.3600   84.2000 O.3       1 SER1        0.0000 
      3 OG         58.4700  -11.0300   83.9500 O.3       1 SER1        0.0000 
      4 OG         58.0800   -8.9600   83.6500 O.3       1 SER1        0.0000 
      5 OG         56.6300   -9.0100   85.2000 O.3       1 SER1        0.0000 
      6 OG         57.1600   -7.9600   84.2700 O.3       1 SER1        0.0000 
      7 OG         58.6100   -9.6700   85.5700 O.3       1 SER1        0.0000 
      8 OG         59.1400   -8.6200   84.6500 O.3       1 SER1        0.0000 
      9 OG         59.6700   -7.5600   83.7200 O.3       1 SER1        0.0000 
     10 OG         60.1900   -6.5000   82.8000 O.3       1 SER1        0.0000 
     11 OG         62.1800   -7.1600   83.1700 O.3       1 SER1        0.0000 
     12 OG         60.7300   -7.2100   84.7200 O.3       1 SER1        0.0000 
     13 OG         61.2600   -6.1600   83.8000 O.3       1 SER1        0.0000 
     14 OG         59.2800   -7.2600   86.2700 O.3       1 SER1        0.0000 
     15 N          54.5100   -9.7100   83.1900 N.am      2 ALA2        0.0000 
     16 N          57.0200   -9.3100   82.6500 N.am      2 ALA2        0.0000 
     17 N          56.1000   -8.3100   83.2700 N.am      2 ALA2        0.0000 
     18 O          61.6400   -4.6900   78.3900 O.2       2 ALA2        0.0000 
     19 N          58.6100   -7.9100   82.7200 N.am      2 ALA2        0.0000 
     20 N          61.7800   -5.1000   82.8700 N.am      2 ALA2        0.0000 
     21 N          68.1100   -7.3800   81.4500 N.am      2 ALA2        0.0000 
     22 N          66.6600   -7.4300   83.0000 N.am      2 ALA2        0.0000 
     23 N          69.1700   -7.0300   82.4500 N.am      2 ALA2        0.0000 
     24 N          67.7300   -7.0800   84.0000 N.am      2 ALA2        0.0000 
     25 NZ         60.4500   -9.9200   81.4700 N.4       3 LYS4        0.0000 
     26 NZ         59.5300   -8.9200   82.1000 N.4       3 LYS4        0.0000 
     27 NZ         60.0500   -7.8600   81.1700 N.4       3 LYS4        0.0000 
     28 NZ         60.5800   -6.8100   80.2400 N.4       3 LYS4        0.0000 
     29 NZ         62.9500   -9.5300   80.9200 N.4       3 LYS4        0.0000 
     30 NZ         63.4800   -8.4700   80.0000 N.4       3 LYS4        0.0000 
     31 NZ         62.0300   -8.5200   81.5500 N.4       3 LYS4        0.0000 
     32 NZ         62.5600   -7.4600   80.6200 N.4       3 LYS4        0.0000 
     33 NZ         61.1100   -7.5100   82.1700 N.4       3 LYS4        0.0000 
     34 CZ         61.5100   -9.5700   82.4700 C.ar      4 PHE5        0.0000 
     35 CZ         59.5300  -10.6800   84.9500 C.ar      4 PHE5        0.0000 
     36 CZ         60.0600   -9.6200   84.0200 C.ar      4 PHE5        0.0000 
     37 CZ         60.5900   -8.5700   83.1000 C.ar      4 PHE5        0.0000 
     38 CZ         57.6900   -8.6600   86.2000 C.ar      4 PHE5        0.0000 
     39 CZ         64.5400   -8.1200   81.0000 C.ar      4 PHE5        0.0000 
     40 CZ         63.1000   -8.1700   82.5500 C.ar      4 PHE5        0.0000 
     41 CZ         61.6500   -8.2200   84.1000 C.ar      4 PHE5        0.0000 
     42 CZ         60.2000   -8.2700   85.6500 C.ar      4 PHE5        0.0000 
     43 CZ         65.6000   -7.7700   82.0000 C.ar      4 PHE5        0.0000 
     44 CZ         64.1600   -7.8200   83.5500 C.ar      4 PHE5        0.0000 
     45 CZ         64.6800   -6.7700   82.6200 C.ar      4 PHE5        0.0000 
     46 CZ         65.7400   -6.4200   83.6200 C.ar      4 PHE5        0.0000 
     47 CZ         66.8100   -6.0700   84.6300 C.ar      4 PHE5        0.0000 
     48 CA         59.9200  -10.9800   82.4000 C.3       5 GLY6        0.0000 
     49 CA         59.0000   -9.9700   83.0200 C.3       5 GLY6        0.0000 
     50 CA         61.1100   -5.7500   79.3200 C.3       5 GLY6        0.0000 
     51 CA         63.0900   -6.4100   79.6900 C.3       5 GLY6        0.0000 
     52 CA         61.6400   -6.4600   81.2400 C.3       5 GLY6        0.0000 
     53 CA         62.1700   -5.4000   80.3200 C.3       5 GLY6        0.0000 
     54 CA         62.7000   -4.3500   79.3900 C.3       5 GLY6        0.0000 
     55 CA         61.2500   -4.3900   80.9400 C.3       5 GLY6        0.0000 
     56 CA         65.0700   -7.0700   80.0700 C.3       5 GLY6        0.0000 
     57 CA         64.1500   -6.0600   80.7000 C.3       5 GLY6        0.0000 
     58 CA         63.2300   -5.0500   81.3200 C.3       5 GLY6        0.0000 
     59 CA         63.7600   -4.0000   80.3900 C.3       5 GLY6        0.0000 
     60 CA         62.3100   -4.0500   81.9400 C.3       5 GLY6        0.0000 
     61 CA         66.5200   -8.7800   81.3800 C.3       5 GLY6        0.0000 
     62 CA         66.1300   -6.7200   81.0700 C.3       5 GLY6        0.0000 
     63 CA         65.2100   -5.7100   81.7000 C.3       5 GLY6        0.0000 
     64 CA         63.7600   -5.7600   83.2500 C.3       5 GLY6        0.0000 
     65 CA         64.2900   -4.7000   82.3200 C.3       5 GLY6        0.0000 
     66 DU         63.6200   -7.1200   81.6200 H         6 CUB7        0.0000 
     67 DU         62.7000   -6.1100   82.2500 H         6 CUB7        0.0000 
     68 DU         67.1900   -6.3700   82.0700 H         6 CUB7        0.0000 
     69 DU         68.2500   -6.0200   83.0800 H         6 CUB7        0.0000 
     70 DU         69.3100   -5.6700   84.0800 H         6 CUB7        0.0000 
@<TRIPOS>BOND
@<TRIPOS>SUBSTRUCTURE
     1 SER1        1 GROUP   
     2 ALA2       15 GROUP   
     3 LYS4       25 GROUP   
     4 PHE5       34 GROUP   
     5 GLY6       48 GROUP   
     6 CUB7       66 GROUP   
@<TRIPOS>SET

