#    Name: 6m81_8_TLO_CAVITY_N1_8
#    Modification time : Fri May 22 19:27:06 2020

@<TRIPOS>MOLECULE
6m81_8_TLO_CAVITY_N1_8
  117     0     6     0     0
SMALL
NO_CHARGES


@<TRIPOS>ATOM
      1 OG         42.8200    1.1400  127.7600 O.3       1 SER1        0.0000 
      2 OG         43.8800    1.4900  128.7700 O.3       1 SER1        0.0000 
      3 OG         44.4000    2.5500  127.8400 O.3       1 SER1        0.0000 
      4 OG         44.4100    0.7900  130.6900 O.3       1 SER1        0.0000 
      5 OG         43.4900    1.7900  131.3200 O.3       1 SER1        0.0000 
      6 OG         47.0500    4.3000  128.9200 O.3       1 SER1        0.0000 
      7 OG         48.1200    4.6500  129.9200 O.3       1 SER1        0.0000 
      8 OG         51.7000    1.8700  136.0800 O.3       1 SER1        0.0000 
      9 OG         52.2300    2.9300  135.1500 O.3       1 SER1        0.0000 
     10 OG         51.8300    4.9900  134.8500 O.3       1 SER1        0.0000 
     11 OG         52.3600    6.0400  133.9200 O.3       1 SER1        0.0000 
     12 OG         55.5200   -0.8000  135.2100 O.3       1 SER1        0.0000 
     13 OG         54.6000    0.2000  135.8300 O.3       1 SER1        0.0000 
     14 OG         55.1300    1.2600  134.9000 O.3       1 SER1        0.0000 
     15 OG         53.6800    1.2100  136.4500 O.3       1 SER1        0.0000 
     16 OG         57.1100    0.6000  135.2800 O.3       1 SER1        0.0000 
     17 N          45.3300   -0.2200  130.0700 N.am      2 ALA2        0.0000 
     18 N          45.8600    0.8300  129.1400 N.am      2 ALA2        0.0000 
     19 N          46.3900    1.8900  128.2200 N.am      2 ALA2        0.0000 
     20 N          46.9200    1.1800  130.1400 N.am      2 ALA2        0.0000 
     21 O          53.5400   -0.1400  134.8300 O.2       2 ALA2        0.0000 
     22 O          54.0600    0.9100  133.9000 O.2       2 ALA2        0.0000 
     23 OD1        47.8400    0.1800  129.5200 O.co2     3 ASP3        0.0000 
     24 OD1        49.4300    1.5800  129.6000 O.co2     3 ASP3        0.0000 
     25 OD1        46.6700    4.6000  131.4700 O.co2     3 ASP3        0.0000 
     26 OD1        47.2000    5.6600  130.5400 O.co2     3 ASP3        0.0000 
     27 OD1        45.7500    5.6100  132.0900 O.co2     3 ASP3        0.0000 
     28 OD1        49.5700    2.9300  131.2200 O.co2     3 ASP3        0.0000 
     29 OD1        50.1000    3.9900  130.2900 O.co2     3 ASP3        0.0000 
     30 OD1        48.6500    3.9400  131.8400 O.co2     3 ASP3        0.0000 
     31 OD1        49.1800    5.0000  130.9200 O.co2     3 ASP3        0.0000 
     32 OD1        47.7300    4.9500  132.4700 O.co2     3 ASP3        0.0000 
     33 OD1        53.5200    3.3800  129.1200 O.co2     3 ASP3        0.0000 
     34 OD1        52.0800    3.3300  130.6700 O.co2     3 ASP3        0.0000 
     35 OD1        50.6300    3.2800  132.2200 O.co2     3 ASP3        0.0000 
     36 OD1        50.2400    5.3500  131.9200 O.co2     3 ASP3        0.0000 
     37 OD1        53.5300    1.6200  131.9700 O.co2     3 ASP3        0.0000 
     38 OD1        52.6100    2.6200  132.6000 O.co2     3 ASP3        0.0000 
     39 OD1        53.1400    3.6800  131.6700 O.co2     3 ASP3        0.0000 
     40 OD1        53.6700    4.7400  130.7500 O.co2     3 ASP3        0.0000 
     41 OD1        52.7500    5.7400  131.3700 O.co2     3 ASP3        0.0000 
     42 OD1        51.3000    5.6900  132.9200 O.co2     3 ASP3        0.0000 
     43 CZ         42.9600    2.5000  129.3900 C.ar      4 PHE5        0.0000 
     44 CZ         43.4800    3.5600  128.4600 C.ar      4 PHE5        0.0000 
     45 CZ         45.4700    2.9000  128.8400 C.ar      4 PHE5        0.0000 
     46 CZ         45.9900    3.9500  127.9100 C.ar      4 PHE5        0.0000 
     47 CZ         44.0200    2.8500  130.3900 C.ar      4 PHE5        0.0000 
     48 CZ         44.5500    3.9000  129.4600 C.ar      4 PHE5        0.0000 
     49 CZ         43.1000    3.8600  131.0200 C.ar      4 PHE5        0.0000 
     50 CZ         48.3700    1.2300  128.5900 C.ar      4 PHE5        0.0000 
     51 CZ         47.4500    2.2400  129.2200 C.ar      4 PHE5        0.0000 
     52 CZ         43.6300    3.1500  132.9400 C.ar      4 PHE5        0.0000 
     53 CZ         44.1600    4.2000  132.0200 C.ar      4 PHE5        0.0000 
     54 CZ         47.4500    0.4800  132.0700 C.ar      4 PHE5        0.0000 
     55 CZ         47.9800    1.5300  131.1500 C.ar      4 PHE5        0.0000 
     56 CZ         48.5100    2.5900  130.2200 C.ar      4 PHE5        0.0000 
     57 CZ         49.0400    3.6400  129.2900 C.ar      4 PHE5        0.0000 
     58 CZ         44.6900    3.5000  133.9400 C.ar      4 PHE5        0.0000 
     59 CZ         45.2200    4.5500  133.0200 C.ar      4 PHE5        0.0000 
     60 CZ         51.5400    4.0400  128.7400 C.ar      4 PHE5        0.0000 
     61 CZ         49.0400    1.8800  132.1500 C.ar      4 PHE5        0.0000 
     62 CZ         50.1000    2.2300  133.1500 C.ar      4 PHE5        0.0000 
     63 CZ         52.0800    1.5700  133.5300 C.ar      4 PHE5        0.0000 
     64 CZ         50.6400    1.5200  135.0800 C.ar      4 PHE5        0.0000 
     65 CZ         51.1600    2.5800  134.1500 C.ar      4 PHE5        0.0000 
     66 CZ         55.5100    0.9600  132.3500 C.ar      4 PHE5        0.0000 
     67 CZ         53.0100   -1.2000  135.7500 C.ar      4 PHE5        0.0000 
     68 CZ         52.0900   -0.1900  136.3800 C.ar      4 PHE5        0.0000 
     69 CZ         52.6200    0.8600  135.4500 C.ar      4 PHE5        0.0000 
     70 CZ         53.6700    2.9700  133.6000 C.ar      4 PHE5        0.0000 
     71 CZ         54.2000    4.0300  132.6700 C.ar      4 PHE5        0.0000 
     72 CZ         52.7500    3.9800  134.2200 C.ar      4 PHE5        0.0000 
     73 CZ         53.2800    5.0400  133.3000 C.ar      4 PHE5        0.0000 
     74 CZ         56.0500    0.2500  134.2800 C.ar      4 PHE5        0.0000 
     75 CZ         56.5700    1.3100  133.3500 C.ar      4 PHE5        0.0000 
     76 CZ         54.0700   -0.8500  136.7600 C.ar      4 PHE5        0.0000 
     77 CZ         55.6500    2.3100  133.9800 C.ar      4 PHE5        0.0000 
     78 CZ         53.1500    0.1600  137.3800 C.ar      4 PHE5        0.0000 
     79 CZ         54.2100    2.2700  135.5300 C.ar      4 PHE5        0.0000 
     80 CZ         54.7300    3.3200  134.6000 C.ar      4 PHE5        0.0000 
     81 CZ         53.2900    3.2700  136.1500 C.ar      4 PHE5        0.0000 
     82 CZ         57.6300    1.6600  134.3500 C.ar      4 PHE5        0.0000 
     83 CZ         56.1900    1.6100  135.9000 C.ar      4 PHE5        0.0000 
     84 CA         46.3900    0.1300  131.0700 C.3       5 GLY6        0.0000 
     85 CA         45.4700    1.1300  131.6900 C.3       5 GLY6        0.0000 
     86 CA         46.0000    2.1900  130.7700 C.3       5 GLY6        0.0000 
     87 CA         44.5500    2.1400  132.3200 C.3       5 GLY6        0.0000 
     88 CA         47.0600    2.5400  131.7700 C.3       5 GLY6        0.0000 
     89 CA         45.6100    2.4900  133.3200 C.3       5 GLY6        0.0000 
     90 CA         52.0700    5.0900  127.8200 C.3       5 GLY6        0.0000 
     91 CA         50.6200    5.0500  129.3700 C.3       5 GLY6        0.0000 
     92 CA         47.5900    1.8300  133.7000 C.3       5 GLY6        0.0000 
     93 CA         48.1200    2.8900  132.7700 C.3       5 GLY6        0.0000 
     94 CA         49.7000    6.0500  129.9900 C.3       5 GLY6        0.0000 
     95 CA         46.6700    2.8400  134.3200 C.3       5 GLY6        0.0000 
     96 CA         47.2000    3.8900  133.3900 C.3       5 GLY6        0.0000 
     97 CA         46.2800    4.9000  134.0200 C.3       5 GLY6        0.0000 
     98 CA         54.5800    5.4900  127.2700 C.3       5 GLY6        0.0000 
     99 CA         52.6000    4.3900  129.7400 C.3       5 GLY6        0.0000 
    100 CA         53.1300    5.4400  128.8200 C.3       5 GLY6        0.0000 
    101 CA         51.6800    5.3900  130.3700 C.3       5 GLY6        0.0000 
    102 CA         49.7100    4.2900  132.8500 C.3       5 GLY6        0.0000 
    103 CA         50.7700    4.6400  133.8500 C.3       5 GLY6        0.0000 
    104 DU         44.9400    1.8400  129.7700 H         6 CUB7        0.0000 
    105 DU         46.5300    3.2500  129.8400 H         6 CUB7        0.0000 
    106 DU         45.0800    3.2000  131.3900 H         6 CUB7        0.0000 
    107 DU         45.6100    4.2500  130.4700 H         6 CUB7        0.0000 
    108 DU         47.5900    3.5900  130.8400 H         6 CUB7        0.0000 
    109 DU         46.1400    3.5500  132.3900 H         6 CUB7        0.0000 
    110 DU         52.9900    4.0900  127.1900 H         6 CUB7        0.0000 
    111 DU         53.5200    5.1400  126.2700 H         6 CUB7        0.0000 
    112 DU         54.0500    4.4400  128.1900 H         6 CUB7        0.0000 
    113 DU         51.1600    4.3400  131.3000 H         6 CUB7        0.0000 
    114 DU         51.6900    3.6300  133.2200 H         6 CUB7        0.0000 
    115 DU         52.2200    4.6900  132.3000 H         6 CUB7        0.0000 
    116 DU         54.5900    1.9700  132.9800 H         6 CUB7        0.0000 
    117 DU         53.1400    1.9200  134.5300 H         6 CUB7        0.0000 
@<TRIPOS>BOND
@<TRIPOS>SUBSTRUCTURE
     1 SER1        1 GROUP   
     2 ALA2       17 GROUP   
     3 ASP3       23 GROUP   
     4 PHE5       43 GROUP   
     5 GLY6       84 GROUP   
     6 CUB7      104 GROUP   
@<TRIPOS>SET

