#    Name: 6nhh_1_AZO
#    Modification time : Fri May 22 19:34:12 2020

@<TRIPOS>MOLECULE
6nhh_1_AZO
   47    49     1     0     0
SMALL
NO_CHARGES


@<TRIPOS>ATOM
      1 N1          0.9000   11.4050   48.5750 N.1       1 AZO1003     0.0000 
      2 C1          1.7390   10.6670   48.7830 C.1       1 AZO1003     0.0000 
      3 C2          2.7890    9.7350   49.0310 C.ar      1 AZO1003     0.0000 
      4 C3          3.7560   10.0160   49.9920 C.ar      1 AZO1003     0.0000 
      5 C4          4.7750    9.1200   50.2430 C.ar      1 AZO1003     0.0000 
      6 C5          4.8460    7.9330   49.5310 C.ar      1 AZO1003     0.0000 
      7 C6          3.8960    7.6470   48.5730 C.ar      1 AZO1003     0.0000 
      8 C7          2.8760    8.5440   48.3290 C.ar      1 AZO1003     0.0000 
      9 O1          1.9470    8.1990   47.3520 O.3       1 AZO1003     0.0000 
     10 C8          0.7670    7.6220   47.7290 C.ar      1 AZO1003     0.0000 
     11 C9         -0.2930    7.7040   46.8470 C.ar      1 AZO1003     0.0000 
     12 C10        -1.4690    7.1060   47.2570 C.ar      1 AZO1003     0.0000 
     13 N3         -1.5420    6.4980   48.4380 N.ar      1 AZO1003     0.0000 
     14 C11        -0.4710    6.4820   49.2190 C.ar      1 AZO1003     0.0000 
     15 N2          0.6970    7.0230   48.8920 N.ar      1 AZO1003     0.0000 
     16 O2         -2.5570    7.1690   46.4130 O.3       1 AZO1003     0.0000 
     17 C12        -3.7850    6.5130   46.6310 C.ar      1 AZO1003     0.0000 
     18 C13        -4.5050    6.7200   47.7920 C.ar      1 AZO1003     0.0000 
     19 C14        -5.7040    6.0740   48.0000 C.ar      1 AZO1003     0.0000 
     20 C15        -6.2010    5.2380   47.0260 C.ar      1 AZO1003     0.0000 
     21 C16        -5.4900    5.0530   45.8550 C.ar      1 AZO1003     0.0000 
     22 C17        -4.2710    5.6760   45.6350 C.ar      1 AZO1003     0.0000 
     23 C18        -3.5590    5.4500   44.3540 C.2       1 AZO1003     0.0000 
     24 C19        -2.7120    4.2520   44.2190 C.2       1 AZO1003     0.0000 
     25 O3         -2.4500    3.4670   45.0940 O.2       1 AZO1003     0.0000 
     26 O4         -2.2170    4.0940   42.9550 O.3       1 AZO1003     0.0000 
     27 C20        -1.3640    2.9720   42.6300 C.3       1 AZO1003     0.0000 
     28 C21        -3.7980    6.2490   43.3190 C.2       1 AZO1003     0.0000 
     29 O5         -4.5670    7.3530   43.4050 O.3       1 AZO1003     0.0000 
     30 C22        -4.7440    8.1070   42.1890 C.3       1 AZO1003     0.0000 
     31 H3          3.6990   10.9390   50.5320 H         1 AZO1003     0.0000 
     32 H4          5.5090    9.3450   50.9900 H         1 AZO1003     0.0000 
     33 H5          5.6350    7.2340   49.7190 H         1 AZO1003     0.0000 
     34 H6          3.9260    6.7400   48.0070 H         1 AZO1003     0.0000 
     35 H9         -0.2040    8.2000   45.9090 H         1 AZO1003     0.0000 
     36 H11        -0.5480    6.0060   50.1700 H         1 AZO1003     0.0000 
     37 H13        -4.1240    7.3900   48.5350 H         1 AZO1003     0.0000 
     38 H14        -6.2400    6.2270   48.9140 H         1 AZO1003     0.0000 
     39 H15        -7.1330    4.7330   47.1720 H         1 AZO1003     0.0000 
     40 H16        -5.8780    4.4150   45.0890 H         1 AZO1003     0.0000 
     41 H201       -0.8040    3.1720   41.7290 H         1 AZO1003     0.0000 
     42 H202       -1.9530    2.0820   42.4750 H         1 AZO1003     0.0000 
     43 H203       -0.6650    2.7850   43.4300 H         1 AZO1003     0.0000 
     44 H21        -3.3700    6.0260   42.3620 H         1 AZO1003     0.0000 
     45 H221       -5.3600    8.9790   42.3660 H         1 AZO1003     0.0000 
     46 H222       -5.2250    7.5040   41.4300 H         1 AZO1003     0.0000 
     47 H223       -3.7910    8.4400   41.8020 H         1 AZO1003     0.0000 
@<TRIPOS>BOND
     1    1    2 3    
     2    2    3 1    
     3    3    4 ar   
     4    3    8 ar   
     5    4    5 ar   
     6    4   31 1    
     7    5    6 ar   
     8    5   32 1    
     9    6    7 ar   
    10    6   33 1    
    11    7    8 ar   
    12    7   34 1    
    13    8    9 1    
    14    9   10 1    
    15   10   11 ar   
    16   10   15 ar   
    17   11   12 ar   
    18   11   35 1    
    19   12   13 ar   
    20   12   16 1    
    21   13   14 ar   
    22   14   15 ar   
    23   14   36 1    
    24   16   17 1    
    25   17   18 ar   
    26   17   22 ar   
    27   18   19 ar   
    28   18   37 1    
    29   19   20 ar   
    30   19   38 1    
    31   20   21 ar   
    32   20   39 1    
    33   21   22 ar   
    34   21   40 1    
    35   22   23 1    
    36   23   24 1    
    37   23   28 2    
    38   24   25 2    
    39   24   26 1    
    40   26   27 1    
    41   27   41 1    
    42   27   42 1    
    43   27   43 1    
    44   28   29 1    
    45   28   44 1    
    46   29   30 1    
    47   30   45 1    
    48   30   46 1    
    49   30   47 1    
@<TRIPOS>SUBSTRUCTURE
     1 AZO1003     1 GROUP   
@<TRIPOS>SET

