#    Name: 6nhh_2_AZO
#    Modification time : Fri May 22 19:34:18 2020

@<TRIPOS>MOLECULE
6nhh_2_AZO
   47    49     1     0     0
SMALL
NO_CHARGES


@<TRIPOS>ATOM
      1 N1          5.1720   11.3250    3.1130 N.1       1 AZO1003     0.0000 
      2 C1          6.1220   11.9490    3.0480 C.1       1 AZO1003     0.0000 
      3 C2          7.3060   12.7370    2.9740 C.ar      1 AZO1003     0.0000 
      4 C3          8.3790   12.2990    2.2060 C.ar      1 AZO1003     0.0000 
      5 C4          9.5350   13.0480    2.1160 C.ar      1 AZO1003     0.0000 
      6 C5          9.6330   14.2470    2.8040 C.ar      1 AZO1003     0.0000 
      7 C6          8.5750   14.6870    3.5740 C.ar      1 AZO1003     0.0000 
      8 C7          7.4210   13.9360    3.6540 C.ar      1 AZO1003     0.0000 
      9 O1          6.3990   14.4420    4.4500 O.3       1 AZO1003     0.0000 
     10 C8          5.3730   15.1470    3.8850 C.ar      1 AZO1003     0.0000 
     11 C9          4.1840   15.2100    4.5880 C.ar      1 AZO1003     0.0000 
     12 C10         3.1680   15.9350    4.0010 C.ar      1 AZO1003     0.0000 
     13 N3          3.3550   16.5190    2.8200 N.ar      1 AZO1003     0.0000 
     14 C11         4.5280   16.3940    2.2170 C.ar      1 AZO1003     0.0000 
     15 N2          5.5560   15.7250    2.7230 N.ar      1 AZO1003     0.0000 
     16 O2          1.9620   16.0170    4.6670 O.3       1 AZO1003     0.0000 
     17 C12         0.8680   16.8060    4.2470 C.ar      1 AZO1003     0.0000 
     18 C13         0.3320   16.6910    2.9750 C.ar      1 AZO1003     0.0000 
     19 C14        -0.7340   17.4750    2.5870 C.ar      1 AZO1003     0.0000 
     20 C15        -1.2870   18.3590    3.4860 C.ar      1 AZO1003     0.0000 
     21 C16        -0.7670   18.4530    4.7610 C.ar      1 AZO1003     0.0000 
     22 C17         0.3200   17.6880    5.1640 C.ar      1 AZO1003     0.0000 
     23 C18         0.8300   17.8150    6.5460 C.2       1 AZO1003     0.0000 
     24 C19         1.8140   18.8670    6.8410 C.2       1 AZO1003     0.0000 
     25 O3          2.3830   19.5430    6.0250 O.2       1 AZO1003     0.0000 
     26 O4          2.0440   19.0270    8.1790 O.3       1 AZO1003     0.0000 
     27 C20         2.9880   20.0200    8.6460 C.3       1 AZO1003     0.0000 
     28 C21         0.2470   17.1240    7.5180 C.2       1 AZO1003     0.0000 
     29 O5         -0.6580   16.1550    7.2880 O.3       1 AZO1003     0.0000 
     30 C22        -1.2170   15.5150    8.4530 C.3       1 AZO1003     0.0000 
     31 H3          8.2950   11.3680    1.6830 H         1 AZO1003     0.0000 
     32 H4         10.3520   12.7000    1.5160 H         1 AZO1003     0.0000 
     33 H5         10.5250   14.8360    2.7440 H         1 AZO1003     0.0000 
     34 H6          8.6240   15.6060    4.1180 H         1 AZO1003     0.0000 
     35 H9          4.0660   14.7240    5.5290 H         1 AZO1003     0.0000 
     36 H11         4.6590   16.8580    1.2660 H         1 AZO1003     0.0000 
     37 H13         0.7510   15.9840    2.2890 H         1 AZO1003     0.0000 
     38 H14        -1.1220   17.3920    1.5930 H         1 AZO1003     0.0000 
     39 H15        -2.1170   18.9710    3.1990 H         1 AZO1003     0.0000 
     40 H16        -1.2020   19.1270    5.4690 H         1 AZO1003     0.0000 
     41 H201        3.2750   19.8180    9.6660 H         1 AZO1003     0.0000 
     42 H202        2.5510   21.0060    8.6030 H         1 AZO1003     0.0000 
     43 H203        3.8760   20.0140    8.0330 H         1 AZO1003     0.0000 
     44 H21         0.4920   17.3310    8.5390 H         1 AZO1003     0.0000 
     45 H221       -1.9150   14.7400    8.1670 H         1 AZO1003     0.0000 
     46 H222       -1.7440   16.2320    9.0690 H         1 AZO1003     0.0000 
     47 H223       -0.4390   15.0630    9.0540 H         1 AZO1003     0.0000 
@<TRIPOS>BOND
     1    1    2 3    
     2    2    3 1    
     3    3    4 ar   
     4    3    8 ar   
     5    4    5 ar   
     6    4   31 1    
     7    5    6 ar   
     8    5   32 1    
     9    6    7 ar   
    10    6   33 1    
    11    7    8 ar   
    12    7   34 1    
    13    8    9 1    
    14    9   10 1    
    15   10   11 ar   
    16   10   15 ar   
    17   11   12 ar   
    18   11   35 1    
    19   12   13 ar   
    20   12   16 1    
    21   13   14 ar   
    22   14   15 ar   
    23   14   36 1    
    24   16   17 1    
    25   17   18 ar   
    26   17   22 ar   
    27   18   19 ar   
    28   18   37 1    
    29   19   20 ar   
    30   19   38 1    
    31   20   21 ar   
    32   20   39 1    
    33   21   22 ar   
    34   21   40 1    
    35   22   23 1    
    36   23   24 1    
    37   23   28 2    
    38   24   25 2    
    39   24   26 1    
    40   26   27 1    
    41   27   41 1    
    42   27   42 1    
    43   27   43 1    
    44   28   29 1    
    45   28   44 1    
    46   29   30 1    
    47   30   45 1    
    48   30   46 1    
    49   30   47 1    
@<TRIPOS>SUBSTRUCTURE
     1 AZO1003     1 GROUP   
@<TRIPOS>SET

