#    Name: 6cd3_1_3HA_CAVITY_N1_4
#    Modification time : Fri May 22 19:32:25 2020

@<TRIPOS>MOLECULE
6cd3_1_3HA_CAVITY_N1_4
   55     0     7     0     0
SMALL
NO_CHARGES


@<TRIPOS>ATOM
      1 OG        -13.3400  -29.4100    6.7400 O.3       1 SER1        0.0000 
      2 OG        -12.7600  -28.3300    7.6100 O.3       1 SER1        0.0000 
      3 N         -12.7900  -28.7300    5.5200 N.am      2 ALA2        0.0000 
      4 N         -11.5100  -29.5100    5.6600 N.am      2 ALA2        0.0000 
      5 N         -10.9700  -28.8300    4.4400 N.am      2 ALA2        0.0000 
      6 O          -9.1400  -28.9300    3.3600 O.2       2 ALA2        0.0000 
      7 N          -6.2000  -27.2700    1.9200 N.am      2 ALA2        0.0000 
      8 OD1       -10.5600  -25.6000    2.7400 O.co2     3 ASP3        0.0000 
      9 OD1        -9.2900  -26.3800    2.8700 O.co2     3 ASP3        0.0000 
     10 OD1        -7.4700  -26.4900    1.7900 O.co2     3 ASP3        0.0000 
     11 OD1       -10.5100  -24.8000    6.9000 O.co2     3 ASP3        0.0000 
     12 NZ        -15.3100  -26.7600    7.3400 N.4       4 LYS4        0.0000 
     13 NZ        -14.0300  -27.5500    7.4700 N.4       4 LYS4        0.0000 
     14 NZ        -13.4600  -26.4700    8.3400 N.4       4 LYS4        0.0000 
     15 NZ        -14.1800  -25.0000    6.9900 N.4       4 LYS4        0.0000 
     16 NZ        -12.9100  -25.7800    7.1200 N.4       4 LYS4        0.0000 
     17 NZ        -11.6400  -26.5700    7.2600 N.4       4 LYS4        0.0000 
     18 NZ        -13.6300  -24.3200    5.7700 N.4       4 LYS4        0.0000 
     19 NZ        -12.3600  -25.1000    5.9000 N.4       4 LYS4        0.0000 
     20 NZ        -11.0600  -25.4800    8.1200 N.4       4 LYS4        0.0000 
     21 NZ         -8.6700  -24.5000    7.9000 N.4       4 LYS4        0.0000 
     22 CZ         -7.3900  -25.2900    8.0400 C.ar      5 PHE5        0.0000 
     23 CZ         -6.8500  -24.6000    6.8200 C.ar      5 PHE5        0.0000 
     24 CA        -14.0600  -27.9500    5.3900 C.3       6 GLY6        0.0000 
     25 CA         -9.6900  -29.6100    4.5800 C.3       6 GLY6        0.0000 
     26 CA        -14.7600  -26.0800    6.1200 C.3       6 GLY6        0.0000 
     27 CA        -13.4800  -26.8700    6.2600 C.3       6 GLY6        0.0000 
     28 CA        -10.9400  -28.4300    6.5300 C.3       6 GLY6        0.0000 
     29 CA        -14.2100  -25.4000    4.9000 C.3       6 GLY6        0.0000 
     30 CA        -10.3900  -27.7500    5.3100 C.3       6 GLY6        0.0000 
     31 CA        -13.6600  -24.7200    3.6900 C.3       6 GLY6        0.0000 
     32 CA         -8.5700  -27.8500    4.2200 C.3       6 GLY6        0.0000 
     33 CA         -8.0200  -27.1700    3.0100 C.3       6 GLY6        0.0000 
     34 CA         -6.7500  -27.9500    3.1400 C.3       6 GLY6        0.0000 
     35 CA        -10.3700  -27.3500    7.3900 C.3       6 GLY6        0.0000 
     36 CA         -9.8200  -26.6700    6.1700 C.3       6 GLY6        0.0000 
     37 CA         -8.5400  -27.4500    6.3100 C.3       6 GLY6        0.0000 
     38 CA         -7.9900  -26.7700    5.0900 C.3       6 GLY6        0.0000 
     39 CA         -8.7200  -25.3000    3.7400 C.3       6 GLY6        0.0000 
     40 CA         -7.4500  -26.0900    3.8700 C.3       6 GLY6        0.0000 
     41 CA         -6.9000  -25.4000    2.6500 C.3       6 GLY6        0.0000 
     42 CA         -9.7900  -26.2700    8.2600 C.3       6 GLY6        0.0000 
     43 CA         -9.2400  -25.5900    7.0400 C.3       6 GLY6        0.0000 
     44 CA         -7.9700  -26.3700    7.1700 C.3       6 GLY6        0.0000 
     45 CA         -8.6900  -24.9000    5.8200 C.3       6 GLY6        0.0000 
     46 CA         -7.4200  -25.6900    5.9600 C.3       6 GLY6        0.0000 
     47 CA         -8.1200  -23.8200    6.6900 C.3       6 GLY6        0.0000 
     48 DU        -12.2400  -28.0500    4.3100 H         7 CUB7        0.0000 
     49 DU        -12.2100  -27.6500    6.3900 H         7 CUB7        0.0000 
     50 DU        -12.9300  -26.1800    5.0400 H         7 CUB7        0.0000 
     51 DU        -11.6600  -26.9700    5.1700 H         7 CUB7        0.0000 
     52 DU        -11.1100  -26.2800    3.9600 H         7 CUB7        0.0000 
     53 DU         -9.8400  -27.0700    4.0900 H         7 CUB7        0.0000 
     54 DU        -11.0900  -25.8800    6.0400 H         7 CUB7        0.0000 
     55 DU         -9.2700  -25.9900    4.9600 H         7 CUB7        0.0000 
@<TRIPOS>BOND
@<TRIPOS>SUBSTRUCTURE
     1 SER1        1 GROUP   
     2 ALA2        3 GROUP   
     3 ASP3        8 GROUP   
     4 LYS4       12 GROUP   
     5 PHE5       22 GROUP   
     6 GLY6       24 GROUP   
     7 CUB7       48 GROUP   
@<TRIPOS>SET

