#    Name: 6cd3_1_3HA
#    Modification time : Fri May 22 19:32:25 2020

@<TRIPOS>MOLECULE
6cd3_1_3HA
   11    11     1     0     0
SMALL
NO_CHARGES


@<TRIPOS>ATOM
      1 O8         -6.5730  -25.1790    6.8580 O.co2     1 3HA203      0.0000 
      2 C7         -7.4250  -25.6890    6.0960 C.2       1 3HA203      0.0000 
      3 O9         -6.9690  -26.2490    5.0490 O.co2     1 3HA203      0.0000 
      4 C2         -8.9270  -25.6450    6.5080 C.ar      1 3HA203      0.0000 
      5 C1         -9.4110  -26.7850    7.1530 C.ar      1 3HA203      0.0000 
      6 C6        -10.7300  -26.9070    7.6030 C.ar      1 3HA203      0.0000 
      7 C5        -11.5970  -25.8460    7.4010 C.ar      1 3HA203      0.0000 
      8 C4        -11.1510  -24.6850    6.7630 C.ar      1 3HA203      0.0000 
      9 O11       -12.0340  -23.6140    6.5630 O.3       1 3HA203      0.0000 
     10 C3         -9.8360  -24.5650    6.3180 C.ar      1 3HA203      0.0000 
     11 N10        -9.5340  -23.2870    5.6580 N.pl3     1 3HA203      0.0000 
@<TRIPOS>BOND
     1    1    2 ar   
     2    2    3 ar   
     3    2    4 1    
     4    4    5 ar   
     5    4   10 ar   
     6    5    6 ar   
     7    6    7 ar   
     8    7    8 ar   
     9    8    9 1    
    10    8   10 ar   
    11   10   11 1    
@<TRIPOS>SUBSTRUCTURE
     1 3HA203      1 GROUP   
@<TRIPOS>SET

