#    Name: 6hxj_6_COA_CAVITY_N1_4
#    Modification time : Fri May 22 19:32:16 2020

@<TRIPOS>MOLECULE
6hxj_6_COA_CAVITY_N1_4
   66     0     5     0     0
SMALL
NO_CHARGES


@<TRIPOS>ATOM
      1 N         -24.1000  -13.9900   64.8000 N.am      1 ALA2        0.0000 
      2 N         -24.9200  -14.8900   65.6800 N.am      1 ALA2        0.0000 
      3 N         -18.5700  -17.0900   64.2500 N.am      1 ALA2        0.0000 
      4 N         -17.7900  -16.6300   65.4400 N.am      1 ALA2        0.0000 
      5 N         -18.4700   -9.0400   64.8700 N.am      1 ALA2        0.0000 
      6 N         -19.2900   -9.9300   65.7500 N.am      1 ALA2        0.0000 
      7 N         -20.2800   -8.8200   65.9700 N.am      1 ALA2        0.0000 
      8 N         -21.1000   -9.7200   66.8500 N.am      1 ALA2        0.0000 
      9 O         -20.9300  -11.7300   67.5100 O.2       1 ALA2        0.0000 
     10 N         -17.6900   -8.5800   66.0700 N.am      1 ALA2        0.0000 
     11 N         -18.6700   -7.4700   66.2900 N.am      1 ALA2        0.0000 
     12 N         -20.3100   -9.2600   68.0400 N.am      1 ALA2        0.0000 
     13 O         -20.1500  -11.2700   68.7100 O.2       1 ALA2        0.0000 
     14 N         -19.3700  -10.8100   69.9000 N.am      1 ALA2        0.0000 
     15 NZ        -23.1200  -15.1000   64.5800 N.4       2 LYS4        0.0000 
     16 NZ        -22.9600  -17.1100   65.2500 N.4       2 LYS4        0.0000 
     17 NZ        -23.9400  -16.0000   65.4600 N.4       2 LYS4        0.0000 
     18 NZ        -21.3600  -15.7600   65.5600 N.4       2 LYS4        0.0000 
     19 NZ        -22.3400  -14.6500   65.7800 N.4       2 LYS4        0.0000 
     20 NZ        -21.1900  -17.7700   66.2200 N.4       2 LYS4        0.0000 
     21 NZ        -20.5700  -15.3000   66.7600 N.4       2 LYS4        0.0000 
     22 NZ        -21.5600  -14.1900   66.9800 N.4       2 LYS4        0.0000 
     23 NZ        -20.4100  -17.3100   67.4200 N.4       2 LYS4        0.0000 
     24 NZ        -19.7900  -14.8500   67.9500 N.4       2 LYS4        0.0000 
     25 CZ        -22.9200  -16.6700   63.1700 C.ar      3 PHE5        0.0000 
     26 CZ        -19.5100  -15.5400   62.3900 C.ar      3 PHE5        0.0000 
     27 CZ        -20.5000  -14.4200   62.6100 C.ar      3 PHE5        0.0000 
     28 CZ        -21.3200  -15.3200   63.4900 C.ar      3 PHE5        0.0000 
     29 CZ        -22.1400  -16.2200   64.3700 C.ar      3 PHE5        0.0000 
     30 CZ        -21.9800  -18.2300   65.0300 C.ar      3 PHE5        0.0000 
     31 CZ        -18.7300  -15.0800   63.5900 C.ar      3 PHE5        0.0000 
     32 CZ        -19.5500  -15.9800   64.4700 C.ar      3 PHE5        0.0000 
     33 CZ        -20.3700  -16.8700   65.3500 C.ar      3 PHE5        0.0000 
     34 CA        -20.6600  -12.4200   61.9500 C.3       4 GLY6        0.0000 
     35 CA        -21.4800  -13.3100   62.8300 C.3       4 GLY6        0.0000 
     36 CA        -22.3000  -14.2100   63.7100 C.3       4 GLY6        0.0000 
     37 CA        -18.0700  -12.1800   62.0500 C.3       4 GLY6        0.0000 
     38 CA        -18.8900  -13.0700   62.9300 C.3       4 GLY6        0.0000 
     39 CA        -19.8800  -11.9600   63.1400 C.3       4 GLY6        0.0000 
     40 CA        -20.7000  -12.8600   64.0200 C.3       4 GLY6        0.0000 
     41 CA        -21.5200  -13.7500   64.9000 C.3       4 GLY6        0.0000 
     42 CA        -19.3900  -17.9900   65.1300 C.3       4 GLY6        0.0000 
     43 CA        -19.0900  -11.5000   64.3400 C.3       4 GLY6        0.0000 
     44 CA        -20.0800  -10.3900   64.5600 C.3       4 GLY6        0.0000 
     45 CA        -19.9100  -12.4000   65.2200 C.3       4 GLY6        0.0000 
     46 CA        -20.7300  -13.2900   66.1000 C.3       4 GLY6        0.0000 
     47 CA        -21.7200  -12.1800   66.3100 C.3       4 GLY6        0.0000 
     48 CA        -18.6100  -17.5300   66.3200 C.3       4 GLY6        0.0000 
     49 CA        -20.1100  -10.8300   66.6300 C.3       4 GLY6        0.0000 
     50 CA        -20.7700  -13.7300   68.1700 C.3       4 GLY6        0.0000 
     51 CA        -18.5100   -9.4800   66.9500 C.3       4 GLY6        0.0000 
     52 CA        -19.4900   -8.3600   67.1600 C.3       4 GLY6        0.0000 
     53 CA        -21.1300  -10.1600   68.9200 C.3       4 GLY6        0.0000 
     54 CA        -19.9900  -13.2800   69.3700 C.3       4 GLY6        0.0000 
     55 CA        -20.3500   -9.7000   70.1200 C.3       4 GLY6        0.0000 
     56 DU        -19.7100  -13.9700   63.8000 H         5 CUB7        0.0000 
     57 DU        -20.5300  -14.8600   64.6800 H         5 CUB7        0.0000 
     58 DU        -17.9500  -14.6200   64.7800 H         5 CUB7        0.0000 
     59 DU        -18.9300  -13.5100   65.0000 H         5 CUB7        0.0000 
     60 DU        -18.7700  -15.5200   65.6600 H         5 CUB7        0.0000 
     61 DU        -19.7500  -14.4100   65.8800 H         5 CUB7        0.0000 
     62 DU        -18.3100  -11.0500   65.5300 H         5 CUB7        0.0000 
     63 DU        -19.1300  -11.9400   66.4100 H         5 CUB7        0.0000 
     64 DU        -18.9700  -13.9500   67.0700 H         5 CUB7        0.0000 
     65 DU        -19.9500  -12.8400   67.2900 H         5 CUB7        0.0000 
     66 DU        -19.3300  -10.3700   67.8300 H         5 CUB7        0.0000 
@<TRIPOS>BOND
@<TRIPOS>SUBSTRUCTURE
     1 ALA2        1 GROUP   
     2 LYS4       15 GROUP   
     3 PHE5       25 GROUP   
     4 GLY6       34 GROUP   
     5 CUB7       56 GROUP   
@<TRIPOS>SET

