#    Name: 6hxj_3_COA_CAVITY_N1_4
#    Modification time : Fri May 22 19:31:50 2020

@<TRIPOS>MOLECULE
6hxj_3_COA_CAVITY_N1_4
   27     0     5     0     0
SMALL
NO_CHARGES


@<TRIPOS>ATOM
      1 N          -6.2300  -17.9100   62.1300 N.am      1 ALA2        0.0000 
      2 N          -7.2900  -17.6800   66.5000 N.am      1 ALA2        0.0000 
      3 N          -8.2700  -16.5700   66.7200 N.am      1 ALA2        0.0000 
      4 N          -5.5200  -18.3400   67.4800 N.am      1 ALA2        0.0000 
      5 N          -6.5000  -17.2200   67.7000 N.am      1 ALA2        0.0000 
      6 N          -4.7400  -17.8800   68.6800 N.am      1 ALA2        0.0000 
      7 N          -5.7200  -16.7700   68.8900 N.am      1 ALA2        0.0000 
      8 OD1        -3.8800  -16.5400   65.7200 O.co2     2 ASP3        0.0000 
      9 OD1        -4.8600  -15.4300   65.9400 O.co2     2 ASP3        0.0000 
     10 OD1        -3.9200  -16.9800   67.8000 O.co2     2 ASP3        0.0000 
     11 OD1        -2.3200  -15.6300   68.1100 O.co2     2 ASP3        0.0000 
     12 OD1        -3.1400  -16.5300   68.9900 O.co2     2 ASP3        0.0000 
     13 CZ         -5.3200  -19.9100   66.0700 C.ar      3 PHE5        0.0000 
     14 CZ         -6.3000  -18.7900   66.2800 C.ar      3 PHE5        0.0000 
     15 CZ         -4.5400  -19.4500   67.2600 C.ar      3 PHE5        0.0000 
     16 CA         -5.4500  -17.4600   63.3300 C.3       4 GLY6        0.0000 
     17 CA         -6.2700  -18.3500   64.2100 C.3       4 GLY6        0.0000 
     18 CA         -4.6600  -17.0000   64.5300 C.3       4 GLY6        0.0000 
     19 CA         -4.5000  -19.0100   65.1900 C.3       4 GLY6        0.0000 
     20 CA         -5.4800  -17.9000   65.4000 C.3       4 GLY6        0.0000 
     21 CA         -4.7000  -17.4400   66.6000 C.3       4 GLY6        0.0000 
     22 CA         -3.7600  -18.9900   68.4600 C.3       4 GLY6        0.0000 
     23 DU         -7.2500  -17.2400   64.4300 H         5 CUB7        0.0000 
     24 DU         -5.6500  -15.8900   64.7400 H         5 CUB7        0.0000 
     25 DU         -6.4700  -16.7800   65.6200 H         5 CUB7        0.0000 
     26 DU         -5.6800  -16.3300   66.8200 H         5 CUB7        0.0000 
     27 DU         -4.9000  -15.8700   68.0100 H         5 CUB7        0.0000 
@<TRIPOS>BOND
@<TRIPOS>SUBSTRUCTURE
     1 ALA2        1 GROUP   
     2 ASP3        8 GROUP   
     3 PHE5       13 GROUP   
     4 GLY6       16 GROUP   
     5 CUB7       23 GROUP   
@<TRIPOS>SET

