#    Name: 6hxj_6_COA
#    Modification time : Fri May 22 19:32:14 2020

@<TRIPOS>MOLECULE
6hxj_6_COA
   42    44     1     0     1
SMALL
NO_CHARGES


@<TRIPOS>ATOM
      1 N1A       -14.0620    2.8510   68.0140 N.ar      1 COA1002     0.0000 
      2 C2A       -12.9160    2.2120   68.2920 C.ar      1 COA1002     0.0000 
      3 N3A       -12.6400    0.9050   68.2070 N.ar      1 COA1002     0.0000 
      4 C4A       -13.7020    0.2190   67.7620 C.ar      1 COA1002     0.0000 
      5 C5A       -14.9490    0.7370   67.4320 C.ar      1 COA1002     0.0000 
      6 C6A       -15.1230    2.1290   67.5860 C.ar      1 COA1002     0.0000 
      7 N6A       -16.2820    2.7620   67.3690 N.pl3     1 COA1002     0.0000 
      8 N7A       -15.8000   -0.2680   66.9980 N.2       1 COA1002     0.0000 
      9 C8A       -15.0650   -1.3510   67.0820 C.2       1 COA1002     0.0000 
     10 N9A       -13.7890   -1.1350   67.5430 N.pl3     1 COA1002     0.0000 
     11 C1B       -12.7530   -2.1380   67.8020 C.3       1 COA1002     0.0000 
     12 C2B       -13.0400   -3.0490   69.0060 C.3       1 COA1002     0.0000 
     13 O2B       -12.6100   -2.5150   70.2560 O.3       1 COA1002     0.0000 
     14 C3B       -12.2880   -4.3210   68.6100 C.3       1 COA1002     0.0000 
     15 O3B       -10.9120   -4.3360   69.0540 O.3       1 COA1002     0.0000 
     16 P3B       -10.3290   -5.2340   70.2770 P.3       1 COA1002     0.0000 
     17 O7A        -8.8240   -5.0500   70.3060 O.co2     1 COA1002     0.0000 
     18 O8A       -11.0540   -4.7210   71.5530 O.co2     1 COA1002     0.0000 
     19 O9A       -10.7500   -6.7100   70.0240 O.co2     1 COA1002     0.0000 
     20 C4B       -12.3140   -4.3230   67.0790 C.3       1 COA1002     0.0000 
     21 O4B       -12.6750   -2.9850   66.6730 O.3       1 COA1002     0.0000 
     22 C5B       -13.2300   -5.3330   66.4280 C.3       1 COA1002     0.0000 
     23 O5B       -14.4520   -5.4000   67.1920 O.3       1 COA1002     0.0000 
     24 P1A       -15.9790   -5.0990   66.6750 P.3       1 COA1002     0.0000 
     25 O1A       -16.7600   -4.4660   67.7710 O.co2     1 COA1002     0.0000 
     26 O2A       -15.9880   -4.3660   65.3280 O.co2     1 COA1002     0.0000 
     27 O3A       -16.3900   -6.6200   66.4220 O.3       1 COA1002     0.0000 
     28 P2A       -15.9740   -8.0410   67.0380 P.3       1 COA1002     0.0000 
     29 O4A       -14.6200   -8.4960   66.6380 O.co2     1 COA1002     0.0000 
     30 O5A       -16.0850   -7.9410   68.5820 O.co2     1 COA1002     0.0000 
     31 O6A       -16.9710   -9.2260   66.5220 O.3       1 COA1002     0.0000 
     32 CBP       -19.2110  -10.0700   66.0640 C.3       1 COA1002     0.0000 
     33 CCP       -18.1380   -9.0420   65.6980 C.3       1 COA1002     0.0000 
     34 CDP       -19.3010  -11.0860   64.9190 C.3       1 COA1002     0.0000 
     35 CEP       -20.5570   -9.3450   66.1660 C.3       1 COA1002     0.0000 
     36 CAP       -18.8920  -10.7650   67.4170 C.3       1 COA1002     0.0000 
     37 OAP       -18.7490   -9.8200   68.4650 O.3       1 COA1002     0.0000 
     38 C9P       -19.8380  -11.8620   67.8920 C.2       1 COA1002     0.0000 
     39 O9P       -20.6730  -11.6230   68.7680 O.2       1 COA1002     0.0000 
     40 N8P       -19.6810  -13.0650   67.3370 N.am      1 COA1002     0.0000 
     41 C7P       -20.7060  -14.0950   67.3710 C.3       1 COA1002     0.0000 
     42 C6P       -20.9520  -14.6550   65.9890 C.3       1 COA1002     0.0000 
@<TRIPOS>BOND
     1    1    2 ar   
     2    1    6 ar   
     3    2    3 ar   
     4    3    4 ar   
     5    4    5 ar   
     6    4   10 1    
     7    5    6 ar   
     8    5    8 1    
     9    6    7 1    
    10    8    9 2    
    11    9   10 1    
    12   10   11 1    
    13   11   12 1    
    14   11   21 1    
    15   12   13 1    
    16   12   14 1    
    17   14   15 1    
    18   14   20 1    
    19   15   16 1    
    20   16   17 ar   
    21   16   18 ar   
    22   16   19 ar   
    23   20   21 1    
    24   20   22 1    
    25   22   23 1    
    26   23   24 1    
    27   24   25 ar   
    28   24   26 ar   
    29   24   27 1    
    30   27   28 1    
    31   28   29 ar   
    32   28   30 ar   
    33   28   31 1    
    34   31   33 1    
    35   32   33 1    
    36   32   34 1    
    37   32   35 1    
    38   32   36 1    
    39   36   37 1    
    40   36   38 1    
    41   38   39 2    
    42   38   40 am   
    43   40   41 1    
    44   41   42 1    
@<TRIPOS>SUBSTRUCTURE
     1 COA1002     1 GROUP   
@<TRIPOS>SET
ATOM$ORANGE STATIC     ATOMS   COLORGROUP SYSTEM 
36 2 2 4 4 5 5 6 6 9 9 11 11 12 12 14 14 20 \
20 22 22 32 32 33 33 34 34 35 35 36 36 38 38 41 41 42 \
42 

