#    Name: 6hxj_2_COA_CAVITY_N1_ALL
#    Modification time : Fri May 22 19:31:33 2020

@<TRIPOS>MOLECULE
6hxj_2_COA_CAVITY_N1_ALL
   85     0     5     0     0
SMALL
NO_CHARGES


@<TRIPOS>ATOM
      1 O           2.3600    0.0200   -1.1400 O.2       1 ALA2        0.0000 
      2 N          -0.5800    3.3500   -0.4900 N.am      1 ALA2        0.0000 
      3 O           1.5400   -0.8800   -0.2600 O.2       1 ALA2        0.0000 
      4 N          -1.4000    2.4600    0.3900 N.am      1 ALA2        0.0000 
      5 N          -2.2300    1.5600    1.2700 N.am      1 ALA2        0.0000 
      6 N          -3.0500    0.6700    2.1500 N.am      1 ALA2        0.0000 
      7 N           3.9700    1.3700   -0.8200 N.am      1 ALA2        0.0000 
      8 O           3.1400    0.4700    0.0600 O.2       1 ALA2        0.0000 
      9 N           3.3100   -1.5400    0.7200 N.am      1 ALA2        0.0000 
     10 N          -0.6200    2.9100    1.5900 N.am      1 ALA2        0.0000 
     11 N          -1.4400    2.0200    2.4700 N.am      1 ALA2        0.0000 
     12 N          -3.2500    2.2300    3.5600 N.am      1 ALA2        0.0000 
     13 N          -4.0700    1.3400    4.4400 N.am      1 ALA2        0.0000 
     14 N          -1.7800   -4.9000    5.3300 N.am      1 ALA2        0.0000 
     15 N           4.0900   -1.0800    1.9100 N.am      1 ALA2        0.0000 
     16 N           0.1600    3.3700    2.7800 N.am      1 ALA2        0.0000 
     17 N           3.2700   -1.9800    2.7900 N.am      1 ALA2        0.0000 
     18 NZ         -3.6300   -1.3600   -0.4600 N.4       2 LYS4        0.0000 
     19 NZ         -1.3700    2.9000   -1.6800 N.4       2 LYS4        0.0000 
     20 NZ         -0.2200   -0.2200   -1.2400 N.4       2 LYS4        0.0000 
     21 NZ         -1.2000    0.8900   -1.0200 N.4       2 LYS4        0.0000 
     22 NZ         -2.1900    2.0000   -0.8000 N.4       2 LYS4        0.0000 
     23 NZ         -1.0400   -1.1200   -0.3600 N.4       2 LYS4        0.0000 
     24 NZ         -2.0300   -0.0100   -0.1400 N.4       2 LYS4        0.0000 
     25 NZ         -3.0100    1.1100    0.0800 N.4       2 LYS4        0.0000 
     26 NZ         -1.8600   -2.0200    0.5200 N.4       2 LYS4        0.0000 
     27 CZ         -3.4700   -3.3700    0.2000 C.ar      3 PHE5        0.0000 
     28 CZ         -2.8500   -0.9000    0.7400 C.ar      3 PHE5        0.0000 
     29 CZ         -2.6800   -2.9100    1.4000 C.ar      3 PHE5        0.0000 
     30 CZ         -3.5100   -3.8100    2.2800 C.ar      3 PHE5        0.0000 
     31 CZ         -4.3300   -4.7100    3.1600 C.ar      3 PHE5        0.0000 
     32 CZ         -2.8800   -1.3400    2.8100 C.ar      3 PHE5        0.0000 
     33 CZ         -1.7400   -4.4700    3.2600 C.ar      3 PHE5        0.0000 
     34 CZ         -2.7200   -3.3500    3.4700 C.ar      3 PHE5        0.0000 
     35 CZ         -3.7100   -2.2400    3.6900 C.ar      3 PHE5        0.0000 
     36 CZ         -2.5600   -5.3600    4.1400 C.ar      3 PHE5        0.0000 
     37 CZ         -3.0800    0.2300    4.2300 C.ar      3 PHE5        0.0000 
     38 CZ         -0.9600   -4.0100    4.4500 C.ar      3 PHE5        0.0000 
     39 CZ         -2.9200   -1.7800    4.8900 C.ar      3 PHE5        0.0000 
     40 CA         -3.3100   -5.3800    0.8700 C.3       4 GLY6        0.0000 
     41 CA         -0.8800   -3.1300    0.3000 C.3       4 GLY6        0.0000 
     42 CA         -1.7000   -4.0300    1.1800 C.3       4 GLY6        0.0000 
     43 CA         -2.5200   -4.9200    2.0600 C.3       4 GLY6        0.0000 
     44 CA         -3.3400   -5.8200    2.9400 C.3       4 GLY6        0.0000 
     45 CA          1.3800    1.1300   -0.9200 C.3       4 GLY6        0.0000 
     46 CA          0.4000    2.2400   -0.7000 C.3       4 GLY6        0.0000 
     47 CA          0.7200   -1.7800    0.6200 C.3       4 GLY6        0.0000 
     48 CA         -0.2600   -0.6600    0.8400 C.3       4 GLY6        0.0000 
     49 CA         -1.0800   -1.5600    1.7200 C.3       4 GLY6        0.0000 
     50 CA         -0.9200   -3.5700    2.3800 C.3       4 GLY6        0.0000 
     51 CA         -1.9000   -2.4600    2.6000 C.3       4 GLY6        0.0000 
     52 CA         -3.5400   -4.2500    4.3500 C.3       4 GLY6        0.0000 
     53 CA         -4.3600   -5.1500    5.2300 C.3       4 GLY6        0.0000 
     54 CA          4.1300   -0.6400   -0.1600 C.3       4 GLY6        0.0000 
     55 CA          2.3200   -0.4200    0.9400 C.3       4 GLY6        0.0000 
     56 CA          1.5000   -1.3200    1.8200 C.3       4 GLY6        0.0000 
     57 CA         -0.3000   -1.1000    2.9100 C.3       4 GLY6        0.0000 
     58 CA         -0.1400   -3.1100    3.5700 C.3       4 GLY6        0.0000 
     59 CA         -1.1200   -2.0000    3.7900 C.3       4 GLY6        0.0000 
     60 CA         -1.9400   -2.9000    4.6700 C.3       4 GLY6        0.0000 
     61 CA          2.2900   -0.8600    3.0100 C.3       4 GLY6        0.0000 
     62 CA          1.4600   -1.7600    3.8900 C.3       4 GLY6        0.0000 
     63 CA          0.4800   -0.6500    4.1100 C.3       4 GLY6        0.0000 
     64 CA         -2.4600    2.6900    4.7600 C.3       4 GLY6        0.0000 
     65 CA         -0.3400   -1.5400    4.9900 C.3       4 GLY6        0.0000 
     66 CA         -0.5400    0.0300    6.4000 C.3       4 GLY6        0.0000 
     67 DU          0.5600    0.2300   -0.0400 H         5 CUB7        0.0000 
     68 DU         -0.4200    1.3500    0.1800 H         5 CUB7        0.0000 
     69 DU         -1.2400    0.4500    1.0500 H         5 CUB7        0.0000 
     70 DU         -2.0600   -0.4500    1.9300 H         5 CUB7        0.0000 
     71 DU          2.1600    1.5900    0.2700 H         5 CUB7        0.0000 
     72 DU          1.3400    0.6900    1.1500 H         5 CUB7        0.0000 
     73 DU          0.3600    1.8000    1.3700 H         5 CUB7        0.0000 
     74 DU          0.5200   -0.2100    2.0300 H         5 CUB7        0.0000 
     75 DU         -0.4600    0.9100    2.2500 H         5 CUB7        0.0000 
     76 DU         -2.2600    1.1200    3.3500 H         5 CUB7        0.0000 
     77 DU         -2.1000   -0.8900    4.0100 H         5 CUB7        0.0000 
     78 DU         -2.7600   -3.7900    5.5500 H         5 CUB7        0.0000 
     79 DU          3.1100    0.0300    2.1300 H         5 CUB7        0.0000 
     80 DU          1.3000    0.2500    3.2300 H         5 CUB7        0.0000 
     81 DU         -0.5000    0.4700    4.3300 H         5 CUB7        0.0000 
     82 DU         -1.4800    1.5800    4.5400 H         5 CUB7        0.0000 
     83 DU         -1.3200   -0.4300    5.2000 H         5 CUB7        0.0000 
     84 DU         -2.3000    0.6800    5.4200 H         5 CUB7        0.0000 
     85 DU          3.8900    0.4900    3.3300 H         5 CUB7        0.0000 
@<TRIPOS>BOND
@<TRIPOS>SUBSTRUCTURE
     1 ALA2        1 GROUP   
     2 LYS4       18 GROUP   
     3 PHE5       27 GROUP   
     4 GLY6       40 GROUP   
     5 CUB7       67 GROUP   
@<TRIPOS>SET

