#    Name: 6hxj_7_COA
#    Modification time : Fri May 22 19:32:29 2020

@<TRIPOS>MOLECULE
6hxj_7_COA
   31    33     1     0     1
SMALL
NO_CHARGES


@<TRIPOS>ATOM
      1 N1A         4.7890   13.1430   16.7500 N.ar      1 COA1001     0.0000 
      2 C2A         4.7040   13.4380   15.4500 C.ar      1 COA1001     0.0000 
      3 N3A         4.3800   12.6360   14.4350 N.ar      1 COA1001     0.0000 
      4 C4A         4.1550   11.3820   14.8580 C.ar      1 COA1001     0.0000 
      5 C5A         4.2280   10.9250   16.1630 C.ar      1 COA1001     0.0000 
      6 C6A         4.5310   11.8790   17.1520 C.ar      1 COA1001     0.0000 
      7 N6A         4.4680   11.6290   18.4570 N.pl3     1 COA1001     0.0000 
      8 N7A         3.9430    9.5670   16.2250 N.2       1 COA1001     0.0000 
      9 C8A         3.6850    9.2470   14.9800 C.2       1 COA1001     0.0000 
     10 N9A         3.8020   10.2920   14.0990 N.pl3     1 COA1001     0.0000 
     11 C1B         3.6490   10.2480   12.6470 C.3       1 COA1001     0.0000 
     12 C2B         4.5990    9.2740   11.9430 C.3       1 COA1001     0.0000 
     13 O2B         5.8830    9.8470   11.7050 O.3       1 COA1001     0.0000 
     14 C3B         3.7740    8.9130   10.7070 C.3       1 COA1001     0.0000 
     15 O3B         3.8730    9.9650    9.7230 O.3       1 COA1001     0.0000 
     16 P3B         4.6220    9.9370    8.2730 P.3       1 COA1001     0.0000 
     17 O7A         3.6210   10.6090    7.3080 O.co2     1 COA1001     0.0000 
     18 O8A         4.8140    8.4970    7.7940 O.co2     1 COA1001     0.0000 
     19 O9A         5.8920   10.6920    8.3880 O.co2     1 COA1001     0.0000 
     20 C4B         2.3330    8.9150   11.2210 C.3       1 COA1001     0.0000 
     21 O4B         2.3330    9.8170   12.3480 O.3       1 COA1001     0.0000 
     22 C5B         1.7230    7.5920   11.6300 C.3       1 COA1001     0.0000 
     23 O5B         2.7350    6.5540   11.6240 O.3       1 COA1001     0.0000 
     24 P1A         3.4270    5.6820   12.8380 P.3       1 COA1001     0.0000 
     25 O1A         4.9170    5.6610   12.8340 O.co2     1 COA1001     0.0000 
     26 O2A         2.8080    6.0520   14.1890 O.co2     1 COA1001     0.0000 
     27 O3A         2.8460    4.2710   12.3830 O.3       1 COA1001     0.0000 
     28 P2A         1.4780    3.5040   12.6550 P.3       1 COA1001     0.0000 
     29 O4A         0.5780    3.7130   11.3990 O.3       1 COA1001     0.0000 
     30 O5A         1.7690    2.1250   13.0930 O.co2     1 COA1001     0.0000 
     31 O6A         0.7610    4.2760   13.8690 O.co2     1 COA1001     0.0000 
@<TRIPOS>BOND
     1    1    2 ar   
     2    1    6 ar   
     3    2    3 ar   
     4    3    4 ar   
     5    4    5 ar   
     6    4   10 1    
     7    5    6 ar   
     8    5    8 1    
     9    6    7 1    
    10    8    9 2    
    11    9   10 1    
    12   10   11 1    
    13   11   12 1    
    14   11   21 1    
    15   12   13 1    
    16   12   14 1    
    17   14   15 1    
    18   14   20 1    
    19   15   16 1    
    20   16   17 ar   
    21   16   18 ar   
    22   16   19 ar   
    23   20   21 1    
    24   20   22 1    
    25   22   23 1    
    26   23   24 1    
    27   24   25 ar   
    28   24   26 ar   
    29   24   27 1    
    30   27   28 1    
    31   28   29 1    
    32   28   30 ar   
    33   28   31 ar   
@<TRIPOS>SUBSTRUCTURE
     1 COA1001     1 GROUP   
@<TRIPOS>SET
ATOM$ORANGE STATIC     ATOMS   COLORGROUP SYSTEM 
20 2 2 4 4 5 5 6 6 9 9 11 11 12 12 14 14 20 \
20 22 22 

