#    Name: 6hxj_5_COA_CAVITY_N1_6
#    Modification time : Fri May 22 19:32:04 2020

@<TRIPOS>MOLECULE
6hxj_5_COA_CAVITY_N1_6
   38     0     5     0     0
SMALL
NO_CHARGES


@<TRIPOS>ATOM
      1 N          42.0500   15.5400   15.9000 N.am      1 ALA2        0.0000 
      2 N          45.0500   19.8100   17.9500 N.am      1 ALA2        0.0000 
      3 N          46.9800   17.1500   19.5900 N.am      1 ALA2        0.0000 
      4 N          46.0000   18.2600   19.8000 N.am      1 ALA2        0.0000 
      5 N          46.6200   20.7200   20.3400 N.am      1 ALA2        0.0000 
      6 N          45.6300   21.8400   20.5600 N.am      1 ALA2        0.0000 
      7 O          46.4200   22.2900   21.7500 O.2       1 ALA2        0.0000 
      8 O          48.1800   21.6400   22.7300 O.2       1 ALA2        0.0000 
      9 O          47.2000   22.7500   22.9500 O.2       1 ALA2        0.0000 
     10 N          47.3600   20.7400   23.6100 N.am      1 ALA2        0.0000 
     11 N          46.5400   19.8400   24.4900 N.am      1 ALA2        0.0000 
     12 N          45.5600   20.9600   24.7100 N.am      1 ALA2        0.0000 
     13 N          47.1600   22.3100   25.0200 N.am      1 ALA2        0.0000 
     14 OD1        42.8300   15.9900   17.1000 O.co2     2 ASP3        0.0000 
     15 OD1        42.0100   15.1000   17.9800 O.co2     2 ASP3        0.0000 
     16 OD1        43.6100   16.4500   18.2900 O.co2     2 ASP3        0.0000 
     17 CZ         47.7600   17.6000   20.7800 C.ar      3 PHE5        0.0000 
     18 CA         45.2500   18.2400   16.5300 C.3       4 GLY6        0.0000 
     19 CA         45.4100   16.2300   17.2000 C.3       4 GLY6        0.0000 
     20 CA         44.4300   17.3500   17.4100 C.3       4 GLY6        0.0000 
     21 CA         44.5900   15.3400   18.0800 C.3       4 GLY6        0.0000 
     22 CA         46.2000   16.6900   18.3900 C.3       4 GLY6        0.0000 
     23 CA         44.2300   18.9100   18.8300 C.3       4 GLY6        0.0000 
     24 CA         45.3800   15.7900   19.2700 C.3       4 GLY6        0.0000 
     25 CA         45.0100   19.3700   20.0200 C.3       4 GLY6        0.0000 
     26 CA         46.1600   16.2500   20.4700 C.3       4 GLY6        0.0000 
     27 CA         46.7800   18.7200   21.0000 C.3       4 GLY6        0.0000 
     28 CA         45.8000   19.8300   21.2200 C.3       4 GLY6        0.0000 
     29 CA         48.3800   20.0700   21.3200 C.3       4 GLY6        0.0000 
     30 CA         47.4000   21.1800   21.5300 C.3       4 GLY6        0.0000 
     31 CA         47.5600   19.1700   22.2000 C.3       4 GLY6        0.0000 
     32 CA         46.5800   20.2800   22.4100 C.3       4 GLY6        0.0000 
     33 CA         44.6100   22.5100   22.8500 C.3       4 GLY6        0.0000 
     34 CA         44.7800   20.5000   23.5100 C.3       4 GLY6        0.0000 
     35 DU         43.6500   16.8900   16.2200 H         5 CUB7        0.0000 
     36 DU         44.8100   20.9400   21.4400 H         5 CUB7        0.0000 
     37 DU         45.6000   21.4000   22.6300 H         5 CUB7        0.0000 
     38 DU         46.3800   21.8500   23.8300 H         5 CUB7        0.0000 
@<TRIPOS>BOND
@<TRIPOS>SUBSTRUCTURE
     1 ALA2        1 GROUP   
     2 ASP3       14 GROUP   
     3 PHE5       17 GROUP   
     4 GLY6       18 GROUP   
     5 CUB7       35 GROUP   
@<TRIPOS>SET

