#    Name: 6hxj_5_COA
#    Modification time : Fri May 22 19:32:03 2020

@<TRIPOS>MOLECULE
6hxj_5_COA
   31    33     1     0     1
SMALL
NO_CHARGES


@<TRIPOS>ATOM
      1 N1A        37.3580   13.7500   25.8290 N.ar      1 COA1001     0.0000 
      2 C2A        38.1000   14.0770   24.7620 C.ar      1 COA1001     0.0000 
      3 N3A        38.7410   15.2240   24.5080 N.ar      1 COA1001     0.0000 
      4 C4A        38.5620   16.1090   25.5040 C.ar      1 COA1001     0.0000 
      5 C5A        37.8210   15.9150   26.6610 C.ar      1 COA1001     0.0000 
      6 C6A        37.2080   14.6560   26.8220 C.ar      1 COA1001     0.0000 
      7 N6A        36.5810   14.2740   27.9370 N.pl3     1 COA1001     0.0000 
      8 N7A        37.8710   17.0400   27.4700 N.2       1 COA1001     0.0000 
      9 C8A        38.6400   17.8670   26.8050 C.2       1 COA1001     0.0000 
     10 N9A        39.0890   17.3750   25.6070 N.pl3     1 COA1001     0.0000 
     11 C1B        39.9500   18.0660   24.6530 C.3       1 COA1001     0.0000 
     12 C2B        39.3960   19.3970   24.1390 C.3       1 COA1001     0.0000 
     13 O2B        38.4670   19.2220   23.0720 O.3       1 COA1001     0.0000 
     14 C3B        40.6950   20.0900   23.7330 C.3       1 COA1001     0.0000 
     15 O3B        41.2030   19.5800   22.4780 O.3       1 COA1001     0.0000 
     16 P3B        41.3030   20.3410   21.0470 P.3       1 COA1001     0.0000 
     17 O7A        40.5210   19.5060   20.0340 O.co2     1 COA1001     0.0000 
     18 O8A        42.7940   20.2570   20.7120 O.co2     1 COA1001     0.0000 
     19 O9A        40.7560   21.7320   21.1610 O.co2     1 COA1001     0.0000 
     20 C4B        41.6870   19.6270   24.8030 C.3       1 COA1001     0.0000 
     21 O4B        41.1790   18.3680   25.2920 O.3       1 COA1001     0.0000 
     22 C5B        41.9760   20.5730   25.9480 C.3       1 COA1001     0.0000 
     23 O5B        40.7750   21.0160   26.6080 O.3       1 COA1001     0.0000 
     24 P1A        40.2000   22.5200   26.4890 P.3       1 COA1001     0.0000 
     25 O1A        40.0170   22.9730   25.0840 O.co2     1 COA1001     0.0000 
     26 O2A        38.9290   22.4570   27.3250 O.co2     1 COA1001     0.0000 
     27 O3A        41.1690   23.5410   27.2340 O.3       1 COA1001     0.0000 
     28 P2A        41.5640   23.7350   28.7610 P.3       1 COA1001     0.0000 
     29 O4A        43.0990   23.8660   28.8150 O.3       1 COA1001     0.0000 
     30 O5A        40.8280   24.8700   29.3580 O.co2     1 COA1001     0.0000 
     31 O6A        41.1280   22.3410   29.4480 O.co2     1 COA1001     0.0000 
@<TRIPOS>BOND
     1    1    2 ar   
     2    1    6 ar   
     3    2    3 ar   
     4    3    4 ar   
     5    4    5 ar   
     6    4   10 1    
     7    5    6 ar   
     8    5    8 1    
     9    6    7 1    
    10    8    9 2    
    11    9   10 1    
    12   10   11 1    
    13   11   12 1    
    14   11   21 1    
    15   12   13 1    
    16   12   14 1    
    17   14   15 1    
    18   14   20 1    
    19   15   16 1    
    20   16   17 ar   
    21   16   18 ar   
    22   16   19 ar   
    23   20   21 1    
    24   20   22 1    
    25   22   23 1    
    26   23   24 1    
    27   24   25 ar   
    28   24   26 ar   
    29   24   27 1    
    30   27   28 1    
    31   28   29 1    
    32   28   30 ar   
    33   28   31 ar   
@<TRIPOS>SUBSTRUCTURE
     1 COA1001     1 GROUP   
@<TRIPOS>SET
ATOM$ORANGE STATIC     ATOMS   COLORGROUP SYSTEM 
20 2 2 4 4 5 5 6 6 9 9 11 11 12 12 14 14 20 \
20 22 22 

