#    Name: 6hxj_1_COA_CAVITY_N1_4
#    Modification time : Fri May 22 19:31:16 2020

@<TRIPOS>MOLECULE
6hxj_1_COA_CAVITY_N1_4
   17     0     3     0     0
SMALL
NO_CHARGES


@<TRIPOS>ATOM
      1 N          14.0200   15.3200   66.3000 N.am      1 ALA2        0.0000 
      2 N          16.4500   17.5700   65.7400 N.am      1 ALA2        0.0000 
      3 N          15.6300   16.6800   66.6200 N.am      1 ALA2        0.0000 
      4 N          17.2300   18.0300   66.9300 N.am      1 ALA2        0.0000 
      5 N          16.4100   17.1300   67.8100 N.am      1 ALA2        0.0000 
      6 O          20.6000   18.7300   68.2300 O.2       1 ALA2        0.0000 
      7 CA         16.6100   15.5600   66.4000 C.3       2 GLY6        0.0000 
      8 CA         14.8100   15.7800   67.5000 C.3       2 GLY6        0.0000 
      9 CA         18.3700   14.9100   67.3800 C.3       2 GLY6        0.0000 
     10 CA         17.3900   16.0200   67.6000 C.3       2 GLY6        0.0000 
     11 CA         15.5900   16.2400   68.6900 C.3       2 GLY6        0.0000 
     12 CA         18.0100   18.4900   68.1300 C.3       2 GLY6        0.0000 
     13 CA         18.1700   16.4800   68.7900 C.3       2 GLY6        0.0000 
     14 CA         19.7800   17.8300   69.1100 C.3       2 GLY6        0.0000 
     15 CA         20.5600   18.2900   70.3000 C.3       2 GLY6        0.0000 
     16 DU         18.2100   16.9200   66.7200 H         3 CUB7        0.0000 
     17 DU         18.9900   17.3700   67.9100 H         3 CUB7        0.0000 
@<TRIPOS>BOND
@<TRIPOS>SUBSTRUCTURE
     1 ALA2        1 GROUP   
     2 GLY6        7 GROUP   
     3 CUB7       16 GROUP   
@<TRIPOS>SET

