#    Name: 6hxj_1_COA
#    Modification time : Fri May 22 19:31:15 2020

@<TRIPOS>MOLECULE
6hxj_1_COA
   37    39     1     0     1
SMALL
NO_CHARGES


@<TRIPOS>ATOM
      1 N1A        14.3370   16.9760   71.3330 N.ar      1 COA1001     0.0000 
      2 C2A        14.1660   17.0590   72.6580 C.ar      1 COA1001     0.0000 
      3 N3A        15.0880   17.0220   73.6240 N.ar      1 COA1001     0.0000 
      4 C4A        16.3210   16.8660   73.1150 C.ar      1 COA1001     0.0000 
      5 C5A        16.6530   16.7570   71.7710 C.ar      1 COA1001     0.0000 
      6 C6A        15.5910   16.8400   70.8430 C.ar      1 COA1001     0.0000 
      7 N6A        15.7590   16.9190   69.5190 N.pl3     1 COA1001     0.0000 
      8 N7A        18.0270   16.6270   71.6180 N.2       1 COA1001     0.0000 
      9 C8A        18.4840   16.6710   72.8470 C.2       1 COA1001     0.0000 
     10 N9A        17.5110   16.8140   73.8020 N.pl3     1 COA1001     0.0000 
     11 C1B        17.6990   16.8870   75.2540 C.3       1 COA1001     0.0000 
     12 C2B        18.3900   15.6660   75.8670 C.3       1 COA1001     0.0000 
     13 O2B        17.4800   14.6000   76.1250 O.3       1 COA1001     0.0000 
     14 C3B        19.0020   16.2910   77.1200 C.3       1 COA1001     0.0000 
     15 O3B        17.9940   16.4570   78.1440 O.3       1 COA1001     0.0000 
     16 P3B        17.8890   15.7010   79.5660 P.3       1 COA1001     0.0000 
     17 O7A        18.9960   14.7050   79.7260 O.co2     1 COA1001     0.0000 
     18 O8A        17.9370   16.8420   80.6060 O.co2     1 COA1001     0.0000 
     19 O9A        16.4990   15.0370   79.5870 O.co2     1 COA1001     0.0000 
     20 C4B        19.3940   17.7000   76.6580 C.3       1 COA1001     0.0000 
     21 O4B        18.5200   18.0030   75.5510 O.3       1 COA1001     0.0000 
     22 C5B        20.8320   17.9480   76.2610 C.3       1 COA1001     0.0000 
     23 O5B        21.3640   16.8650   75.4690 O.3       1 COA1001     0.0000 
     24 P1A        22.3980   15.8050   76.1850 P.3       1 COA1001     0.0000 
     25 O1A        22.4430   15.8440   77.6710 O.co2     1 COA1001     0.0000 
     26 O2A        22.1290   14.4120   75.6150 O.co2     1 COA1001     0.0000 
     27 O3A        23.8030   16.2550   75.6000 O.3       1 COA1001     0.0000 
     28 P2A        24.2270   16.3930   74.0760 P.3       1 COA1001     0.0000 
     29 O4A        24.3350   17.8340   73.7380 O.co2     1 COA1001     0.0000 
     30 O5A        25.5270   15.5840   73.9120 O.co2     1 COA1001     0.0000 
     31 O6A        23.0270   15.6220   73.2270 O.3       1 COA1001     0.0000 
     32 CBP        22.1200   15.1440   71.0070 C.3       1 COA1001     0.0000 
     33 CCP        23.3050   14.9800   71.9670 C.3       1 COA1001     0.0000 
     34 CDP        20.9970   14.2020   71.4570 C.3       1 COA1001     0.0000 
     35 CEP        22.5800   14.7070   69.6130 C.3       1 COA1001     0.0000 
     36 CAP        21.5350   16.5760   70.8940 C.3       1 COA1001     0.0000 
     37 OAP        22.4870   17.6260   70.8580 O.3       1 COA1001     0.0000 
@<TRIPOS>BOND
     1    1    2 ar   
     2    1    6 ar   
     3    2    3 ar   
     4    3    4 ar   
     5    4    5 ar   
     6    4   10 1    
     7    5    6 ar   
     8    5    8 1    
     9    6    7 1    
    10    8    9 2    
    11    9   10 1    
    12   10   11 1    
    13   11   12 1    
    14   11   21 1    
    15   12   13 1    
    16   12   14 1    
    17   14   15 1    
    18   14   20 1    
    19   15   16 1    
    20   16   17 ar   
    21   16   18 ar   
    22   16   19 ar   
    23   20   21 1    
    24   20   22 1    
    25   22   23 1    
    26   23   24 1    
    27   24   25 ar   
    28   24   26 ar   
    29   24   27 1    
    30   27   28 1    
    31   28   29 ar   
    32   28   30 ar   
    33   28   31 1    
    34   31   33 1    
    35   32   33 1    
    36   32   34 1    
    37   32   35 1    
    38   32   36 1    
    39   36   37 1    
@<TRIPOS>SUBSTRUCTURE
     1 COA1001     1 GROUP   
@<TRIPOS>SET
ATOM$ORANGE STATIC     ATOMS   COLORGROUP SYSTEM 
30 2 2 4 4 5 5 6 6 9 9 11 11 12 12 14 14 20 \
20 22 22 32 32 33 33 34 34 35 35 36 36 

