#    Name: 6hxj_3_COA
#    Modification time : Fri May 22 19:31:48 2020

@<TRIPOS>MOLECULE
6hxj_3_COA
   31    33     1     0     1
SMALL
NO_CHARGES


@<TRIPOS>ATOM
      1 N1A         2.7990  -12.5750   60.4790 N.ar      1 COA1001     0.0000 
      2 C2A         2.3120  -13.2370   61.5350 C.ar      1 COA1001     0.0000 
      3 N3A         1.0380  -13.4960   61.8450 N.ar      1 COA1001     0.0000 
      4 C4A         0.2030  -12.9820   60.9300 C.ar      1 COA1001     0.0000 
      5 C5A         0.5570  -12.2760   59.7870 C.ar      1 COA1001     0.0000 
      6 C6A         1.9360  -12.0900   59.5550 C.ar      1 COA1001     0.0000 
      7 N6A         2.4370  -11.5600   58.4350 N.pl3     1 COA1001     0.0000 
      8 N7A        -0.5690  -11.9270   59.0570 N.2       1 COA1001     0.0000 
      9 C8A        -1.5600  -12.4260   59.7570 C.2       1 COA1001     0.0000 
     10 N9A        -1.1680  -13.0770   60.9000 N.pl3     1 COA1001     0.0000 
     11 C1B        -2.0310  -13.7470   61.8740 C.3       1 COA1001     0.0000 
     12 C2B        -3.0700  -12.8300   62.5260 C.3       1 COA1001     0.0000 
     13 O2B        -2.5320  -12.1060   63.6230 O.3       1 COA1001     0.0000 
     14 C3B        -4.1550  -13.8390   62.8960 C.3       1 COA1001     0.0000 
     15 O3B        -3.7930  -14.5750   64.0870 O.3       1 COA1001     0.0000 
     16 P3B        -4.4650  -14.5590   65.5740 P.3       1 COA1001     0.0000 
     17 O7A        -5.8770  -13.9350   65.4850 O.co2     1 COA1001     0.0000 
     18 O8A        -3.5440  -13.8290   66.4950 O.co2     1 COA1001     0.0000 
     19 O9A        -4.6260  -16.0280   65.9760 O.co2     1 COA1001     0.0000 
     20 C4B        -4.1010  -14.8480   61.7460 C.3       1 COA1001     0.0000 
     21 O4B        -2.7600  -14.7650   61.2100 O.3       1 COA1001     0.0000 
     22 C5B        -5.1430  -14.7090   60.6580 C.3       1 COA1001     0.0000 
     23 O5B        -5.1860  -13.3670   60.1270 O.3       1 COA1001     0.0000 
     24 P1A        -6.3290  -12.2260   60.3930 P.3       1 COA1001     0.0000 
     25 O1A        -5.6300  -10.9220   60.3280 O.co2     1 COA1001     0.0000 
     26 O2A        -7.1060  -12.4320   61.7090 O.co2     1 COA1001     0.0000 
     27 O3A        -7.3760  -12.4460   59.2130 O.3       1 COA1001     0.0000 
     28 P2A        -7.3100  -12.8970   57.6860 P.3       1 COA1001     0.0000 
     29 O4A        -8.4940  -12.0990   56.9310 O.3       1 COA1001     0.0000 
     30 O5A        -5.9990  -12.3300   57.1290 O.co2     1 COA1001     0.0000 
     31 O6A        -7.5050  -14.3600   57.5570 O.co2     1 COA1001     0.0000 
@<TRIPOS>BOND
     1    1    2 ar   
     2    1    6 ar   
     3    2    3 ar   
     4    3    4 ar   
     5    4    5 ar   
     6    4   10 1    
     7    5    6 ar   
     8    5    8 1    
     9    6    7 1    
    10    8    9 2    
    11    9   10 1    
    12   10   11 1    
    13   11   12 1    
    14   11   21 1    
    15   12   13 1    
    16   12   14 1    
    17   14   15 1    
    18   14   20 1    
    19   15   16 1    
    20   16   17 ar   
    21   16   18 ar   
    22   16   19 ar   
    23   20   21 1    
    24   20   22 1    
    25   22   23 1    
    26   23   24 1    
    27   24   25 ar   
    28   24   26 ar   
    29   24   27 1    
    30   27   28 1    
    31   28   29 1    
    32   28   30 ar   
    33   28   31 ar   
@<TRIPOS>SUBSTRUCTURE
     1 COA1001     1 GROUP   
@<TRIPOS>SET
ATOM$ORANGE STATIC     ATOMS   COLORGROUP SYSTEM 
20 2 2 4 4 5 5 6 6 9 9 11 11 12 12 14 14 20 \
20 22 22 

