#    Name: 6hxj_7_COA_CAVITY_N1_6
#    Modification time : Fri May 22 19:32:30 2020

@<TRIPOS>MOLECULE
6hxj_7_COA_CAVITY_N1_6
   23     0     2     0     0
SMALL
NO_CHARGES


@<TRIPOS>ATOM
      1 O          -1.3800    9.6300    5.1700 O.2       1 ALA2        0.0000 
      2 N          -0.6000   10.0900    6.3600 N.am      1 ALA2        0.0000 
      3 N          -1.5800   11.2000    6.5800 N.am      1 ALA2        0.0000 
      4 N          -2.2400    8.3000    8.1200 N.am      1 ALA2        0.0000 
      5 N           2.6400   13.2300    4.9200 N.am      1 ALA2        0.0000 
      6 N           1.6600   14.3500    5.1400 N.am      1 ALA2        0.0000 
      7 CA         -1.8800    4.7200    7.3700 C.3       2 GLY6        0.0000 
      8 CA         -2.8600    5.8300    7.5900 C.3       2 GLY6        0.0000 
      9 CA          1.2000    9.8700    5.2700 C.3       2 GLY6        0.0000 
     10 CA         -1.4200    9.1900    7.2400 C.3       2 GLY6        0.0000 
     11 CA         -1.2600    7.1800    7.9000 C.3       2 GLY6        0.0000 
     12 CA          0.6800   15.4600    5.3600 C.3       2 GLY6        0.0000 
     13 CA          1.8200   12.3400    5.8000 C.3       2 GLY6        0.0000 
     14 CA          0.8400   13.4500    6.0200 C.3       2 GLY6        0.0000 
     15 CA         -0.1400   14.5600    6.2400 C.3       2 GLY6        0.0000 
     16 CA          1.0000   11.4400    6.6800 C.3       2 GLY6        0.0000 
     17 CA         -0.9600   13.6700    7.1100 C.3       2 GLY6        0.0000 
     18 CA          1.1600    9.4300    7.3400 C.3       2 GLY6        0.0000 
     19 CA          0.1800   10.5500    7.5600 C.3       2 GLY6        0.0000 
     20 CA         -0.6400    9.6500    8.4400 C.3       2 GLY6        0.0000 
     21 CA          3.2600   15.7000    5.4600 C.3       2 GLY6        0.0000 
     22 CA          2.4400   14.8000    6.3300 C.3       2 GLY6        0.0000 
     23 CA          1.4600   15.9200    6.5500 C.3       2 GLY6        0.0000 
@<TRIPOS>BOND
@<TRIPOS>SUBSTRUCTURE
     1 ALA2        1 GROUP   
     2 GLY6        7 GROUP   
@<TRIPOS>SET

