#    Name: 6hxj_2_COA
#    Modification time : Fri May 22 19:31:32 2020

@<TRIPOS>MOLECULE
6hxj_2_COA
   48    50     1     0     1
SMALL
NO_CHARGES


@<TRIPOS>ATOM
      1 N1A        15.8200    0.4460    7.7730 N.ar      1 COA1002     0.0000 
      2 C2A        15.4320    1.6920    8.0770 C.ar      1 COA1002     0.0000 
      3 N3A        14.2280    2.2590    7.9260 N.ar      1 COA1002     0.0000 
      4 C4A        13.3500    1.3880    7.4060 C.ar      1 COA1002     0.0000 
      5 C5A        13.6040    0.0710    7.0380 C.ar      1 COA1002     0.0000 
      6 C6A        14.9210   -0.4030    7.2300 C.ar      1 COA1002     0.0000 
      7 N6A        15.3420   -1.6130    6.8670 N.pl3     1 COA1002     0.0000 
      8 N7A        12.4550   -0.5280    6.5410 N.2       1 COA1002     0.0000 
      9 C8A        11.5500    0.4230    6.6200 C.2       1 COA1002     0.0000 
     10 N9A        12.0220    1.6080    7.1240 N.pl3     1 COA1002     0.0000 
     11 C1B        11.2800    2.8580    7.2860 C.3       1 COA1002     0.0000 
     12 C2B        10.8950    3.5630    5.9770 C.3       1 COA1002     0.0000 
     13 O2B        11.9060    4.3970    5.4110 O.3       1 COA1002     0.0000 
     14 C3B         9.6600    4.3520    6.4230 C.3       1 COA1002     0.0000 
     15 O3B         9.9700    5.6710    6.9280 O.3       1 COA1002     0.0000 
     16 P3B         9.6980    7.0720    6.1440 P.3       1 COA1002     0.0000 
     17 O7A        10.1940    8.2150    6.9630 O.co2     1 COA1002     0.0000 
     18 O8A        10.4620    6.9640    4.7960 O.co2     1 COA1002     0.0000 
     19 O9A         8.1560    7.1260    5.8900 O.co2     1 COA1002     0.0000 
     20 C4B         9.0470    3.5100    7.5410 C.3       1 COA1002     0.0000 
     21 O4B        10.0640    2.5650    7.9400 O.3       1 COA1002     0.0000 
     22 C5B         7.7750    2.7770    7.1860 C.3       1 COA1002     0.0000 
     23 O5B         7.9110    2.2290    5.8570 O.3       1 COA1002     0.0000 
     24 P1A         7.8480    0.6590    5.4320 P.3       1 COA1002     0.0000 
     25 O1A         8.0280   -0.3400    6.5310 O.co2     1 COA1002     0.0000 
     26 O2A         8.8120    0.5110    4.1820 O.co2     1 COA1002     0.0000 
     27 O3A         6.3300    0.6350    4.9430 O.3       1 COA1002     0.0000 
     28 P2A         5.3100    1.6970    4.3380 P.3       1 COA1002     0.0000 
     29 O4A         4.7220    2.5330    5.4010 O.co2     1 COA1002     0.0000 
     30 O5A         6.0330    2.5170    3.2200 O.co2     1 COA1002     0.0000 
     31 O6A         4.5970    0.6350    3.3820 O.3       1 COA1002     0.0000 
     32 CBP         2.3270    0.0220    2.8940 C.3       1 COA1002     0.0000 
     33 CCP         3.5660   -0.2700    3.7430 C.3       1 COA1002     0.0000 
     34 CDP         1.4240   -1.2070    2.9480 C.3       1 COA1002     0.0000 
     35 CEP         1.5890    1.2310    3.5040 C.3       1 COA1002     0.0000 
     36 CAP         2.7580    0.3870    1.4480 C.3       1 COA1002     0.0000 
     37 OAP         3.7300   -0.5040    0.9360 O.3       1 COA1002     0.0000 
     38 C9P         1.6720    0.5730    0.3910 C.2       1 COA1002     0.0000 
     39 O9P         1.4110    1.7010   -0.0180 O.2       1 COA1002     0.0000 
     40 N8P         0.9350   -0.4930    0.0800 N.am      1 COA1002     0.0000 
     41 C7P        -0.3260   -0.3830   -0.6430 C.3       1 COA1002     0.0000 
     42 C6P        -1.5130   -0.2660    0.2870 C.3       1 COA1002     0.0000 
     43 C5P        -1.9170   -1.6070    0.8390 C.2       1 COA1002     0.0000 
     44 O5P        -2.2790   -2.5110    0.0870 O.2       1 COA1002     0.0000 
     45 N4P        -1.8380   -1.7400    2.1650 N.am      1 COA1002     0.0000 
     46 C3P        -2.0960   -2.9900    2.8680 C.3       1 COA1002     0.0000 
     47 C2P        -2.6600   -2.7550    4.2550 C.3       1 COA1002     0.0000 
     48 S1P        -2.5980   -4.3910    5.0350 S.3       1 COA1002     0.0000 
@<TRIPOS>BOND
     1    1    2 ar   
     2    1    6 ar   
     3    2    3 ar   
     4    3    4 ar   
     5    4    5 ar   
     6    4   10 1    
     7    5    6 ar   
     8    5    8 1    
     9    6    7 1    
    10    8    9 2    
    11    9   10 1    
    12   10   11 1    
    13   11   12 1    
    14   11   21 1    
    15   12   13 1    
    16   12   14 1    
    17   14   15 1    
    18   14   20 1    
    19   15   16 1    
    20   16   17 ar   
    21   16   18 ar   
    22   16   19 ar   
    23   20   21 1    
    24   20   22 1    
    25   22   23 1    
    26   23   24 1    
    27   24   25 ar   
    28   24   26 ar   
    29   24   27 1    
    30   27   28 1    
    31   28   29 ar   
    32   28   30 ar   
    33   28   31 1    
    34   31   33 1    
    35   32   33 1    
    36   32   34 1    
    37   32   35 1    
    38   32   36 1    
    39   36   37 1    
    40   36   38 1    
    41   38   39 2    
    42   38   40 am   
    43   40   41 1    
    44   41   42 1    
    45   42   43 1    
    46   43   44 2    
    47   43   45 am   
    48   45   46 1    
    49   46   47 1    
    50   47   48 1    
@<TRIPOS>SUBSTRUCTURE
     1 COA1002     1 GROUP   
@<TRIPOS>SET
ATOM$ORANGE STATIC     ATOMS   COLORGROUP SYSTEM 
42 2 2 4 4 5 5 6 6 9 9 11 11 12 12 14 14 20 \
20 22 22 32 32 33 33 34 34 35 35 36 36 38 38 41 41 42 \
42 43 43 46 46 47 47 

