#    Name: 6hxj_8_COA
#    Modification time : Fri May 22 19:32:40 2020

@<TRIPOS>MOLECULE
6hxj_8_COA
   40    42     1     0     1
SMALL
NO_CHARGES


@<TRIPOS>ATOM
      1 N1A        27.7100   -0.1510   79.3710 N.ar      1 COA1002     0.0000 
      2 C2A        26.5700    0.5510   79.3550 C.ar      1 COA1002     0.0000 
      3 N3A        26.3710    1.8300   79.6880 N.ar      1 COA1002     0.0000 
      4 C4A        27.5160    2.4160   80.0680 C.ar      1 COA1002     0.0000 
      5 C5A        28.7690    1.8220   80.1330 C.ar      1 COA1002     0.0000 
      6 C6A        28.8470    0.4630   79.7740 C.ar      1 COA1002     0.0000 
      7 N6A        29.9620   -0.2610   79.8620 N.pl3     1 COA1002     0.0000 
      8 N7A        29.7250    2.7350   80.5510 N.2       1 COA1002     0.0000 
      9 C8A        29.0410    3.8400   80.7260 C.2       1 COA1002     0.0000 
     10 N9A        27.7000    3.7190   80.4620 N.pl3     1 COA1002     0.0000 
     11 C1B        26.6730    4.7560   80.5990 C.3       1 COA1002     0.0000 
     12 C2B        26.3350    5.1410   82.0450 C.3       1 COA1002     0.0000 
     13 O2B        25.3500    4.2970   82.6340 O.3       1 COA1002     0.0000 
     14 C3B        25.8540    6.5840   81.8640 C.3       1 COA1002     0.0000 
     15 O3B        24.4400    6.6990   81.5880 O.3       1 COA1002     0.0000 
     16 P3B        23.3250    7.2220   82.6540 P.3       1 COA1002     0.0000 
     17 O7A        21.9820    7.2830   81.9670 O.co2     1 COA1002     0.0000 
     18 O8A        23.3590    6.2240   83.8390 O.co2     1 COA1002     0.0000 
     19 O9A        23.8030    8.5990   83.1830 O.co2     1 COA1002     0.0000 
     20 C4B        26.6280    7.0990   80.6460 C.3       1 COA1002     0.0000 
     21 O4B        27.1500    5.9320   79.9740 O.3       1 COA1002     0.0000 
     22 C5B        27.7470    8.0730   80.9300 C.3       1 COA1002     0.0000 
     23 O5B        28.4460    7.6480   82.1230 O.3       1 COA1002     0.0000 
     24 P1A        30.0260    7.3010   82.2510 P.3       1 COA1002     0.0000 
     25 O1A        30.1840    6.2220   83.2570 O.co2     1 COA1002     0.0000 
     26 O2A        30.6720    7.0470   80.8740 O.co2     1 COA1002     0.0000 
     27 O3A        30.5480    8.7150   82.7790 O.3       1 COA1002     0.0000 
     28 P2A        29.9120    9.9690   83.5370 P.3       1 COA1002     0.0000 
     29 O4A        29.0170    9.5220   84.6270 O.co2     1 COA1002     0.0000 
     30 O5A        29.0710   10.7450   82.5240 O.co2     1 COA1002     0.0000 
     31 O6A        31.0080   11.0530   84.0710 O.3       1 COA1002     0.0000 
     32 CBP        33.1930   11.5610   85.0470 C.3       1 COA1002     0.0000 
     33 CCP        32.4280   10.9170   83.8810 C.3       1 COA1002     0.0000 
     34 CDP        33.8380   12.8560   84.5360 C.3       1 COA1002     0.0000 
     35 CEP        34.3210   10.6140   85.4630 C.3       1 COA1002     0.0000 
     36 CAP        32.2800   11.8440   86.2710 C.3       1 COA1002     0.0000 
     37 OAP        31.6450   10.6500   86.6950 O.3       1 COA1002     0.0000 
     38 C9P        32.8990   12.5270   87.4880 C.2       1 COA1002     0.0000 
     39 O9P        33.2160   11.8690   88.4790 O.2       1 COA1002     0.0000 
     40 N8P        33.0100   13.8550   87.4460 N.am      1 COA1002     0.0000 
@<TRIPOS>BOND
     1    1    2 ar   
     2    1    6 ar   
     3    2    3 ar   
     4    3    4 ar   
     5    4    5 ar   
     6    4   10 1    
     7    5    6 ar   
     8    5    8 1    
     9    6    7 1    
    10    8    9 2    
    11    9   10 1    
    12   10   11 1    
    13   11   12 1    
    14   11   21 1    
    15   12   13 1    
    16   12   14 1    
    17   14   15 1    
    18   14   20 1    
    19   15   16 1    
    20   16   17 ar   
    21   16   18 ar   
    22   16   19 ar   
    23   20   21 1    
    24   20   22 1    
    25   22   23 1    
    26   23   24 1    
    27   24   25 ar   
    28   24   26 ar   
    29   24   27 1    
    30   27   28 1    
    31   28   29 ar   
    32   28   30 ar   
    33   28   31 1    
    34   31   33 1    
    35   32   33 1    
    36   32   34 1    
    37   32   35 1    
    38   32   36 1    
    39   36   37 1    
    40   36   38 1    
    41   38   39 2    
    42   38   40 am   
@<TRIPOS>SUBSTRUCTURE
     1 COA1002     1 GROUP   
@<TRIPOS>SET
ATOM$ORANGE STATIC     ATOMS   COLORGROUP SYSTEM 
32 2 2 4 4 5 5 6 6 9 9 11 11 12 12 14 14 20 \
20 22 22 32 32 33 33 34 34 35 35 36 36 38 38 

