#    Name: 6hxj_1_COA_CAVITY_N1_6
#    Modification time : Fri May 22 19:31:16 2020

@<TRIPOS>MOLECULE
6hxj_1_COA_CAVITY_N1_6
   47     0     4     0     0
SMALL
NO_CHARGES


@<TRIPOS>ATOM
      1 N          14.0600   15.7600   64.2300 N.am      1 ALA2        0.0000 
      2 N          14.2200   13.7500   64.8900 N.am      1 ALA2        0.0000 
      3 N          15.6700   17.1200   64.5400 N.am      1 ALA2        0.0000 
      4 N          14.8500   16.2200   65.4200 N.am      1 ALA2        0.0000 
      5 N          14.0200   15.3200   66.3000 N.am      1 ALA2        0.0000 
      6 N          16.4500   17.5700   65.7400 N.am      1 ALA2        0.0000 
      7 N          15.6300   16.6800   66.6200 N.am      1 ALA2        0.0000 
      8 N          17.2300   18.0300   66.9300 N.am      1 ALA2        0.0000 
      9 N          16.4100   17.1300   67.8100 N.am      1 ALA2        0.0000 
     10 O          20.6400   19.1700   66.1500 O.2       1 ALA2        0.0000 
     11 O          19.6500   20.2800   66.3700 O.2       1 ALA2        0.0000 
     12 O          21.4200   19.6200   67.3500 O.2       1 ALA2        0.0000 
     13 O          20.6000   18.7300   68.2300 O.2       1 ALA2        0.0000 
     14 O          19.6200   19.8400   68.4500 O.2       1 ALA2        0.0000 
     15 OD1        20.8400   17.6000   64.7400 O.co2     2 ASP3        0.0000 
     16 OD1        22.4400   18.9500   65.0600 O.co2     2 ASP3        0.0000 
     17 OD1        22.6000   16.9400   65.7200 O.co2     2 ASP3        0.0000 
     18 CA         13.2400   14.8700   65.1100 C.3       3 GLY6        0.0000 
     19 CA         16.8100   13.9900   64.9900 C.3       3 GLY6        0.0000 
     20 CA         15.9900   13.1000   65.8700 C.3       3 GLY6        0.0000 
     21 CA         15.0100   14.2100   66.0800 C.3       3 GLY6        0.0000 
     22 CA         17.2700   18.4700   64.8600 C.3       3 GLY6        0.0000 
     23 CA         18.5700   13.3400   65.9700 C.3       3 GLY6        0.0000 
     24 CA         17.5900   14.4500   66.1800 C.3       3 GLY6        0.0000 
     25 CA         16.6100   15.5600   66.4000 C.3       3 GLY6        0.0000 
     26 CA         14.8100   15.7800   67.5000 C.3       3 GLY6        0.0000 
     27 CA         18.0500   18.9300   66.0600 C.3       3 GLY6        0.0000 
     28 CA         18.3700   14.9100   67.3800 C.3       3 GLY6        0.0000 
     29 CA         17.3900   16.0200   67.6000 C.3       3 GLY6        0.0000 
     30 CA         15.5900   16.2400   68.6900 C.3       3 GLY6        0.0000 
     31 CA         18.8300   19.3800   67.2500 C.3       3 GLY6        0.0000 
     32 CA         18.0100   18.4900   68.1300 C.3       3 GLY6        0.0000 
     33 CA         18.1700   16.4800   68.7900 C.3       3 GLY6        0.0000 
     34 CA         19.7800   17.8300   69.1100 C.3       3 GLY6        0.0000 
     35 CA         20.5600   18.2900   70.3000 C.3       3 GLY6        0.0000 
     36 DU         16.6500   16.0000   64.3300 H         4 CUB7        0.0000 
     37 DU         15.8300   15.1100   65.2100 H         4 CUB7        0.0000 
     38 DU         19.3900   14.2300   65.0900 H         4 CUB7        0.0000 
     39 DU         18.4100   15.3500   65.3000 H         4 CUB7        0.0000 
     40 DU         17.4300   16.4600   65.5200 H         4 CUB7        0.0000 
     41 DU         21.0000   15.5900   65.4000 H         4 CUB7        0.0000 
     42 DU         19.0300   17.8100   65.8400 H         4 CUB7        0.0000 
     43 DU         19.1900   15.8000   66.5000 H         4 CUB7        0.0000 
     44 DU         18.2100   16.9200   66.7200 H         4 CUB7        0.0000 
     45 DU         21.6200   18.0500   65.9400 H         4 CUB7        0.0000 
     46 DU         19.8200   18.2700   67.0300 H         4 CUB7        0.0000 
     47 DU         18.9900   17.3700   67.9100 H         4 CUB7        0.0000 
@<TRIPOS>BOND
@<TRIPOS>SUBSTRUCTURE
     1 ALA2        1 GROUP   
     2 ASP3       15 GROUP   
     3 GLY6       18 GROUP   
     4 CUB7       36 GROUP   
@<TRIPOS>SET

