#    Name: 6e0l_1_APC
#    Modification time : Fri May 22 19:27:45 2020

@<TRIPOS>MOLECULE
6e0l_1_APC
   31    33     1     0     0
SMALL
NO_CHARGES


@<TRIPOS>ATOM
      1 PG         19.7040   34.3530   52.0160 P.3       1 APC302      0.0000 
      2 O1G        20.1260   33.4990   50.8570 O.co2     1 APC302      0.0000 
      3 O2G        18.4350   35.1260   51.7170 O.co2     1 APC302      0.0000 
      4 O3G        20.8110   35.2880   52.4160 O.co2     1 APC302      0.0000 
      5 PB         20.3720   32.9340   54.4820 P.3       1 APC302      0.0000 
      6 O1B        21.7610   33.4430   54.1610 O.co2     1 APC302      0.0000 
      7 O2B        20.3860   31.4270   54.5420 O.co2     1 APC302      0.0000 
      8 O3B        19.3810   33.3280   53.2460 O.3       1 APC302      0.0000 
      9 PA         20.4640   35.2750   56.4660 P.3       1 APC302      0.0000 
     10 O1A        21.3380   35.7870   55.3460 O.co2     1 APC302      0.0000 
     11 O2A        19.4500   36.3220   56.8830 O.co2     1 APC302      0.0000 
     12 C3A        19.6620   33.6670   56.0190 C.3       1 APC302      0.0000 
     13 O5'        21.4260   34.9640   57.7690 O.3       1 APC302      0.0000 
     14 C5'        22.5250   34.1380   57.5120 C.3       1 APC302      0.0000 
     15 C4'        22.8340   33.2650   58.7520 C.3       1 APC302      0.0000 
     16 O4'        22.8180   34.0040   59.8390 O.3       1 APC302      0.0000 
     17 C3'        21.7410   32.1900   58.9680 C.3       1 APC302      0.0000 
     18 O3'        21.9190   31.0640   58.1920 O.3       1 APC302      0.0000 
     19 C2'        21.9780   31.8900   60.4700 C.3       1 APC302      0.0000 
     20 O2'        23.1690   30.9670   60.5580 O.3       1 APC302      0.0000 
     21 C1'        22.2060   33.0730   61.0100 C.3       1 APC302      0.0000 
     22 N9         20.9520   33.6850   61.3340 N.pl3     1 APC302      0.0000 
     23 C8         20.2320   34.6080   60.6830 C.2       1 APC302      0.0000 
     24 N7         19.1190   34.8400   61.3730 N.2       1 APC302      0.0000 
     25 C5         19.1560   34.0660   62.4730 C.ar      1 APC302      0.0000 
     26 C6         18.2630   33.9300   63.5040 C.ar      1 APC302      0.0000 
     27 N6         16.9840   34.5540   63.7760 N.pl3     1 APC302      0.0000 
     28 N1         18.5180   33.0890   64.4890 N.ar      1 APC302      0.0000 
     29 C2         19.6630   32.3540   64.4710 C.ar      1 APC302      0.0000 
     30 N3         20.5520   32.4780   63.4510 N.ar      1 APC302      0.0000 
     31 C4         20.2870   33.3430   62.4490 C.ar      1 APC302      0.0000 
@<TRIPOS>BOND
     1    1    2 ar   
     2    1    3 ar   
     3    1    4 ar   
     4    1    8 1    
     5    5    6 ar   
     6    5    7 ar   
     7    5    8 1    
     8    5   12 1    
     9    9   10 ar   
    10    9   11 ar   
    11    9   12 1    
    12    9   13 1    
    13   13   14 1    
    14   14   15 1    
    15   15   16 1    
    16   15   17 1    
    17   16   21 1    
    18   17   18 1    
    19   17   19 1    
    20   19   20 1    
    21   19   21 1    
    22   21   22 1    
    23   22   23 1    
    24   22   31 1    
    25   23   24 2    
    26   24   25 1    
    27   25   26 ar   
    28   25   31 ar   
    29   26   27 1    
    30   26   28 ar   
    31   28   29 ar   
    32   29   30 ar   
    33   30   31 ar   
@<TRIPOS>SUBSTRUCTURE
     1 APC302      1 GROUP   
@<TRIPOS>SET

