#    Name: 6e0l_2_2KH_CAVITY_N1_4
#    Modification time : Fri May 22 19:27:52 2020

@<TRIPOS>MOLECULE
6e0l_2_2KH_CAVITY_N1_4
   67     0     6     0     0
SMALL
NO_CHARGES


@<TRIPOS>ATOM
      1 O          22.7700   33.9500   58.8900 O.2       1 ALA2        0.0000 
      2 N          20.2500   34.8400   63.8200 N.am      1 ALA2        0.0000 
      3 O          23.0800   35.6500   60.1000 O.2       1 ALA2        0.0000 
      4 N          21.7100   34.2800   62.3900 N.am      1 ALA2        0.0000 
      5 N          21.0200   33.5900   63.5300 N.am      1 ALA2        0.0000 
      6 O          20.3300   32.9000   64.6700 O.2       1 ALA2        0.0000 
      7 O          24.5400   35.0900   58.6700 O.2       1 ALA2        0.0000 
      8 O          23.8500   34.4000   59.8100 O.2       1 ALA2        0.0000 
      9 N          23.1700   33.7100   60.9600 N.am      1 ALA2        0.0000 
     10 N          22.4800   33.0200   62.1000 N.am      1 ALA2        0.0000 
     11 N          21.7900   32.3300   63.2400 N.am      1 ALA2        0.0000 
     12 N          22.0200   35.9800   63.6100 N.am      1 ALA2        0.0000 
     13 N          21.3300   35.2900   64.7500 N.am      1 ALA2        0.0000 
     14 O          20.6500   34.6100   65.8900 O.2       1 ALA2        0.0000 
     15 O          24.1600   36.1100   61.0300 O.2       1 ALA2        0.0000 
     16 O          23.4800   35.4200   62.1700 O.2       1 ALA2        0.0000 
     17 N          22.7900   34.7300   63.3200 N.am      1 ALA2        0.0000 
     18 OD1        21.5900   35.4300   57.1100 O.co2     2 ASP3        0.0000 
     19 OD1        17.6100   36.8800   63.4700 O.co2     2 ASP3        0.0000 
     20 OD1        19.3800   38.0300   63.2600 O.co2     2 ASP3        0.0000 
     21 OD1        18.7000   37.3400   64.4000 O.co2     2 ASP3        0.0000 
     22 NZ         22.6800   35.8900   58.0300 N.4       3 LYS4        0.0000 
     23 NZ         23.4500   34.6400   57.7400 N.4       3 LYS4        0.0000 
     24 NZ         22.9000   39.5400   58.4000 N.4       3 LYS4        0.0000 
     25 NZ         23.7600   36.3400   58.9600 N.4       3 LYS4        0.0000 
     26 CZ         18.4700   33.6900   64.0300 C.ar      4 PHE5        0.0000 
     27 CZ         19.9300   33.1300   62.6000 C.ar      4 PHE5        0.0000 
     28 CZ         19.2500   32.4400   63.7400 C.ar      4 PHE5        0.0000 
     29 CZ         22.3300   37.6900   64.8200 C.ar      4 PHE5        0.0000 
     30 CZ         23.7900   37.1300   63.3900 C.ar      4 PHE5        0.0000 
     31 CZ         23.1000   36.4400   64.5300 C.ar      4 PHE5        0.0000 
     32 CA         17.7000   34.9400   64.3200 C.3       5 GLY6        0.0000 
     33 CA         17.7900   33.0000   65.1800 C.3       5 GLY6        0.0000 
     34 CA         19.4700   36.0900   64.1100 C.3       5 GLY6        0.0000 
     35 CA         19.5600   34.1500   64.9600 C.3       5 GLY6        0.0000 
     36 CA         18.8700   33.4600   66.1000 C.3       5 GLY6        0.0000 
     37 CA         22.5300   40.5500   60.7600 C.3       5 GLY6        0.0000 
     38 CA         21.8400   39.8700   61.9000 C.3       5 GLY6        0.0000 
     39 CA         23.3000   39.3000   60.4700 C.3       5 GLY6        0.0000 
     40 CA         21.9300   37.9200   62.7500 C.3       5 GLY6        0.0000 
     41 CA         21.2400   37.2400   63.9000 C.3       5 GLY6        0.0000 
     42 CA         20.5600   36.5500   65.0400 C.3       5 GLY6        0.0000 
     43 CA         24.0700   38.0500   60.1800 C.3       5 GLY6        0.0000 
     44 CA         23.6100   41.0100   61.6900 C.3       5 GLY6        0.0000 
     45 CA         23.7000   39.0700   62.5400 C.3       5 GLY6        0.0000 
     46 CA         23.0100   38.3800   63.6800 C.3       5 GLY6        0.0000 
     47 CA         24.4700   37.8200   62.2500 C.3       5 GLY6        0.0000 
     48 CA         24.5600   35.8800   63.1000 C.3       5 GLY6        0.0000 
     49 DU         15.7500   37.6800   62.8300 H         6 CUB7        0.0000 
     50 DU         20.9100   34.7400   58.2500 H         6 CUB7        0.0000 
     51 DU         19.0700   36.3200   62.0400 H         6 CUB7        0.0000 
     52 DU         18.3800   35.6300   63.1800 H         6 CUB7        0.0000 
     53 DU         19.8500   35.0700   61.7500 H         6 CUB7        0.0000 
     54 DU         19.1600   34.3800   62.8900 H         6 CUB7        0.0000 
     55 DU         21.9900   35.2000   59.1800 H         6 CUB7        0.0000 
     56 DU         21.3100   34.5100   60.3200 H         6 CUB7        0.0000 
     57 DU         20.6200   33.8200   61.4600 H         6 CUB7        0.0000 
     58 DU         21.5300   38.1600   60.6800 H         6 CUB7        0.0000 
     59 DU         20.8400   37.4700   61.8300 H         6 CUB7        0.0000 
     60 DU         20.1600   36.7800   62.9700 H         6 CUB7        0.0000 
     61 DU         22.9900   37.5900   59.2500 H         6 CUB7        0.0000 
     62 DU         22.3000   36.9100   60.3900 H         6 CUB7        0.0000 
     63 DU         20.9300   35.5300   62.6800 H         6 CUB7        0.0000 
     64 DU         22.3900   34.9600   61.2500 H         6 CUB7        0.0000 
     65 DU         22.6100   38.6100   61.6100 H         6 CUB7        0.0000 
     66 DU         23.3900   37.3600   61.3200 H         6 CUB7        0.0000 
     67 DU         22.7000   36.6700   62.4600 H         6 CUB7        0.0000 
@<TRIPOS>BOND
@<TRIPOS>SUBSTRUCTURE
     1 ALA2        1 GROUP   
     2 ASP3       18 GROUP   
     3 LYS4       22 GROUP   
     4 PHE5       26 GROUP   
     5 GLY6       32 GROUP   
     6 CUB7       49 GROUP   
@<TRIPOS>SET

