#    Name: 6e0l_2_2KH_CAVITY_N1_8
#    Modification time : Fri May 22 19:27:52 2020

@<TRIPOS>MOLECULE
6e0l_2_2KH_CAVITY_N1_8
  103     0     6     0     0
SMALL
NO_CHARGES


@<TRIPOS>ATOM
      1 O          19.5100   32.5700   56.1000 O.2       1 ALA2        0.0000 
      2 N          15.8400   35.7400   63.6900 N.am      1 ALA2        0.0000 
      3 N          16.6100   34.4800   63.4000 N.am      1 ALA2        0.0000 
      4 O          22.7700   33.9500   58.8900 O.2       1 ALA2        0.0000 
      5 N          22.0800   33.2600   60.0300 N.am      1 ALA2        0.0000 
      6 N          23.5400   32.6900   58.6000 N.am      1 ALA2        0.0000 
      7 N          22.8600   32.0100   59.7400 N.am      1 ALA2        0.0000 
      8 N          22.1700   31.3200   60.8800 N.am      1 ALA2        0.0000 
      9 N          20.2500   34.8400   63.8200 N.am      1 ALA2        0.0000 
     10 O          23.0800   35.6500   60.1000 O.2       1 ALA2        0.0000 
     11 N          21.7100   34.2800   62.3900 N.am      1 ALA2        0.0000 
     12 N          21.0200   33.5900   63.5300 N.am      1 ALA2        0.0000 
     13 O          20.3300   32.9000   64.6700 O.2       1 ALA2        0.0000 
     14 O          24.5400   35.0900   58.6700 O.2       1 ALA2        0.0000 
     15 O          23.8500   34.4000   59.8100 O.2       1 ALA2        0.0000 
     16 N          23.1700   33.7100   60.9600 N.am      1 ALA2        0.0000 
     17 N          22.4800   33.0200   62.1000 N.am      1 ALA2        0.0000 
     18 N          21.7900   32.3300   63.2400 N.am      1 ALA2        0.0000 
     19 N          22.0200   35.9800   63.6100 N.am      1 ALA2        0.0000 
     20 N          21.3300   35.2900   64.7500 N.am      1 ALA2        0.0000 
     21 O          20.6500   34.6100   65.8900 O.2       1 ALA2        0.0000 
     22 O          24.1600   36.1100   61.0300 O.2       1 ALA2        0.0000 
     23 O          23.4800   35.4200   62.1700 O.2       1 ALA2        0.0000 
     24 N          22.7900   34.7300   63.3200 N.am      1 ALA2        0.0000 
     25 OD1        19.4200   34.5100   55.2500 O.co2     2 ASP3        0.0000 
     26 OD1        20.1900   33.2600   54.9600 O.co2     2 ASP3        0.0000 
     27 OD1        20.5100   34.9700   56.1800 O.co2     2 ASP3        0.0000 
     28 OD1        21.2800   33.7200   55.8900 O.co2     2 ASP3        0.0000 
     29 OD1        21.5900   35.4300   57.1100 O.co2     2 ASP3        0.0000 
     30 OD1        17.6100   36.8800   63.4700 O.co2     2 ASP3        0.0000 
     31 OD1        19.3800   38.0300   63.2600 O.co2     2 ASP3        0.0000 
     32 OD1        18.7000   37.3400   64.4000 O.co2     2 ASP3        0.0000 
     33 NZ         22.3700   34.1800   56.8200 N.4       3 LYS4        0.0000 
     34 NZ         22.6800   35.8900   58.0300 N.4       3 LYS4        0.0000 
     35 NZ         23.4500   34.6400   57.7400 N.4       3 LYS4        0.0000 
     36 NZ         22.9000   39.5400   58.4000 N.4       3 LYS4        0.0000 
     37 NZ         23.7600   36.3400   58.9600 N.4       3 LYS4        0.0000 
     38 CZ         14.6600   37.2200   61.9100 C.ar      4 PHE5        0.0000 
     39 CZ         15.4400   35.9700   61.6200 C.ar      4 PHE5        0.0000 
     40 CZ         16.2100   34.7200   61.3300 C.ar      4 PHE5        0.0000 
     41 CZ         17.3000   35.1700   62.2500 C.ar      4 PHE5        0.0000 
     42 CZ         18.0700   33.9200   61.9600 C.ar      4 PHE5        0.0000 
     43 CZ         17.3900   33.2300   63.1100 C.ar      4 PHE5        0.0000 
     44 CZ         19.5300   33.3600   60.5300 C.ar      4 PHE5        0.0000 
     45 CZ         20.9900   32.8000   59.1000 C.ar      4 PHE5        0.0000 
     46 CZ         21.7700   31.5500   58.8100 C.ar      4 PHE5        0.0000 
     47 CZ         21.0800   30.8600   59.9500 C.ar      4 PHE5        0.0000 
     48 CZ         18.4700   33.6900   64.0300 C.ar      4 PHE5        0.0000 
     49 CZ         19.9300   33.1300   62.6000 C.ar      4 PHE5        0.0000 
     50 CZ         19.2500   32.4400   63.7400 C.ar      4 PHE5        0.0000 
     51 CZ         21.3900   32.5700   61.1700 C.ar      4 PHE5        0.0000 
     52 CZ         20.7100   31.8800   62.3100 C.ar      4 PHE5        0.0000 
     53 CZ         22.3300   37.6900   64.8200 C.ar      4 PHE5        0.0000 
     54 CZ         23.7900   37.1300   63.3900 C.ar      4 PHE5        0.0000 
     55 CZ         23.1000   36.4400   64.5300 C.ar      4 PHE5        0.0000 
     56 CA         16.9000   35.4100   60.1800 C.3       5 GLY6        0.0000 
     57 CA         19.8200   34.2800   57.3200 C.3       5 GLY6        0.0000 
     58 CA         20.5900   33.0300   57.0300 C.3       5 GLY6        0.0000 
     59 CA         19.9100   32.3400   58.1700 C.3       5 GLY6        0.0000 
     60 CA         21.3700   31.7800   56.7400 C.3       5 GLY6        0.0000 
     61 CA         19.4500   35.3000   59.6800 C.3       5 GLY6        0.0000 
     62 CA         18.7600   34.6100   60.8200 C.3       5 GLY6        0.0000 
     63 CA         20.2200   34.0500   59.3900 C.3       5 GLY6        0.0000 
     64 CA         21.6800   33.4900   57.9600 C.3       5 GLY6        0.0000 
     65 CA         22.4600   32.2400   57.6700 C.3       5 GLY6        0.0000 
     66 CA         17.7000   34.9400   64.3200 C.3       5 GLY6        0.0000 
     67 CA         17.7900   33.0000   65.1800 C.3       5 GLY6        0.0000 
     68 CA         19.4700   36.0900   64.1100 C.3       5 GLY6        0.0000 
     69 CA         19.5600   34.1500   64.9600 C.3       5 GLY6        0.0000 
     70 CA         18.8700   33.4600   66.1000 C.3       5 GLY6        0.0000 
     71 CA         22.5300   40.5500   60.7600 C.3       5 GLY6        0.0000 
     72 CA         21.8400   39.8700   61.9000 C.3       5 GLY6        0.0000 
     73 CA         23.3000   39.3000   60.4700 C.3       5 GLY6        0.0000 
     74 CA         21.9300   37.9200   62.7500 C.3       5 GLY6        0.0000 
     75 CA         21.2400   37.2400   63.9000 C.3       5 GLY6        0.0000 
     76 CA         20.5600   36.5500   65.0400 C.3       5 GLY6        0.0000 
     77 CA         24.0700   38.0500   60.1800 C.3       5 GLY6        0.0000 
     78 CA         23.6100   41.0100   61.6900 C.3       5 GLY6        0.0000 
     79 CA         23.7000   39.0700   62.5400 C.3       5 GLY6        0.0000 
     80 CA         23.0100   38.3800   63.6800 C.3       5 GLY6        0.0000 
     81 CA         24.4700   37.8200   62.2500 C.3       5 GLY6        0.0000 
     82 CA         24.5600   35.8800   63.1000 C.3       5 GLY6        0.0000 
     83 DU         15.7500   37.6800   62.8300 H         6 CUB7        0.0000 
     84 DU         16.5200   36.4300   62.5400 H         6 CUB7        0.0000 
     85 DU         17.9800   35.8600   61.1100 H         6 CUB7        0.0000 
     86 DU         20.9100   34.7400   58.2500 H         6 CUB7        0.0000 
     87 DU         19.0700   36.3200   62.0400 H         6 CUB7        0.0000 
     88 DU         18.3800   35.6300   63.1800 H         6 CUB7        0.0000 
     89 DU         19.8500   35.0700   61.7500 H         6 CUB7        0.0000 
     90 DU         19.1600   34.3800   62.8900 H         6 CUB7        0.0000 
     91 DU         21.9900   35.2000   59.1800 H         6 CUB7        0.0000 
     92 DU         21.3100   34.5100   60.3200 H         6 CUB7        0.0000 
     93 DU         20.6200   33.8200   61.4600 H         6 CUB7        0.0000 
     94 DU         21.5300   38.1600   60.6800 H         6 CUB7        0.0000 
     95 DU         20.8400   37.4700   61.8300 H         6 CUB7        0.0000 
     96 DU         20.1600   36.7800   62.9700 H         6 CUB7        0.0000 
     97 DU         22.9900   37.5900   59.2500 H         6 CUB7        0.0000 
     98 DU         22.3000   36.9100   60.3900 H         6 CUB7        0.0000 
     99 DU         20.9300   35.5300   62.6800 H         6 CUB7        0.0000 
    100 DU         22.3900   34.9600   61.2500 H         6 CUB7        0.0000 
    101 DU         22.6100   38.6100   61.6100 H         6 CUB7        0.0000 
    102 DU         23.3900   37.3600   61.3200 H         6 CUB7        0.0000 
    103 DU         22.7000   36.6700   62.4600 H         6 CUB7        0.0000 
@<TRIPOS>BOND
@<TRIPOS>SUBSTRUCTURE
     1 ALA2        1 GROUP   
     2 ASP3       25 GROUP   
     3 LYS4       33 GROUP   
     4 PHE5       38 GROUP   
     5 GLY6       56 GROUP   
     6 CUB7       83 GROUP   
@<TRIPOS>SET

