#    Name: 6e0l_2_2KH
#    Modification time : Fri May 22 19:27:50 2020

@<TRIPOS>MOLECULE
6e0l_2_2KH
   29    30     1     0     0
SMALL
NO_CHARGES


@<TRIPOS>ATOM
      1 PA         19.4430   41.1470   60.8630 P.3       1 2KH303      0.0000 
      2 O1A        19.2100   41.7550   59.4850 O.co2     1 2KH303      0.0000 
      3 O2A        18.3520   40.1470   61.1710 O.co2     1 2KH303      0.0000 
      4 N3A        19.4540   42.3450   62.0710 N.3       1 2KH303      0.0000 
      5 O5'        20.9060   40.3720   60.9110 O.3       1 2KH303      0.0000 
      6 PB         19.7610   43.9710   61.6590 P.3       1 2KH303      0.0000 
      7 O1B        18.8870   44.8700   62.5120 O.co2     1 2KH303      0.0000 
      8 O2B        19.4790   44.2050   60.1810 O.co2     1 2KH303      0.0000 
      9 O3B        21.3540   44.2920   61.9970 O.3       1 2KH303      0.0000 
     10 PG         22.5490   44.6870   60.9140 P.3       1 2KH303      0.0000 
     11 O1G        22.7850   46.1900   60.9350 O.co2     1 2KH303      0.0000 
     12 O2G        22.1030   44.2580   59.5290 O.co2     1 2KH303      0.0000 
     13 O3G        23.8190   43.9540   61.3220 O.co2     1 2KH303      0.0000 
     14 C5'        22.0170   40.9380   60.2550 C.3       1 2KH303      0.0000 
     15 C4'        23.0860   39.8560   60.0760 C.3       1 2KH303      0.0000 
     16 O4'        23.4230   39.3960   61.2630 O.3       1 2KH303      0.0000 
     17 C1'        23.7010   37.8220   61.1160 C.3       1 2KH303      0.0000 
     18 C2'        23.3140   37.4570   59.8580 C.3       1 2KH303      0.0000 
     19 O2'        24.5010   37.2350   58.9740 O.3       1 2KH303      0.0000 
     20 C3'        22.4740   38.6150   59.3310 C.3       1 2KH303      0.0000 
     21 O3'        22.5990   38.7610   57.9940 O.3       1 2KH303      0.0000 
     22 N1         23.0100   37.1650   62.1770 N.am      1 2KH303      0.0000 
     23 C6         21.7320   37.6920   62.6330 C.2       1 2KH303      0.0000 
     24 C2         23.5760   35.9640   62.8600 C.2       1 2KH303      0.0000 
     25 O2         24.6160   35.5060   62.5200 O.2       1 2KH303      0.0000 
     26 N3         22.8320   35.3070   63.9790 N.am      1 2KH303      0.0000 
     27 C4         21.5510   35.8340   64.4350 C.2       1 2KH303      0.0000 
     28 O4         20.9600   35.3170   65.3260 O.2       1 2KH303      0.0000 
     29 C5         20.9850   37.0370   63.7560 C.2       1 2KH303      0.0000 
@<TRIPOS>BOND
     1    1    2 ar   
     2    1    3 ar   
     3    1    4 1    
     4    1    5 1    
     5    4    6 1    
     6    5   14 1    
     7    6    7 ar   
     8    6    8 ar   
     9    6    9 1    
    10    9   10 1    
    11   10   11 ar   
    12   10   12 ar   
    13   10   13 ar   
    14   14   15 1    
    15   15   16 1    
    16   15   20 1    
    17   16   17 1    
    18   17   18 1    
    19   17   22 1    
    20   18   19 1    
    21   18   20 1    
    22   20   21 1    
    23   22   23 1    
    24   22   24 1    
    25   23   29 2    
    26   24   25 2    
    27   24   26 1    
    28   26   27 1    
    29   27   28 2    
    30   27   29 1    
@<TRIPOS>SUBSTRUCTURE
     1 2KH303      1 GROUP   
@<TRIPOS>SET

