#    Name: 6f95_5_ADP_CAVITY_N1_ALL
#    Modification time : Fri May 22 19:24:27 2020

@<TRIPOS>MOLECULE
6f95_5_ADP_CAVITY_N1_ALL
   72     0     7     0     0
SMALL
NO_CHARGES


@<TRIPOS>ATOM
      1 OG        176.8700  195.7900  137.3000 O.3       1 SER1        0.0000 
      2 OG        177.8600  197.2800  138.4400 O.3       1 SER1        0.0000 
      3 OG        178.5900  198.5500  138.1100 O.3       1 SER1        0.0000 
      4 OG        178.8500  198.7700  139.5700 O.3       1 SER1        0.0000 
      5 OG        183.6100  201.0400  138.3900 O.3       1 SER1        0.0000 
      6 OG        184.4200  199.2200  140.0600 O.3       1 SER1        0.0000 
      7 OG        185.7000  198.4500  139.9500 O.3       1 SER1        0.0000 
      8 N         175.7300  202.3500  139.5800 N.am      2 ALA2        0.0000 
      9 N         179.1000  198.9900  141.0400 N.am      2 ALA2        0.0000 
     10 O         179.8400  200.2600  140.7100 O.2       2 ALA2        0.0000 
     11 O         180.5700  201.5300  140.3900 O.2       2 ALA2        0.0000 
     12 O         183.1400  199.9900  140.1700 O.2       2 ALA2        0.0000 
     13 O         186.9900  197.6800  139.8500 O.2       2 ALA2        0.0000 
     14 O         186.4400  199.7200  139.6300 O.2       2 ALA2        0.0000 
     15 O         182.1100  200.9800  141.7400 O.2       2 ALA2        0.0000 
     16 OD1       179.7600  203.3400  138.7200 O.co2     3 ASP3        0.0000 
     17 OD1       182.3300  201.8000  138.5000 O.co2     3 ASP3        0.0000 
     18 OD1       182.5900  202.0300  139.9600 O.co2     3 ASP3        0.0000 
     19 OD1       183.8700  201.2600  139.8500 O.co2     3 ASP3        0.0000 
     20 OD1       185.1500  200.4900  139.7400 O.co2     3 ASP3        0.0000 
     21 OD1       181.5600  203.0200  141.5300 O.co2     3 ASP3        0.0000 
     22 OD1       182.8400  202.2500  141.4200 O.co2     3 ASP3        0.0000 
     23 NZ        187.9800  199.1700  140.9800 N.4       4 LYS4        0.0000 
     24 CZ        176.0600  197.6000  135.6200 C.ar      5 PHE5        0.0000 
     25 CZ        177.3400  196.8300  135.5100 C.ar      5 PHE5        0.0000 
     26 CZ        177.0500  199.0900  136.7600 C.ar      5 PHE5        0.0000 
     27 CZ        178.3300  198.3300  136.6500 C.ar      5 PHE5        0.0000 
     28 CZ        176.5000  201.1300  136.5500 C.ar      5 PHE5        0.0000 
     29 CZ        177.9700  203.6700  135.9100 C.ar      5 PHE5        0.0000 
     30 CZ        177.4200  205.7100  135.6900 C.ar      5 PHE5        0.0000 
     31 CZ        176.7600  201.3500  138.0100 C.ar      5 PHE5        0.0000 
     32 CZ        178.0400  200.5800  137.9000 C.ar      5 PHE5        0.0000 
     33 CZ        179.3200  199.8200  137.7900 C.ar      5 PHE5        0.0000 
     34 CZ        176.2100  203.3900  137.8000 C.ar      5 PHE5        0.0000 
     35 CZ        177.4900  202.6200  137.6900 C.ar      5 PHE5        0.0000 
     36 CZ        178.7700  201.8500  137.5800 C.ar      5 PHE5        0.0000 
     37 CZ        176.9400  204.6600  137.4800 C.ar      5 PHE5        0.0000 
     38 CZ        178.2200  203.8900  137.3700 C.ar      5 PHE5        0.0000 
     39 CZ        179.5100  203.1200  137.2600 C.ar      5 PHE5        0.0000 
     40 CZ        178.9600  205.1600  137.0400 C.ar      5 PHE5        0.0000 
     41 CA        176.6100  195.5700  135.8400 C.3       6 GLY6        0.0000 
     42 CA        178.4400  204.7200  134.1200 C.3       6 GLY6        0.0000 
     43 CA        174.8500  195.2900  137.7300 C.3       6 GLY6        0.0000 
     44 CA        175.5800  196.5600  137.4100 C.3       6 GLY6        0.0000 
     45 CA        176.3200  197.8300  137.0800 C.3       6 GLY6        0.0000 
     46 CA        177.6000  197.0600  136.9700 C.3       6 GLY6        0.0000 
     47 CA        178.7000  204.9400  135.5800 C.3       6 GLY6        0.0000 
     48 CA        176.5700  198.0500  138.5400 C.3       6 GLY6        0.0000 
     49 CA        176.0200  200.0900  138.3300 C.3       6 GLY6        0.0000 
     50 CA        179.8700  197.7800  138.0000 C.3       6 GLY6        0.0000 
     51 CA        180.6100  199.0500  137.6800 C.3       6 GLY6        0.0000 
     52 CA        176.2800  200.3100  139.7900 C.3       6 GLY6        0.0000 
     53 CA        177.5600  199.5400  139.6800 C.3       6 GLY6        0.0000 
     54 CA        180.1300  198.0000  139.4700 C.3       6 GLY6        0.0000 
     55 CA        177.0100  201.5800  139.4700 C.3       6 GLY6        0.0000 
     56 CA        178.3000  200.8100  139.3600 C.3       6 GLY6        0.0000 
     57 CA        180.8600  199.2700  139.1400 C.3       6 GLY6        0.0000 
     58 CA        177.7500  202.8400  139.1500 C.3       6 GLY6        0.0000 
     59 CA        179.0300  202.0700  139.0400 C.3       6 GLY6        0.0000 
     60 CA        180.3100  201.3100  138.9300 C.3       6 GLY6        0.0000 
     61 CA        181.6000  200.5400  138.8200 C.3       6 GLY6        0.0000 
     62 CA        181.1200  199.4900  140.6000 C.3       6 GLY6        0.0000 
     63 CA        179.2900  202.3000  140.5000 C.3       6 GLY6        0.0000 
     64 CA        185.2300  197.4000  141.7400 C.3       6 GLY6        0.0000 
     65 CA        183.3900  200.2100  141.6300 C.3       6 GLY6        0.0000 
     66 CA        184.6800  199.4400  141.5200 C.3       6 GLY6        0.0000 
     67 CA        185.9600  198.6700  141.4200 C.3       6 GLY6        0.0000 
     68 CA        187.2400  197.9000  141.3100 C.3       6 GLY6        0.0000 
     69 DU        177.3100  199.3200  138.2200 H         7 CUB7        0.0000 
     70 DU        175.4700  202.1200  138.1200 H         7 CUB7        0.0000 
     71 DU        179.5800  200.0400  139.2500 H         7 CUB7        0.0000 
     72 DU        181.8500  200.7600  140.2800 H         7 CUB7        0.0000 
@<TRIPOS>BOND
@<TRIPOS>SUBSTRUCTURE
     1 SER1        1 GROUP   
     2 ALA2        8 GROUP   
     3 ASP3       16 GROUP   
     4 LYS4       23 GROUP   
     5 PHE5       24 GROUP   
     6 GLY6       41 GROUP   
     7 CUB7       69 GROUP   
@<TRIPOS>SET

