#    Name: 6f95_4_ADP
#    Modification time : Fri May 22 19:24:21 2020

@<TRIPOS>MOLECULE
6f95_4_ADP
   27    29     1     0     1
SMALL
NO_CHARGES


@<TRIPOS>ATOM
      1 PB        201.1030  189.6520  238.8540 P.3       1 ADP302      0.0000 
      2 O1B       200.3350  189.1020  237.6900 O.co2     1 ADP302      0.0000 
      3 O2B       200.6380  189.1700  240.2020 O.co2     1 ADP302      0.0000 
      4 O3B       202.5930  189.6200  238.6990 O.co2     1 ADP302      0.0000 
      5 PA        201.7820  192.2730  239.4220 P.3       1 ADP302      0.0000 
      6 O1A       202.8760  192.4730  238.4160 O.co2     1 ADP302      0.0000 
      7 O2A       202.1110  191.8800  240.8320 O.co2     1 ADP302      0.0000 
      8 O3A       200.7520  191.2110  238.8190 O.3       1 ADP302      0.0000 
      9 O5'       200.8830  193.5920  239.4450 O.3       1 ADP302      0.0000 
     10 C5'       200.5530  194.2130  238.2130 C.3       1 ADP302      0.0000 
     11 C4'       200.8180  195.6980  238.3270 C.3       1 ADP302      0.0000 
     12 O4'       202.2150  195.8860  238.5020 O.3       1 ADP302      0.0000 
     13 C3'       200.4320  196.4420  237.0700 C.3       1 ADP302      0.0000 
     14 O3'       199.2490  197.2020  237.3040 O.3       1 ADP302      0.0000 
     15 C2'       201.5820  197.3750  236.7870 C.3       1 ADP302      0.0000 
     16 O2'       201.2030  198.6960  237.1580 O.3       1 ADP302      0.0000 
     17 C1'       202.7160  196.9280  237.6770 C.3       1 ADP302      0.0000 
     18 N9        203.7510  196.3180  236.8310 N.pl3     1 ADP302      0.0000 
     19 C8        204.0230  195.0070  236.7960 C.2       1 ADP302      0.0000 
     20 N7        205.0220  194.7390  235.9260 N.2       1 ADP302      0.0000 
     21 C5        205.4080  195.9070  235.3930 C.ar      1 ADP302      0.0000 
     22 C6        206.4180  196.3360  234.4070 C.ar      1 ADP302      0.0000 
     23 N6        207.2300  195.4350  233.8120 N.pl3     1 ADP302      0.0000 
     24 N1        206.4990  197.6510  234.1250 N.ar      1 ADP302      0.0000 
     25 C2        205.6940  198.5500  234.7150 C.ar      1 ADP302      0.0000 
     26 N3        204.7540  198.2290  235.6190 N.ar      1 ADP302      0.0000 
     27 C4        204.5680  196.9460  235.9940 C.ar      1 ADP302      0.0000 
@<TRIPOS>BOND
     1    1    2 ar   
     2    1    3 ar   
     3    1    4 ar   
     4    1    8 1    
     5    5    6 ar   
     6    5    7 ar   
     7    5    8 1    
     8    5    9 1    
     9    9   10 1    
    10   10   11 1    
    11   11   12 1    
    12   11   13 1    
    13   12   17 1    
    14   13   14 1    
    15   13   15 1    
    16   15   16 1    
    17   15   17 1    
    18   17   18 1    
    19   18   19 1    
    20   18   27 1    
    21   19   20 2    
    22   20   21 1    
    23   21   22 ar   
    24   21   27 ar   
    25   22   23 1    
    26   22   24 ar   
    27   24   25 ar   
    28   25   26 ar   
    29   26   27 ar   
@<TRIPOS>SUBSTRUCTURE
     1 ADP302      1 GROUP   
@<TRIPOS>SET
ATOM$ORANGE STATIC     ATOMS   COLORGROUP SYSTEM 
20 10 10 11 11 13 13 15 15 17 17 19 19 21 21 22 22 25 \
25 27 27 

