#    Name: 6f95_5_ADP
#    Modification time : Fri May 22 19:24:26 2020

@<TRIPOS>MOLECULE
6f95_5_ADP
   27    29     1     0     1
SMALL
NO_CHARGES


@<TRIPOS>ATOM
      1 PB        183.8380  201.2120  139.6010 P.3       1 ADP302      0.0000 
      2 O1B       184.4650  200.5320  138.4210 O.co2     1 ADP302      0.0000 
      3 O2B       184.3590  200.7650  140.9390 O.co2     1 ADP302      0.0000 
      4 O3B       183.7210  202.7030  139.4820 O.co2     1 ADP302      0.0000 
      5 PA        181.1600  201.6130  140.1680 P.3       1 ADP302      0.0000 
      6 O1A       180.8540  202.7060  139.1890 O.co2     1 ADP302      0.0000 
      7 O2A       181.5130  201.9440  141.5890 O.co2     1 ADP302      0.0000 
      8 O3A       182.3210  200.7080  139.5470 O.3       1 ADP302      0.0000 
      9 O5'       179.9370  200.5870  140.1620 O.3       1 ADP302      0.0000 
     10 C5'       179.3570  200.2260  138.9190 C.3       1 ADP302      0.0000 
     11 C4'       177.8510  200.3390  139.0310 C.3       1 ADP302      0.0000 
     12 O4'       177.5240  201.7060  139.2380 O.3       1 ADP302      0.0000 
     13 C3'       177.1540  199.9120  137.7600 C.3       1 ADP302      0.0000 
     14 O3'       176.5150  198.6540  137.9600 O.3       1 ADP302      0.0000 
     15 C2'       176.1120  200.9700  137.5000 C.3       1 ADP302      0.0000 
     16 O2'       174.8330  200.4530  137.8540 O.3       1 ADP302      0.0000 
     17 C1'       176.4400  202.1200  138.4200 C.3       1 ADP302      0.0000 
     18 N9        176.9470  203.2320  137.6030 N.pl3     1 ADP302      0.0000 
     19 C8        178.2240  203.6340  137.5820 C.2       1 ADP302      0.0000 
     20 N7        178.3940  204.6760  136.7390 N.2       1 ADP302      0.0000 
     21 C5        177.1960  204.9570  136.2070 C.ar      1 ADP302      0.0000 
     22 C6        176.6700  205.9430  135.2450 C.ar      1 ADP302      0.0000 
     23 N6        177.4890  206.8560  134.6740 N.pl3     1 ADP302      0.0000 
     24 N1        175.3550  205.9000  134.9560 N.ar      1 ADP302      0.0000 
     25 C2        174.5400  204.9940  135.5210 C.ar      1 ADP302      0.0000 
     26 N3        174.9500  204.0700  136.4040 N.ar      1 ADP302      0.0000 
     27 C4        176.2430  204.0020  136.7810 C.ar      1 ADP302      0.0000 
@<TRIPOS>BOND
     1    1    2 ar   
     2    1    3 ar   
     3    1    4 ar   
     4    1    8 1    
     5    5    6 ar   
     6    5    7 ar   
     7    5    8 1    
     8    5    9 1    
     9    9   10 1    
    10   10   11 1    
    11   11   12 1    
    12   11   13 1    
    13   12   17 1    
    14   13   14 1    
    15   13   15 1    
    16   15   16 1    
    17   15   17 1    
    18   17   18 1    
    19   18   19 1    
    20   18   27 1    
    21   19   20 2    
    22   20   21 1    
    23   21   22 ar   
    24   21   27 ar   
    25   22   23 1    
    26   22   24 ar   
    27   24   25 ar   
    28   25   26 ar   
    29   26   27 ar   
@<TRIPOS>SUBSTRUCTURE
     1 ADP302      1 GROUP   
@<TRIPOS>SET
ATOM$ORANGE STATIC     ATOMS   COLORGROUP SYSTEM 
20 10 10 11 11 13 13 15 15 17 17 19 19 21 21 22 22 25 \
25 27 27 

