#    Name: 6o57_1_2NC
#    Modification time : Fri May 22 19:33:25 2020

@<TRIPOS>MOLECULE
6o57_1_2NC
   54    53     1     0     0
SMALL
NO_CHARGES


@<TRIPOS>ATOM
      1 C          73.0480   21.5370   10.6180 C.2       1 2NC201      0.0000 
      2 O          71.8330   21.6880   10.8190 O.2       1 2NC201      0.0000 
      3 CH3        74.1160   22.0660   11.5010 C.3       1 2NC201      0.0000 
      4 N          73.6610   20.7930    9.6550 N.am      1 2NC201      0.0000 
      5 CA         72.8950   20.2170    8.6570 C.3       1 2NC201      0.0000 
      6 C1         72.5480   18.7550    9.0570 C.2       1 2NC201      0.0000 
      7 O1         73.3460   17.7740    9.2460 O.2       1 2NC201      0.0000 
      8 CB         73.5760   20.3340    7.2270 C.3       1 2NC201      0.0000 
      9 OG1        73.7650   21.6840    6.7680 O.3       1 2NC201      0.0000 
     10 CG2        72.5880   19.7460    6.2870 C.3       1 2NC201      0.0000 
     11 N1         71.3880   18.4430    9.1690 N.am      1 2NC201      0.0000 
     12 CA1        70.9310   17.1120    9.4180 C.3       1 2NC201      0.0000 
     13 C2         70.0060   16.4170    8.4720 C.2       1 2NC201      0.0000 
     14 O2         68.7500   16.5670    8.2620 O.2       1 2NC201      0.0000 
     15 CB1        70.2900   17.1350   10.8040 C.3       1 2NC201      0.0000 
     16 CG1        70.8150   18.0760   11.9240 C.3       1 2NC201      0.0000 
     17 CG21       69.9270   15.8010   11.2710 C.3       1 2NC201      0.0000 
     18 CD1        72.3100   17.8330   12.3250 C.3       1 2NC201      0.0000 
     19 N2         70.5300   15.6640    7.8240 N.am      1 2NC201      0.0000 
     20 CA2        69.7410   15.0710    6.7640 C.3       1 2NC201      0.0000 
     21 C3         69.0840   13.7030    6.8880 C.3       1 2NC201      0.0000 
     22 CB2        70.3120   15.1740    5.3890 C.3       1 2NC201      0.0000 
     23 CG         71.1180   16.4150    5.1410 C.3       1 2NC201      0.0000 
     24 CD         70.6010   17.5050    4.3640 C.3       1 2NC201      0.0000 
     25 CE         69.3260   17.2300    3.5950 C.3       1 2NC201      0.0000 
     26 N3         68.5800   13.3430    8.1990 N.4       1 2NC201      0.0000 
     27 CA3        67.4830   12.3650    8.2920 C.3       1 2NC201      0.0000 
     28 C4         66.4740   12.5060    7.2440 C.2       1 2NC201      0.0000 
     29 O3         65.7940   13.5350    6.8250 O.2       1 2NC201      0.0000 
     30 CB3        66.9190   12.4490    9.6460 C.3       1 2NC201      0.0000 
     31 CG3        66.1330   11.2120    9.9980 C.3       1 2NC201      0.0000 
     32 CD2        64.8360   11.7210   10.4460 C.3       1 2NC201      0.0000 
     33 CE1        65.0290   12.6340   11.6450 C.3       1 2NC201      0.0000 
     34 N4         66.0980   11.4900    6.7140 N.am      1 2NC201      0.0000 
     35 CA4        64.9770   11.4830    5.7510 C.3       1 2NC201      0.0000 
     36 C5         64.0340   10.2650    5.9250 C.2       1 2NC201      0.0000 
     37 O4         64.4660    8.9630    5.9580 O.2       1 2NC201      0.0000 
     38 CB4        65.4030   11.8610    4.3060 C.3       1 2NC201      0.0000 
     39 CG4        64.3220   11.7950    3.2580 C.3       1 2NC201      0.0000 
     40 CD3        64.1080   10.4540    2.7160 C.2       1 2NC201      0.0000 
     41 OE1        64.8210    9.5740    2.8770 O.2       1 2NC201      0.0000 
     42 NE2        62.9630   10.2810    2.0580 N.am      1 2NC201      0.0000 
     43 N5         62.7980   10.3410    5.7770 N.am      1 2NC201      0.0000 
     44 CA5        61.8640    9.1010    5.6970 C.3       1 2NC201      0.0000 
     45 C6         60.8790    9.2620    4.6220 C.2       1 2NC201      0.0000 
     46 O5         60.5870   10.4200    4.3160 O.2       1 2NC201      0.0000 
     47 CB5        61.2110    9.2070    7.0250 C.3       1 2NC201      0.0000 
     48 CG5        62.0300    8.7270    8.1690 C.3       1 2NC201      0.0000 
     49 CD4        60.9080    8.6360    9.1210 C.3       1 2NC201      0.0000 
     50 NE         61.6080    8.2730   10.4070 N.pl3     1 2NC201      0.0000 
     51 CZ         61.1020    8.2810   11.6370 C.cat     1 2NC201      0.0000 
     52 NH1        59.8700    8.6800   11.9120 N.pl3     1 2NC201      0.0000 
     53 NH2        61.8890    7.8810   12.6450 N.pl3     1 2NC201      0.0000 
     54 N6         60.3180    8.2860    3.8290 N.am      1 2NC201      0.0000 
@<TRIPOS>BOND
     1   49   50 1    
     2   50   51 ar   
     3   51   52 ar   
     4   51   53 ar   
     5    1    2 2    
     6    1    3 1    
     7    1    4 am   
     8    4    5 1    
     9    5    6 1    
    10    5    8 1    
    11    6    7 2    
    12    6   11 am   
    13    8    9 1    
    14    8   10 1    
    15   11   12 1    
    16   12   13 1    
    17   12   15 1    
    18   13   14 2    
    19   13   19 am   
    20   15   16 1    
    21   15   17 1    
    22   16   18 1    
    23   19   20 1    
    24   20   21 1    
    25   20   22 1    
    26   21   26 1    
    27   22   23 1    
    28   23   24 1    
    29   24   25 1    
    30   26   27 1    
    31   27   28 1    
    32   27   30 1    
    33   28   29 2    
    34   28   34 am   
    35   30   31 1    
    36   31   32 1    
    37   32   33 1    
    38   34   35 1    
    39   35   38 1    
    40   35   36 1    
    41   36   43 am   
    42   36   37 2    
    43   38   39 1    
    44   39   40 1    
    45   40   41 2    
    46   40   42 am   
    47   43   44 1    
    48   44   45 1    
    49   44   47 1    
    50   45   46 2    
    51   45   54 am   
    52   47   48 1    
    53   48   49 1    
@<TRIPOS>SUBSTRUCTURE
     1 2NC201      1 GROUP   
@<TRIPOS>SET

