#    Name: 6c9n_1_SGV_CAVITY_N1_12
#    Modification time : Fri May 22 19:27:10 2020

@<TRIPOS>MOLECULE
6c9n_1_SGV_CAVITY_N1_12
   73     0     6     0     0
SMALL
NO_CHARGES


@<TRIPOS>ATOM
      1 OG          3.2400   10.8300   11.3600 O.3       1 SER1        0.0000 
      2 OG          3.8200   11.4100   12.6200 O.3       1 SER1        0.0000 
      3 OG          5.1100   10.7100   12.3500 O.3       1 SER1        0.0000 
      4 OG          5.6000   11.9000   11.5800 O.3       1 SER1        0.0000 
      5 OG          4.8800   13.1800   13.1100 O.3       1 SER1        0.0000 
      6 OG          6.1800   12.4800   12.8400 O.3       1 SER1        0.0000 
      7 O           4.8600    7.0400   12.3500 O.2       2 ALA2        0.0000 
      8 O           2.7500    9.6400   12.1300 O.2       2 ALA2        0.0000 
      9 O           4.9600    6.4200   14.3800 O.2       2 ALA2        0.0000 
     10 O           4.1500    8.3200   13.8800 O.2       2 ALA2        0.0000 
     11 O           5.4400    7.6200   13.6100 O.2       2 ALA2        0.0000 
     12 O           3.3300   10.2200   13.3900 O.2       2 ALA2        0.0000 
     13 O           2.5200   12.1100   12.9000 O.2       2 ALA2        0.0000 
     14 N           6.4100   10.0100   12.0700 N.am      2 ALA2        0.0000 
     15 N           6.8900   11.2000   11.3000 N.am      2 ALA2        0.0000 
     16 O           2.9400    8.4000   16.1900 O.2       2 ALA2        0.0000 
     17 O           5.5400    7.0000   15.6400 O.2       2 ALA2        0.0000 
     18 O           3.4300    9.6000   15.4200 O.2       2 ALA2        0.0000 
     19 O           4.7300    8.9000   15.1400 O.2       2 ALA2        0.0000 
     20 O           3.9100   10.7900   14.6500 O.2       2 ALA2        0.0000 
     21 O           3.1000   12.6900   14.1600 O.2       2 ALA2        0.0000 
     22 N           6.9900   10.5800   13.3300 N.am      2 ALA2        0.0000 
     23 N           8.2900    9.8800   13.0600 N.am      2 ALA2        0.0000 
     24 N           7.4700   11.7700   12.5600 N.am      2 ALA2        0.0000 
     25 N           6.6600   13.6700   12.0700 N.am      2 ALA2        0.0000 
     26 N           7.9600   12.9700   11.7900 N.am      2 ALA2        0.0000 
     27 O           4.0100   10.1700   16.6800 O.2       2 ALA2        0.0000 
     28 O           6.6000    8.7700   16.1300 O.2       2 ALA2        0.0000 
     29 O           3.1900   12.0700   16.1800 O.2       2 ALA2        0.0000 
     30 N           7.0800    9.9600   15.3600 N.am      2 ALA2        0.0000 
     31 N           5.9400   14.9500   13.6000 N.am      2 ALA2        0.0000 
     32 N           7.2400   14.2500   13.3300 N.am      2 ALA2        0.0000 
     33 N           6.4300   16.1400   12.8300 N.am      2 ALA2        0.0000 
     34 N           7.8200   14.8200   14.5900 N.am      2 ALA2        0.0000 
     35 OD1         3.7600    6.5100   16.6800 O.co2     3 ASP3        0.0000 
     36 NZ          3.5700    7.7400   12.6300 N.4       4 LYS4        0.0000 
     37 NZ          3.6600    7.1300   14.6500 N.4       4 LYS4        0.0000 
     38 CA          5.3600   14.3700   12.3400 C.3       5 GLY6        0.0000 
     39 CA          4.8200    8.2800   17.1700 C.3       5 GLY6        0.0000 
     40 CA          7.5700   11.1600   14.5900 C.3       5 GLY6        0.0000 
     41 CA          8.0500   12.3500   13.8200 C.3       5 GLY6        0.0000 
     42 CA          8.5300   13.5400   13.0500 C.3       5 GLY6        0.0000 
     43 CA          7.1800    9.3400   17.3800 C.3       5 GLY6        0.0000 
     44 CA          3.7700   12.6400   17.4400 C.3       5 GLY6        0.0000 
     45 CA          6.8500   12.4300   16.1200 C.3       5 GLY6        0.0000 
     46 CA          7.3300   13.6300   15.3500 C.3       5 GLY6        0.0000 
     47 CA          6.1300   13.7100   17.6600 C.3       5 GLY6        0.0000 
     48 CA          7.4300   13.0100   17.3800 C.3       5 GLY6        0.0000 
     49 CA          7.9100   14.2000   16.6100 C.3       5 GLY6        0.0000 
     50 CA          8.4000   15.4000   15.8400 C.3       5 GLY6        0.0000 
     51 DU          4.0500    8.9400   11.8600 H         6 CUB7        0.0000 
     52 DU          4.6300    9.5100   13.1200 H         6 CUB7        0.0000 
     53 DU          5.9300    8.8100   12.8400 H         6 CUB7        0.0000 
     54 DU          4.2400    7.7000   15.9100 H         6 CUB7        0.0000 
     55 DU          6.0200    8.1900   14.8700 H         6 CUB7        0.0000 
     56 DU          5.2100   10.0900   14.3700 H         6 CUB7        0.0000 
     57 DU          6.5100    9.3900   14.1000 H         6 CUB7        0.0000 
     58 DU          4.4000   11.9900   13.8800 H         6 CUB7        0.0000 
     59 DU          5.6900   11.2800   13.6100 H         6 CUB7        0.0000 
     60 DU          3.5800   13.8800   13.3900 H         6 CUB7        0.0000 
     61 DU          5.3000    9.4700   16.4000 H         6 CUB7        0.0000 
     62 DU          4.4900   11.3700   15.9100 H         6 CUB7        0.0000 
     63 DU          5.7900   10.6600   15.6300 H         6 CUB7        0.0000 
     64 DU          3.6800   13.2600   15.4100 H         6 CUB7        0.0000 
     65 DU          4.9700   12.5600   15.1400 H         6 CUB7        0.0000 
     66 DU          6.2700   11.8600   14.8600 H         6 CUB7        0.0000 
     67 DU          6.7500   13.0500   14.1000 H         6 CUB7        0.0000 
     68 DU          5.0700   11.9400   17.1700 H         6 CUB7        0.0000 
     69 DU          6.3700   11.2400   16.8900 H         6 CUB7        0.0000 
     70 DU          4.2600   13.8400   16.6700 H         6 CUB7        0.0000 
     71 DU          5.5500   13.1400   16.4000 H         6 CUB7        0.0000 
     72 DU          6.0400   14.3300   15.6300 H         6 CUB7        0.0000 
     73 DU          6.6200   14.9100   16.8900 H         6 CUB7        0.0000 
@<TRIPOS>BOND
@<TRIPOS>SUBSTRUCTURE
     1 SER1        1 GROUP   
     2 ALA2        7 GROUP   
     3 ASP3       35 GROUP   
     4 LYS4       36 GROUP   
     5 GLY6       38 GROUP   
     6 CUB7       51 GROUP   
@<TRIPOS>SET

