#    Name: 6c9n_3_SGV_CAVITY_N1_4
#    Modification time : Fri May 22 19:27:19 2020

@<TRIPOS>MOLECULE
6c9n_3_SGV_CAVITY_N1_4
   59     0     5     0     0
SMALL
NO_CHARGES


@<TRIPOS>ATOM
      1 OG         22.6700   16.2500   -8.9900 O.3       1 SER1        0.0000 
      2 OG         16.6700   20.9500   -8.3800 O.3       1 SER1        0.0000 
      3 OG         18.8800   17.7300   -6.1400 O.3       1 SER1        0.0000 
      4 OG         23.7400   18.0200   -8.5000 O.3       1 SER1        0.0000 
      5 O          22.3300   13.2000  -11.0100 O.2       2 ALA2        0.0000 
      6 O          21.5200   15.1000  -11.5100 O.2       2 ALA2        0.0000 
      7 O          22.9100   13.7700   -9.7500 O.2       2 ALA2        0.0000 
      8 O          20.8000   16.3700   -9.9700 O.2       2 ALA2        0.0000 
      9 O          23.3900   14.9700  -10.5200 O.2       2 ALA2        0.0000 
     10 O          21.3800   16.9500   -8.7100 O.2       2 ALA2        0.0000 
     11 O          21.8600   18.1400   -9.4800 O.2       2 ALA2        0.0000 
     12 N          17.8300   22.1000   -5.8600 N.am      2 ALA2        0.0000 
     13 N          19.7100   21.9800   -4.8800 N.am      2 ALA2        0.0000 
     14 N          21.0000   21.2700   -5.1600 N.am      2 ALA2        0.0000 
     15 N          22.3000   20.5700   -5.4300 N.am      2 ALA2        0.0000 
     16 N          23.6000   19.8700   -5.7100 N.am      2 ALA2        0.0000 
     17 N          20.2900   22.5500   -3.6200 N.am      2 ALA2        0.0000 
     18 NZ         21.0300   13.9000  -10.7400 N.4       3 LYS4        0.0000 
     19 CZ         19.7400   14.6000  -10.4600 C.ar      4 PHE5        0.0000 
     20 CZ         21.1300   13.2800   -8.7100 C.ar      4 PHE5        0.0000 
     21 CZ         20.3100   15.1800   -9.2000 C.ar      4 PHE5        0.0000 
     22 CZ         21.6100   14.4800   -9.4800 C.ar      4 PHE5        0.0000 
     23 CZ         19.6000   16.4600   -7.6700 C.ar      4 PHE5        0.0000 
     24 CZ         20.8900   15.7500   -7.9500 C.ar      4 PHE5        0.0000 
     25 CZ         22.1900   15.0500   -8.2200 C.ar      4 PHE5        0.0000 
     26 CZ         23.4900   14.3500   -8.5000 C.ar      4 PHE5        0.0000 
     27 CZ         20.1800   17.0300   -6.4100 C.ar      4 PHE5        0.0000 
     28 CZ         21.9600   17.5200   -7.4600 C.ar      4 PHE5        0.0000 
     29 CZ         23.2500   16.8200   -7.7300 C.ar      4 PHE5        0.0000 
     30 CZ         21.2400   18.8000   -5.9200 C.ar      4 PHE5        0.0000 
     31 CZ         22.5300   18.1000   -6.2000 C.ar      4 PHE5        0.0000 
     32 CZ         24.3100   18.5900   -7.2400 C.ar      4 PHE5        0.0000 
     33 CZ         24.8900   19.1700   -5.9800 C.ar      4 PHE5        0.0000 
     34 CA         20.4500   13.3300  -12.0000 C.3       5 GLY6        0.0000 
     35 CA         22.0900   15.6700  -10.2500 C.3       5 GLY6        0.0000 
     36 CA         20.0800   17.6500   -8.4400 C.3       5 GLY6        0.0000 
     37 CA         23.1600   17.4400   -9.7600 C.3       5 GLY6        0.0000 
     38 CA         19.3600   18.9300   -6.9000 C.3       5 GLY6        0.0000 
     39 CA         20.6600   18.2300   -7.1800 C.3       5 GLY6        0.0000 
     40 CA         17.2500   21.5300   -7.1200 C.3       5 GLY6        0.0000 
     41 CA         18.5500   20.8200   -7.4000 C.3       5 GLY6        0.0000 
     42 CA         22.4400   18.7200   -8.2200 C.3       5 GLY6        0.0000 
     43 CA         22.9200   19.9100   -8.9900 C.3       5 GLY6        0.0000 
     44 CA         19.4600   18.3100   -4.8800 C.3       5 GLY6        0.0000 
     45 CA         18.6400   20.2100   -5.3700 C.3       5 GLY6        0.0000 
     46 CA         19.9400   19.5000   -5.6500 C.3       5 GLY6        0.0000 
     47 CA         20.4200   20.7000   -6.4100 C.3       5 GLY6        0.0000 
     48 CA         21.7200   20.0000   -6.6900 C.3       5 GLY6        0.0000 
     49 CA         23.0200   19.2900   -6.9700 C.3       5 GLY6        0.0000 
     50 CA         23.5000   20.4900   -7.7300 C.3       5 GLY6        0.0000 
     51 CA         24.8000   19.7800   -8.0100 C.3       5 GLY6        0.0000 
     52 CA         18.7400   19.5900   -3.3400 C.3       5 GLY6        0.0000 
     53 CA         20.0400   18.8900   -3.6200 C.3       5 GLY6        0.0000 
     54 CA         17.9300   21.4800   -3.8400 C.3       5 GLY6        0.0000 
     55 CA         19.2200   20.7800   -4.1100 C.3       5 GLY6        0.0000 
     56 CA         20.5200   20.0800   -4.3900 C.3       5 GLY6        0.0000 
     57 CA         21.8200   19.3800   -4.6600 C.3       5 GLY6        0.0000 
     58 CA         19.8000   21.3600   -2.8500 C.3       5 GLY6        0.0000 
     59 CA         21.1000   20.6500   -3.1300 C.3       5 GLY6        0.0000 
@<TRIPOS>BOND
@<TRIPOS>SUBSTRUCTURE
     1 SER1        1 GROUP   
     2 ALA2        5 GROUP   
     3 LYS4       18 GROUP   
     4 PHE5       19 GROUP   
     5 GLY6       34 GROUP   
@<TRIPOS>SET

