#    Name: 6c9n_1_SGV_CAVITY_N1_8
#    Modification time : Fri May 22 19:27:10 2020

@<TRIPOS>MOLECULE
6c9n_1_SGV_CAVITY_N1_8
   33     0     6     0     0
SMALL
NO_CHARGES


@<TRIPOS>ATOM
      1 OG          3.2400   10.8300   11.3600 O.3       1 SER1        0.0000 
      2 OG          5.1100   10.7100   12.3500 O.3       1 SER1        0.0000 
      3 OG          5.6000   11.9000   11.5800 O.3       1 SER1        0.0000 
      4 O           4.8600    7.0400   12.3500 O.2       2 ALA2        0.0000 
      5 O           2.7500    9.6400   12.1300 O.2       2 ALA2        0.0000 
      6 O           4.9600    6.4200   14.3800 O.2       2 ALA2        0.0000 
      7 O           4.1500    8.3200   13.8800 O.2       2 ALA2        0.0000 
      8 O           5.4400    7.6200   13.6100 O.2       2 ALA2        0.0000 
      9 N           6.4100   10.0100   12.0700 N.am      2 ALA2        0.0000 
     10 N           6.8900   11.2000   11.3000 N.am      2 ALA2        0.0000 
     11 O           2.9400    8.4000   16.1900 O.2       2 ALA2        0.0000 
     12 O           5.5400    7.0000   15.6400 O.2       2 ALA2        0.0000 
     13 O           3.4300    9.6000   15.4200 O.2       2 ALA2        0.0000 
     14 O           4.7300    8.9000   15.1400 O.2       2 ALA2        0.0000 
     15 N           6.9900   10.5800   13.3300 N.am      2 ALA2        0.0000 
     16 N           8.2900    9.8800   13.0600 N.am      2 ALA2        0.0000 
     17 O           6.6000    8.7700   16.1300 O.2       2 ALA2        0.0000 
     18 N           7.0800    9.9600   15.3600 N.am      2 ALA2        0.0000 
     19 OD1         3.7600    6.5100   16.6800 O.co2     3 ASP3        0.0000 
     20 NZ          3.5700    7.7400   12.6300 N.4       4 LYS4        0.0000 
     21 NZ          3.6600    7.1300   14.6500 N.4       4 LYS4        0.0000 
     22 CA          4.8200    8.2800   17.1700 C.3       5 GLY6        0.0000 
     23 CA          7.5700   11.1600   14.5900 C.3       5 GLY6        0.0000 
     24 CA          7.1800    9.3400   17.3800 C.3       5 GLY6        0.0000 
     25 DU          4.0500    8.9400   11.8600 H         6 CUB7        0.0000 
     26 DU          4.6300    9.5100   13.1200 H         6 CUB7        0.0000 
     27 DU          5.9300    8.8100   12.8400 H         6 CUB7        0.0000 
     28 DU          4.2400    7.7000   15.9100 H         6 CUB7        0.0000 
     29 DU          6.0200    8.1900   14.8700 H         6 CUB7        0.0000 
     30 DU          5.2100   10.0900   14.3700 H         6 CUB7        0.0000 
     31 DU          6.5100    9.3900   14.1000 H         6 CUB7        0.0000 
     32 DU          5.3000    9.4700   16.4000 H         6 CUB7        0.0000 
     33 DU          5.7900   10.6600   15.6300 H         6 CUB7        0.0000 
@<TRIPOS>BOND
@<TRIPOS>SUBSTRUCTURE
     1 SER1        1 GROUP   
     2 ALA2        4 GROUP   
     3 ASP3       19 GROUP   
     4 LYS4       20 GROUP   
     5 GLY6       22 GROUP   
     6 CUB7       25 GROUP   
@<TRIPOS>SET

