#    Name: 6c9n_1_SGV_CAVITY_N1_6
#    Modification time : Fri May 22 19:27:10 2020

@<TRIPOS>MOLECULE
6c9n_1_SGV_CAVITY_N1_6
    7     0     3     0     0
SMALL
NO_CHARGES


@<TRIPOS>ATOM
      1 O           4.8600    7.0400   12.3500 O.2       1 ALA2        0.0000 
      2 O           4.9600    6.4200   14.3800 O.2       1 ALA2        0.0000 
      3 O           5.4400    7.6200   13.6100 O.2       1 ALA2        0.0000 
      4 O           5.5400    7.0000   15.6400 O.2       1 ALA2        0.0000 
      5 NZ          3.6600    7.1300   14.6500 N.4       2 LYS4        0.0000 
      6 DU          5.9300    8.8100   12.8400 H         3 CUB7        0.0000 
      7 DU          6.0200    8.1900   14.8700 H         3 CUB7        0.0000 
@<TRIPOS>BOND
@<TRIPOS>SUBSTRUCTURE
     1 ALA2        1 GROUP   
     2 LYS4        5 GROUP   
     3 CUB7        6 GROUP   
@<TRIPOS>SET

