#    Name: 6c9n_3_SGV
#    Modification time : Fri May 22 19:27:18 2020

@<TRIPOS>MOLECULE
6c9n_3_SGV
   22    24     1     0     0
SMALL
NO_CHARGES


@<TRIPOS>ATOM
      1 N1         24.1510   19.3730   -6.8420 N.ar      1 SGV401      0.0000 
      2 C2         24.7910   18.5510   -7.6600 C.ar      1 SGV401      0.0000 
      3 N3         24.1870   17.5260   -8.2290 N.ar      1 SGV401      0.0000 
      4 C4         22.8640   17.2990   -7.9750 C.ar      1 SGV401      0.0000 
      5 C5         22.1610   18.1190   -7.1300 C.ar      1 SGV401      0.0000 
      6 C6         22.8780   19.1860   -6.5280 C.ar      1 SGV401      0.0000 
      7 N6         22.2510   20.0780   -5.5730 N.pl3     1 SGV401      0.0000 
      8 C7         20.8620   17.6020   -7.0750 C.2       1 SGV401      0.0000 
      9 C8         20.8040   16.5150   -7.9140 C.2       1 SGV401      0.0000 
     10 N9         22.0120   16.3140   -8.4320 N.pl3     1 SGV401      0.0000 
     11 C1'        22.3630   15.3340   -9.4580 C.3       1 SGV401      0.0000 
     12 C10        19.6600   18.1330   -6.3300 C.2       1 SGV401      0.0000 
     13 N11        18.3560   17.7370   -6.7810 N.am      1 SGV401      0.0000 
     14 O12        19.7620   18.9150   -5.4790 O.2       1 SGV401      0.0000 
     15 C2'        21.8850   13.8950   -9.2460 C.3       1 SGV401      0.0000 
     16 O2'        22.9460   13.0860   -8.7820 O.3       1 SGV401      0.0000 
     17 C3'        21.3410   13.4750  -10.6520 C.3       1 SGV401      0.0000 
     18 O3'        22.0900   12.3870  -11.1980 O.3       1 SGV401      0.0000 
     19 C4'        21.5850   14.6750  -11.5410 C.3       1 SGV401      0.0000 
     20 O4'        21.7250   15.7880  -10.6420 O.3       1 SGV401      0.0000 
     21 C5'        20.4790   14.9540  -12.5550 C.3       1 SGV401      0.0000 
     22 O5'        20.7780   16.1310  -13.2960 O.3       1 SGV401      0.0000 
@<TRIPOS>BOND
     1    1    2 ar   
     2    1    6 ar   
     3    2    3 ar   
     4    3    4 ar   
     5    4    5 ar   
     6    4   10 1    
     7    5    6 ar   
     8    5    8 1    
     9    6    7 1    
    10    8    9 2    
    11    8   12 1    
    12    9   10 1    
    13   10   11 1    
    14   11   15 1    
    15   11   20 1    
    16   12   13 am   
    17   12   14 2    
    18   15   16 1    
    19   15   17 1    
    20   17   18 1    
    21   17   19 1    
    22   19   20 1    
    23   19   21 1    
    24   21   22 1    
@<TRIPOS>SUBSTRUCTURE
     1 SGV401      1 GROUP   
@<TRIPOS>SET

