#    Name: 6c9n_1_SGV
#    Modification time : Fri May 22 19:27:08 2020

@<TRIPOS>MOLECULE
6c9n_1_SGV
   22    24     1     0     0
SMALL
NO_CHARGES


@<TRIPOS>ATOM
      1 N1          5.0820    0.3010    6.7620 N.ar      1 SGV401      0.0000 
      2 C2          5.9140   -0.3450    7.5870 C.ar      1 SGV401      0.0000 
      3 N3          6.9410    0.2540    8.1870 N.ar      1 SGV401      0.0000 
      4 C4          7.1790    1.5850    7.9080 C.ar      1 SGV401      0.0000 
      5 C5          6.3590    2.2760    7.0470 C.ar      1 SGV401      0.0000 
      6 C6          5.2910    1.5680    6.4440 C.ar      1 SGV401      0.0000 
      7 N6          4.4140    2.2280    5.5120 N.pl3     1 SGV401      0.0000 
      8 C7          6.8670    3.5810    7.0140 C.2       1 SGV401      0.0000 
      9 C8          7.9670    3.6510    7.8350 C.2       1 SGV401      0.0000 
     10 N9          8.1720    2.4510    8.3510 N.pl3     1 SGV401      0.0000 
     11 C1'         9.1500    2.1060    9.3910 C.3       1 SGV401      0.0000 
     12 C10         6.3240    4.7810    6.2640 C.2       1 SGV401      0.0000 
     13 N11         6.6650    6.0560    6.8620 N.am      1 SGV401      0.0000 
     14 O12         5.5920    4.7170    5.3470 O.2       1 SGV401      0.0000 
     15 C2'        10.5850    2.5870    9.1910 C.3       1 SGV401      0.0000 
     16 O2'        11.3860    1.5270    8.7430 O.3       1 SGV401      0.0000 
     17 C3'        10.9920    3.1400   10.6030 C.3       1 SGV401      0.0000 
     18 O3'        12.1040    2.4130   11.1470 O.3       1 SGV401      0.0000 
     19 C4'         9.7800    2.8890   11.4820 C.3       1 SGV401      0.0000 
     20 O4'         8.6830    2.7450   10.5710 O.3       1 SGV401      0.0000 
     21 C5'         9.4870    4.0010   12.4810 C.3       1 SGV401      0.0000 
     22 O5'         8.3380    3.7020   13.2540 O.3       1 SGV401      0.0000 
@<TRIPOS>BOND
     1    1    2 ar   
     2    1    6 ar   
     3    2    3 ar   
     4    3    4 ar   
     5    4    5 ar   
     6    4   10 1    
     7    5    6 ar   
     8    5    8 1    
     9    6    7 1    
    10    8    9 2    
    11    8   12 1    
    12    9   10 1    
    13   10   11 1    
    14   11   15 1    
    15   11   20 1    
    16   12   13 am   
    17   12   14 2    
    18   15   16 1    
    19   15   17 1    
    20   17   18 1    
    21   17   19 1    
    22   19   20 1    
    23   19   21 1    
    24   21   22 1    
@<TRIPOS>SUBSTRUCTURE
     1 SGV401      1 GROUP   
@<TRIPOS>SET

