#    Name: 6bb3_2_NAD
#    Modification time : Fri May 22 19:26:22 2020

@<TRIPOS>MOLECULE
6bb3_2_NAD
   44    48     1     0     1
SMALL
NO_CHARGES


@<TRIPOS>ATOM
      1 PA         44.1190   -8.0380   19.8940 P.3       1 NAD401      0.0000 
      2 O1A        43.5680   -6.6650   19.5930 O.co2     1 NAD401      0.0000 
      3 O2A        45.5830   -8.3710   19.6480 O.co2     1 NAD401      0.0000 
      4 O5B        43.7090   -8.4200   21.4250 O.3       1 NAD401      0.0000 
      5 C5B        44.2430   -9.5990   22.0170 C.3       1 NAD401      0.0000 
      6 C4B        44.3660   -9.3190   23.4950 C.3       1 NAD401      0.0000 
      7 O4B        44.6340  -10.5300   24.2010 O.3       1 NAD401      0.0000 
      8 C3B        45.4990   -8.3560   23.7780 C.3       1 NAD401      0.0000 
      9 O3B        44.9660   -7.3090   24.5870 O.3       1 NAD401      0.0000 
     10 C2B        46.4960   -9.1940   24.5410 C.3       1 NAD401      0.0000 
     11 O2B        47.1650   -8.4760   25.5500 O.3       1 NAD401      0.0000 
     12 C1B        45.6050  -10.1990   25.1910 C.3       1 NAD401      0.0000 
     13 N9A        46.3290  -11.3480   25.7020 N.pl3     1 NAD401      0.0000 
     14 C8A        47.4140  -11.9600   25.1400 C.2       1 NAD401      0.0000 
     15 N7A        47.8510  -12.9410   25.9040 N.2       1 NAD401      0.0000 
     16 C5A        47.0190  -12.9470   26.9920 C.ar      1 NAD401      0.0000 
     17 C6A        46.9850  -13.7540   28.1130 C.ar      1 NAD401      0.0000 
     18 N6A        47.9250  -14.7680   28.2810 N.pl3     1 NAD401      0.0000 
     19 N1A        46.0270  -13.5240   29.0270 N.ar      1 NAD401      0.0000 
     20 C2A        45.1490  -12.5340   28.8090 C.ar      1 NAD401      0.0000 
     21 N3A        45.0850  -11.6980   27.7650 N.ar      1 NAD401      0.0000 
     22 C4A        46.0610  -11.9640   26.8880 C.ar      1 NAD401      0.0000 
     23 O3         43.2160   -9.1480   19.1430 O.3       1 NAD401      0.0000 
     24 PN         41.6530   -8.9850   18.7510 P.3       1 NAD401      0.0000 
     25 O1N        40.9350   -8.4520   19.9710 O.co2     1 NAD401      0.0000 
     26 O2N        41.5470   -8.2370   17.4400 O.co2     1 NAD401      0.0000 
     27 O5D        41.3270  -10.5460   18.4000 O.3       1 NAD401      0.0000 
     28 C5D        41.2760  -11.4940   19.4650 C.3       1 NAD401      0.0000 
     29 C4D        41.0060  -12.8810   18.9020 C.3       1 NAD401      0.0000 
     30 O4D        39.6490  -13.0210   18.4690 O.3       1 NAD401      0.0000 
     31 C3D        41.9020  -13.2230   17.7250 C.3       1 NAD401      0.0000 
     32 O3D        42.3960  -14.5410   17.9810 O.3       1 NAD401      0.0000 
     33 C2D        40.9480  -13.2170   16.5420 C.3       1 NAD401      0.0000 
     34 O2D        41.3470  -14.1290   15.5270 O.3       1 NAD401      0.0000 
     35 C1D        39.6590  -13.6620   17.2010 C.3       1 NAD401      0.0000 
     36 N1N        38.4450  -13.3800   16.4350 N.pl3     1 NAD401      0.0000 
     37 C2N        37.5390  -14.3610   16.3860 C.ar      1 NAD401      0.0000 
     38 C3N        36.3520  -14.1820   15.7070 C.ar      1 NAD401      0.0000 
     39 C7N        35.3430  -15.2640   15.6480 C.2       1 NAD401      0.0000 
     40 O7N        34.4170  -15.2100   14.8400 O.2       1 NAD401      0.0000 
     41 N7N        35.5210  -16.2720   16.5610 N.am      1 NAD401      0.0000 
     42 C4N        36.1040  -12.9780   15.0680 C.ar      1 NAD401      0.0000 
     43 C5N        37.0610  -11.9810   15.1390 C.ar      1 NAD401      0.0000 
     44 C6N        38.2320  -12.2010   15.8430 C.ar      1 NAD401      0.0000 
@<TRIPOS>BOND
     1    1    2 ar   
     2    1    3 ar   
     3    1    4 1    
     4    1   23 1    
     5    4    5 1    
     6    5    6 1    
     7    6    7 1    
     8    6    8 1    
     9    7   12 1    
    10    8    9 1    
    11    8   10 1    
    12   10   11 1    
    13   10   12 1    
    14   12   13 1    
    15   13   14 1    
    16   13   22 1    
    17   14   15 2    
    18   15   16 1    
    19   16   17 ar   
    20   16   22 ar   
    21   17   18 1    
    22   17   19 ar   
    23   19   20 ar   
    24   20   21 ar   
    25   21   22 ar   
    26   23   24 1    
    27   24   25 ar   
    28   24   26 ar   
    29   24   27 1    
    30   27   28 1    
    31   28   29 1    
    32   29   30 1    
    33   29   31 1    
    34   30   35 1    
    35   31   32 1    
    36   31   33 1    
    37   33   34 1    
    38   33   35 1    
    39   35   36 1    
    40   36   37 ar   
    41   36   44 ar   
    42   37   38 ar   
    43   38   39 1    
    44   38   42 ar   
    45   39   40 2    
    46   39   41 am   
    47   42   43 ar   
    48   43   44 ar   
@<TRIPOS>SUBSTRUCTURE
     1 NAD401      1 GROUP   
@<TRIPOS>SET
ATOM$ORANGE STATIC     ATOMS   COLORGROUP SYSTEM 
42 5 5 6 6 8 8 10 10 12 12 14 14 16 16 17 17 20 \
20 22 22 28 28 29 29 31 31 33 33 35 35 37 37 38 38 39 \
39 42 42 43 43 44 44 

