#    Name: 6bb3_3_NAD
#    Modification time : Fri May 22 19:26:29 2020

@<TRIPOS>MOLECULE
6bb3_3_NAD
   44    48     1     0     1
SMALL
NO_CHARGES


@<TRIPOS>ATOM
      1 PA         -8.2680   -5.1570   43.1210 P.3       1 NAD401      0.0000 
      2 O1A        -8.3960   -4.8250   41.6530 O.co2     1 NAD401      0.0000 
      3 O2A        -9.4940   -5.4340   43.9550 O.co2     1 NAD401      0.0000 
      4 O5B        -7.1760   -6.3700   43.2510 O.3       1 NAD401      0.0000 
      5 C5B        -6.9800   -6.9920   44.5120 C.3       1 NAD401      0.0000 
      6 C4B        -6.6400   -8.4400   44.2470 C.3       1 NAD401      0.0000 
      7 O4B        -6.1790   -9.0520   45.4470 O.3       1 NAD401      0.0000 
      8 C3B        -7.8640   -9.2000   43.7770 C.3       1 NAD401      0.0000 
      9 O3B        -7.4860   -9.8780   42.5920 O.3       1 NAD401      0.0000 
     10 C2B        -8.1220  -10.1850   44.8790 C.3       1 NAD401      0.0000 
     11 O2B        -8.6080  -11.4330   44.4180 O.3       1 NAD401      0.0000 
     12 C1B        -6.7540  -10.3560   45.4590 C.3       1 NAD401      0.0000 
     13 N9A        -6.7750  -10.9590   46.7760 N.pl3     1 NAD401      0.0000 
     14 C8A        -7.6970  -10.7510   47.7650 C.2       1 NAD401      0.0000 
     15 N7A        -7.4400  -11.5020   48.8180 N.2       1 NAD401      0.0000 
     16 C5A        -6.3190  -12.2150   48.4770 C.ar      1 NAD401      0.0000 
     17 C6A        -5.5890  -13.1490   49.1750 C.ar      1 NAD401      0.0000 
     18 N6A        -5.9930  -13.4900   50.4580 N.pl3     1 NAD401      0.0000 
     19 N1A        -4.5070  -13.6890   48.5800 N.ar      1 NAD401      0.0000 
     20 C2A        -4.1900  -13.2970   47.3390 C.ar      1 NAD401      0.0000 
     21 N3A        -4.8220  -12.3970   46.5750 N.ar      1 NAD401      0.0000 
     22 C4A        -5.8880  -11.8990   47.2110 C.ar      1 NAD401      0.0000 
     23 O3         -7.4060   -3.9800   43.8390 O.3       1 NAD401      0.0000 
     24 PN         -6.2540   -3.1080   43.1090 P.3       1 NAD401      0.0000 
     25 O1N        -6.9550   -1.9480   42.4550 O.co2     1 NAD401      0.0000 
     26 O2N        -5.3500   -4.0580   42.3160 O.co2     1 NAD401      0.0000 
     27 O5D        -5.4860   -2.5250   44.4240 O.3       1 NAD401      0.0000 
     28 C5D        -4.6730   -3.3890   45.2170 C.3       1 NAD401      0.0000 
     29 C4D        -4.1250   -2.6200   46.4080 C.3       1 NAD401      0.0000 
     30 O4D        -3.0780   -1.7210   46.0100 O.3       1 NAD401      0.0000 
     31 C3D        -5.1860   -1.8120   47.1310 C.3       1 NAD401      0.0000 
     32 O3D        -4.9840   -2.0650   48.5140 O.3       1 NAD401      0.0000 
     33 C2D        -4.8130   -0.3770   46.8140 C.3       1 NAD401      0.0000 
     34 O2D        -5.1760    0.5120   47.8630 O.3       1 NAD401      0.0000 
     35 C1D        -3.3060   -0.4830   46.6810 C.3       1 NAD401      0.0000 
     36 N1N        -2.6700    0.6340   45.9970 N.pl3     1 NAD401      0.0000 
     37 C2N        -1.5520    1.1070   46.5500 C.ar      1 NAD401      0.0000 
     38 C3N        -0.8770    2.1620   45.9640 C.ar      1 NAD401      0.0000 
     39 C7N         0.3570    2.6960   46.5790 C.2       1 NAD401      0.0000 
     40 O7N         0.8190    3.7730   46.2130 O.2       1 NAD401      0.0000 
     41 N7N         0.9090    1.8850   47.5430 N.am      1 NAD401      0.0000 
     42 C4N        -1.3600    2.7260   44.7960 C.ar      1 NAD401      0.0000 
     43 C5N        -2.5150    2.2040   44.2490 C.ar      1 NAD401      0.0000 
     44 C6N        -3.1600    1.1480   44.8650 C.ar      1 NAD401      0.0000 
@<TRIPOS>BOND
     1    1    2 ar   
     2    1    3 ar   
     3    1    4 1    
     4    1   23 1    
     5    4    5 1    
     6    5    6 1    
     7    6    7 1    
     8    6    8 1    
     9    7   12 1    
    10    8    9 1    
    11    8   10 1    
    12   10   11 1    
    13   10   12 1    
    14   12   13 1    
    15   13   14 1    
    16   13   22 1    
    17   14   15 2    
    18   15   16 1    
    19   16   17 ar   
    20   16   22 ar   
    21   17   18 1    
    22   17   19 ar   
    23   19   20 ar   
    24   20   21 ar   
    25   21   22 ar   
    26   23   24 1    
    27   24   25 ar   
    28   24   26 ar   
    29   24   27 1    
    30   27   28 1    
    31   28   29 1    
    32   29   30 1    
    33   29   31 1    
    34   30   35 1    
    35   31   32 1    
    36   31   33 1    
    37   33   34 1    
    38   33   35 1    
    39   35   36 1    
    40   36   37 ar   
    41   36   44 ar   
    42   37   38 ar   
    43   38   39 1    
    44   38   42 ar   
    45   39   40 2    
    46   39   41 am   
    47   42   43 ar   
    48   43   44 ar   
@<TRIPOS>SUBSTRUCTURE
     1 NAD401      1 GROUP   
@<TRIPOS>SET
ATOM$ORANGE STATIC     ATOMS   COLORGROUP SYSTEM 
42 5 5 6 6 8 8 10 10 12 12 14 14 16 16 17 17 20 \
20 22 22 28 28 29 29 31 31 33 33 35 35 37 37 38 38 39 \
39 42 42 43 43 44 44 

