#    Name: 6bb3_4_NAD
#    Modification time : Fri May 22 19:26:35 2020

@<TRIPOS>MOLECULE
6bb3_4_NAD
   44    48     1     0     1
SMALL
NO_CHARGES


@<TRIPOS>ATOM
      1 PA        -13.8090   -2.7750   25.2500 P.3       1 NAD401      0.0000 
      2 O1A       -13.0660   -3.0790   26.5290 O.co2     1 NAD401      0.0000 
      3 O2A       -15.3090   -2.7480   25.1720 O.co2     1 NAD401      0.0000 
      4 O5B       -13.2090   -1.3870   24.6600 O.3       1 NAD401      0.0000 
      5 C5B       -13.7880   -0.8190   23.4920 C.3       1 NAD401      0.0000 
      6 C4B       -13.6060    0.6770   23.6120 C.3       1 NAD401      0.0000 
      7 O4B       -13.9660    1.3040   22.3830 O.3       1 NAD401      0.0000 
      8 C3B       -14.4750    1.2580   24.7120 C.3       1 NAD401      0.0000 
      9 O3B       -13.6350    2.0420   25.5570 O.3       1 NAD401      0.0000 
     10 C2B       -15.4370    2.1390   23.9630 C.3       1 NAD401      0.0000 
     11 O2B       -15.7820    3.3240   24.6610 O.3       1 NAD401      0.0000 
     12 C1B       -14.6460    2.4970   22.7420 C.3       1 NAD401      0.0000 
     13 N9A       -15.4730    3.0270   21.6780 N.pl3     1 NAD401      0.0000 
     14 C8A       -16.7470    2.6510   21.3510 C.2       1 NAD401      0.0000 
     15 N7A       -17.2150    3.3930   20.3730 N.2       1 NAD401      0.0000 
     16 C5A       -16.2140    4.2750   20.0670 C.ar      1 NAD401      0.0000 
     17 C6A       -16.1230    5.2790   19.1260 C.ar      1 NAD401      0.0000 
     18 N6A       -17.1770    5.5660   18.2810 N.pl3     1 NAD401      0.0000 
     19 N1A       -14.9870    5.9850   19.0600 N.ar      1 NAD401      0.0000 
     20 C2A       -14.0000    5.6930   19.9120 C.ar      1 NAD401      0.0000 
     21 N3A       -13.9690    4.7450   20.8510 N.ar      1 NAD401      0.0000 
     22 C4A       -15.1190    4.0690   20.8730 C.ar      1 NAD401      0.0000 
     23 O3        -13.2530   -3.8190   24.1420 O.3       1 NAD401      0.0000 
     24 PN        -11.7570   -4.4480   24.1010 P.3       1 NAD401      0.0000 
     25 O1N       -10.7680   -3.3310   24.3430 O.co2     1 NAD401      0.0000 
     26 O2N       -11.7330   -5.6840   24.9710 O.co2     1 NAD401      0.0000 
     27 O5D       -11.7480   -4.9690   22.5570 O.3       1 NAD401      0.0000 
     28 C5D       -11.6640   -4.0440   21.4810 C.3       1 NAD401      0.0000 
     29 C4D       -11.7220   -4.7860   20.1530 C.3       1 NAD401      0.0000 
     30 O4D       -10.5060   -5.4860   19.8790 O.3       1 NAD401      0.0000 
     31 C3D       -12.8560   -5.7950   20.0910 C.3       1 NAD401      0.0000 
     32 O3D       -13.5020   -5.5790   18.8360 O.3       1 NAD401      0.0000 
     33 C2D       -12.1410   -7.1320   20.1080 C.3       1 NAD401      0.0000 
     34 O2D       -12.8630   -8.1180   19.3830 O.3       1 NAD401      0.0000 
     35 C1D       -10.8590   -6.7810   19.3910 C.3       1 NAD401      0.0000 
     36 N1N        -9.7770   -7.7460   19.5600 N.pl3     1 NAD401      0.0000 
     37 C2N        -9.0790   -8.0630   18.4640 C.ar      1 NAD401      0.0000 
     38 C3N        -8.0260   -8.9560   18.5430 C.ar      1 NAD401      0.0000 
     39 C7N        -7.2560   -9.3220   17.3340 C.2       1 NAD401      0.0000 
     40 O7N        -6.4950  -10.2870   17.3300 O.2       1 NAD401      0.0000 
     41 N7N        -7.4490   -8.4770   16.2650 N.am      1 NAD401      0.0000 
     42 C4N        -7.6920   -9.5120   19.7610 C.ar      1 NAD401      0.0000 
     43 C5N        -8.4230   -9.1530   20.8810 C.ar      1 NAD401      0.0000 
     44 C6N        -9.4680   -8.2590   20.7610 C.ar      1 NAD401      0.0000 
@<TRIPOS>BOND
     1    1    2 ar   
     2    1    3 ar   
     3    1    4 1    
     4    1   23 1    
     5    4    5 1    
     6    5    6 1    
     7    6    7 1    
     8    6    8 1    
     9    7   12 1    
    10    8    9 1    
    11    8   10 1    
    12   10   11 1    
    13   10   12 1    
    14   12   13 1    
    15   13   14 1    
    16   13   22 1    
    17   14   15 2    
    18   15   16 1    
    19   16   17 ar   
    20   16   22 ar   
    21   17   18 1    
    22   17   19 ar   
    23   19   20 ar   
    24   20   21 ar   
    25   21   22 ar   
    26   23   24 1    
    27   24   25 ar   
    28   24   26 ar   
    29   24   27 1    
    30   27   28 1    
    31   28   29 1    
    32   29   30 1    
    33   29   31 1    
    34   30   35 1    
    35   31   32 1    
    36   31   33 1    
    37   33   34 1    
    38   33   35 1    
    39   35   36 1    
    40   36   37 ar   
    41   36   44 ar   
    42   37   38 ar   
    43   38   39 1    
    44   38   42 ar   
    45   39   40 2    
    46   39   41 am   
    47   42   43 ar   
    48   43   44 ar   
@<TRIPOS>SUBSTRUCTURE
     1 NAD401      1 GROUP   
@<TRIPOS>SET
ATOM$ORANGE STATIC     ATOMS   COLORGROUP SYSTEM 
42 5 5 6 6 8 8 10 10 12 12 14 14 16 16 17 17 20 \
20 22 22 28 28 29 29 31 31 33 33 35 35 37 37 38 38 39 \
39 42 42 43 43 44 44 

