#    Name: 6bb3_1_NAD
#    Modification time : Fri May 22 19:26:16 2020

@<TRIPOS>MOLECULE
6bb3_1_NAD
   44    48     1     0     1
SMALL
NO_CHARGES


@<TRIPOS>ATOM
      1 PA         41.3280   10.3330   16.1740 P.3       1 NAD401      0.0000 
      2 O1A        41.3380    8.8890   16.6320 O.co2     1 NAD401      0.0000 
      3 O2A        42.5240   11.0760   15.6170 O.co2     1 NAD401      0.0000 
      4 O5B        40.0640   10.4870   15.1620 O.3       1 NAD401      0.0000 
      5 C5B        39.9120   11.7000   14.4360 C.3       1 NAD401      0.0000 
      6 C4B        39.2610   11.3510   13.1170 C.3       1 NAD401      0.0000 
      7 O4B        38.8630   12.5470   12.4370 O.3       1 NAD401      0.0000 
      8 C3B        40.2220   10.5890   12.2280 C.3       1 NAD401      0.0000 
      9 O3B        39.5450    9.4060   11.8160 O.3       1 NAD401      0.0000 
     10 C2B        40.4350   11.5350   11.0790 C.3       1 NAD401      0.0000 
     11 O2B        40.6040   10.8920    9.8240 O.3       1 NAD401      0.0000 
     12 C1B        39.1530   12.3230   11.0730 C.3       1 NAD401      0.0000 
     13 N9A        39.2640   13.5560   10.3180 N.pl3     1 NAD401      0.0000 
     14 C8A        40.3490   14.3840   10.2250 C.2       1 NAD401      0.0000 
     15 N7A        40.1120   15.3700    9.3850 N.2       1 NAD401      0.0000 
     16 C5A        38.8410   15.1590    8.9150 C.ar      1 NAD401      0.0000 
     17 C6A        38.0580   15.8630    8.0130 C.ar      1 NAD401      0.0000 
     18 N6A        38.5280   17.0200    7.3880 N.pl3     1 NAD401      0.0000 
     19 N1A        36.8200   15.4070    7.7640 N.ar      1 NAD401      0.0000 
     20 C2A        36.4110   14.2950    8.3910 C.ar      1 NAD401      0.0000 
     21 N3A        37.0750   13.5360    9.2680 N.ar      1 NAD401      0.0000 
     22 C4A        38.2970   14.0300    9.4830 C.ar      1 NAD401      0.0000 
     23 O3         40.7850   11.2360   17.3950 O.3       1 NAD401      0.0000 
     24 PN         39.7540   10.7860   18.5470 P.3       1 NAD401      0.0000 
     25 O1N        38.6080   10.0510   17.8870 O.co2     1 NAD401      0.0000 
     26 O2N        40.5260   10.1220   19.6500 O.co2     1 NAD401      0.0000 
     27 O5D        39.2830   12.2500   19.0880 O.3       1 NAD401      0.0000 
     28 C5D        38.4950   13.1100   18.2760 C.3       1 NAD401      0.0000 
     29 C4D        38.3250   14.4530   18.9680 C.3       1 NAD401      0.0000 
     30 O4D        37.4160   14.3560   20.0770 O.3       1 NAD401      0.0000 
     31 C3D        39.6310   15.0250   19.4770 C.3       1 NAD401      0.0000 
     32 O3D        39.6310   16.3890   19.0720 O.3       1 NAD401      0.0000 
     33 C2D        39.4910   14.9180   20.9810 C.3       1 NAD401      0.0000 
     34 O2D        40.2010   15.9400   21.6490 O.3       1 NAD401      0.0000 
     35 C1D        37.9940   15.0710   21.1630 C.3       1 NAD401      0.0000 
     36 N1N        37.4860   14.6060   22.4470 N.pl3     1 NAD401      0.0000 
     37 C2N        36.5880   15.3960   23.0400 C.ar      1 NAD401      0.0000 
     38 C3N        36.0370   15.0500   24.2600 C.ar      1 NAD401      0.0000 
     39 C7N        35.0460   15.9310   24.9080 C.2       1 NAD401      0.0000 
     40 O7N        34.7570   15.7780   26.0830 O.2       1 NAD401      0.0000 
     41 N7N        34.4800   16.8830   24.0960 N.am      1 NAD401      0.0000 
     42 C4N        36.4220   13.8740   24.8740 C.ar      1 NAD401      0.0000 
     43 C5N        37.3470   13.0740   24.2290 C.ar      1 NAD401      0.0000 
     44 C6N        37.8690   13.4520   23.0030 C.ar      1 NAD401      0.0000 
@<TRIPOS>BOND
     1    1    2 ar   
     2    1    3 ar   
     3    1    4 1    
     4    1   23 1    
     5    4    5 1    
     6    5    6 1    
     7    6    7 1    
     8    6    8 1    
     9    7   12 1    
    10    8    9 1    
    11    8   10 1    
    12   10   11 1    
    13   10   12 1    
    14   12   13 1    
    15   13   14 1    
    16   13   22 1    
    17   14   15 2    
    18   15   16 1    
    19   16   17 ar   
    20   16   22 ar   
    21   17   18 1    
    22   17   19 ar   
    23   19   20 ar   
    24   20   21 ar   
    25   21   22 ar   
    26   23   24 1    
    27   24   25 ar   
    28   24   26 ar   
    29   24   27 1    
    30   27   28 1    
    31   28   29 1    
    32   29   30 1    
    33   29   31 1    
    34   30   35 1    
    35   31   32 1    
    36   31   33 1    
    37   33   34 1    
    38   33   35 1    
    39   35   36 1    
    40   36   37 ar   
    41   36   44 ar   
    42   37   38 ar   
    43   38   39 1    
    44   38   42 ar   
    45   39   40 2    
    46   39   41 am   
    47   42   43 ar   
    48   43   44 ar   
@<TRIPOS>SUBSTRUCTURE
     1 NAD401      1 GROUP   
@<TRIPOS>SET
ATOM$ORANGE STATIC     ATOMS   COLORGROUP SYSTEM 
42 5 5 6 6 8 8 10 10 12 12 14 14 16 16 17 17 20 \
20 22 22 28 28 29 29 31 31 33 33 35 35 37 37 38 38 39 \
39 42 42 43 43 44 44 

