#    Name: 6pfa_5_NDP
#    Modification time : Fri May 22 19:31:47 2020

@<TRIPOS>MOLECULE
6pfa_5_NDP
   48    52     1     0     1
SMALL
NO_CHARGES


@<TRIPOS>ATOM
      1 PA        -72.2570  -86.6890   17.3230 P.3       1 NDP601      0.0000 
      2 O1A       -71.1090  -86.4820   18.2890 O.co2     1 NDP601      0.0000 
      3 O2A       -73.2840  -85.6140   17.5380 O.co2     1 NDP601      0.0000 
      4 O5B       -71.7430  -86.5980   15.8790 O.3       1 NDP601      0.0000 
      5 C5B       -70.6790  -87.4100   15.4600 C.3       1 NDP601      0.0000 
      6 C4B       -70.1060  -87.1690   14.1250 C.3       1 NDP601      0.0000 
      7 O4B       -69.2540  -86.0440   14.1350 O.3       1 NDP601      0.0000 
      8 C3B       -69.2490  -88.2700   13.6820 C.3       1 NDP601      0.0000 
      9 O3B       -69.9850  -89.3070   13.1350 O.3       1 NDP601      0.0000 
     10 C2B       -68.4280  -87.6280   12.6880 C.3       1 NDP601      0.0000 
     11 O2B       -69.1490  -87.4610   11.5000 O.3       1 NDP601      0.0000 
     12 C1B       -68.1670  -86.3210   13.2660 C.3       1 NDP601      0.0000 
     13 N9A       -66.9390  -86.3350   13.9860 N.pl3     1 NDP601      0.0000 
     14 C8A       -66.7910  -86.5830   15.3110 C.2       1 NDP601      0.0000 
     15 N7A       -65.4860  -86.5070   15.6400 N.2       1 NDP601      0.0000 
     16 C5A       -64.7730  -86.2000   14.5050 C.ar      1 NDP601      0.0000 
     17 C6A       -63.3990  -85.9910   14.2200 C.ar      1 NDP601      0.0000 
     18 N6A       -62.3990  -86.1020   15.3120 N.pl3     1 NDP601      0.0000 
     19 N1A       -62.9990  -85.6920   12.9550 N.ar      1 NDP601      0.0000 
     20 C2A       -63.9340  -85.5960   11.9710 C.ar      1 NDP601      0.0000 
     21 N3A       -65.2400  -85.7830   12.1890 N.ar      1 NDP601      0.0000 
     22 C4A       -65.6960  -86.0900   13.4600 C.ar      1 NDP601      0.0000 
     23 O3        -72.9250  -88.1240   17.5350 O.3       1 NDP601      0.0000 
     24 PN        -73.5060  -88.6110   18.9350 P.3       1 NDP601      0.0000 
     25 O1N       -74.0050  -90.0600   18.8370 O.co2     1 NDP601      0.0000 
     26 O2N       -72.4140  -88.5410   19.9800 O.co2     1 NDP601      0.0000 
     27 O5D       -74.7560  -87.6630   19.3460 O.3       1 NDP601      0.0000 
     28 C5D       -76.0620  -88.0480   19.0000 C.3       1 NDP601      0.0000 
     29 C4D       -76.9950  -88.3000   20.0870 C.3       1 NDP601      0.0000 
     30 O4D       -76.7040  -87.4240   21.1740 O.3       1 NDP601      0.0000 
     31 C3D       -78.3790  -88.0160   19.6910 C.3       1 NDP601      0.0000 
     32 O3D       -79.2430  -88.8510   20.3910 O.3       1 NDP601      0.0000 
     33 C2D       -78.5840  -86.6750   20.1190 C.3       1 NDP601      0.0000 
     34 O2D       -79.9450  -86.4320   20.3070 O.3       1 NDP601      0.0000 
     35 C1D       -77.8370  -86.6510   21.3940 C.3       1 NDP601      0.0000 
     36 N1N       -77.5040  -85.3130   21.7850 N.pl3     1 NDP601      0.0000 
     37 C2N       -77.8560  -84.9040   23.0160 C.2       1 NDP601      0.0000 
     38 C3N       -77.5580  -83.6070   23.4600 C.2       1 NDP601      0.0000 
     39 C7N       -77.9800  -83.1950   24.8600 C.2       1 NDP601      0.0000 
     40 O7N       -77.6580  -82.0760   25.2880 O.2       1 NDP601      0.0000 
     41 N7N       -78.7480  -84.0770   25.6950 N.am      1 NDP601      0.0000 
     42 C4N       -76.8780  -82.7170   22.6070 C.3       1 NDP601      0.0000 
     43 C5N       -76.5250  -83.1770   21.3320 C.2       1 NDP601      0.0000 
     44 C6N       -76.8410  -84.4740   20.9300 C.2       1 NDP601      0.0000 
     45 P2B       -68.6900  -88.1260   10.1630 P.3       1 NDP601      0.0000 
     46 O1X       -68.7530  -89.6570   10.3210 O.co2     1 NDP601      0.0000 
     47 O2X       -69.5990  -87.6980    9.0860 O.co2     1 NDP601      0.0000 
     48 O3X       -67.3030  -87.7000    9.8030 O.co2     1 NDP601      0.0000 
@<TRIPOS>BOND
     1    1    2 ar   
     2    1    3 ar   
     3    1    4 1    
     4    1   23 1    
     5    4    5 1    
     6    5    6 1    
     7    6    7 1    
     8    6    8 1    
     9    7   12 1    
    10    8    9 1    
    11    8   10 1    
    12   10   11 1    
    13   10   12 1    
    14   11   45 1    
    15   12   13 1    
    16   13   14 1    
    17   13   22 1    
    18   14   15 2    
    19   15   16 1    
    20   16   17 ar   
    21   16   22 ar   
    22   17   18 1    
    23   17   19 ar   
    24   19   20 ar   
    25   20   21 ar   
    26   21   22 ar   
    27   23   24 1    
    28   24   25 ar   
    29   24   26 ar   
    30   24   27 1    
    31   27   28 1    
    32   28   29 1    
    33   29   30 1    
    34   29   31 1    
    35   30   35 1    
    36   31   32 1    
    37   31   33 1    
    38   33   34 1    
    39   33   35 1    
    40   35   36 1    
    41   36   37 1    
    42   36   44 1    
    43   37   38 2    
    44   38   39 1    
    45   38   42 1    
    46   39   40 2    
    47   39   41 am   
    48   42   43 1    
    49   43   44 2    
    50   45   46 ar   
    51   45   47 ar   
    52   45   48 ar   
@<TRIPOS>SUBSTRUCTURE
     1 NDP601      1 GROUP   
@<TRIPOS>SET
ATOM$ORANGE STATIC     ATOMS   COLORGROUP SYSTEM 
42 5 5 6 6 8 8 10 10 12 12 14 14 16 16 17 17 20 \
20 22 22 28 28 29 29 31 31 33 33 35 35 37 37 38 38 39 \
39 42 42 43 43 44 44 

