#    Name: 6pfa_6_NDP
#    Modification time : Fri May 22 19:31:40 2020

@<TRIPOS>MOLECULE
6pfa_6_NDP
   48    52     1     0     1
SMALL
NO_CHARGES


@<TRIPOS>ATOM
      1 PA          5.9900  -45.2990   87.7340 P.3       1 NDP601      0.0000 
      2 O1A         5.1070  -45.5680   86.5350 O.co2     1 NDP601      0.0000 
      3 O2A         5.2510  -45.6310   88.9970 O.co2     1 NDP601      0.0000 
      4 O5B         7.2370  -46.1870   87.6600 O.3       1 NDP601      0.0000 
      5 C5B         8.0580  -46.1690   86.5240 C.3       1 NDP601      0.0000 
      6 C4B         9.1190  -47.1850   86.4590 C.3       1 NDP601      0.0000 
      7 O4B         8.5660  -48.4410   86.1230 O.3       1 NDP601      0.0000 
      8 C3B        10.0990  -46.9100   85.4060 C.3       1 NDP601      0.0000 
      9 O3B        11.0940  -46.0460   85.8340 O.3       1 NDP601      0.0000 
     10 C2B        10.6220  -48.2260   85.1330 C.3       1 NDP601      0.0000 
     11 O2B        11.5000  -48.6310   86.1430 O.3       1 NDP601      0.0000 
     12 C1B         9.4440  -49.0720   85.2070 C.3       1 NDP601      0.0000 
     13 N9A         8.8370  -49.1930   83.9280 N.pl3     1 NDP601      0.0000 
     14 C8A         7.8090  -48.4480   83.4500 C.2       1 NDP601      0.0000 
     15 N7A         7.5040  -48.8550   82.2040 N.2       1 NDP601      0.0000 
     16 C5A         8.3500  -49.8870   81.8700 C.ar      1 NDP601      0.0000 
     17 C6A         8.5150  -50.7060   80.7240 C.ar      1 NDP601      0.0000 
     18 N6A         7.6330  -50.5010   79.5460 N.pl3     1 NDP601      0.0000 
     19 N1A         9.4750  -51.6720   80.7060 N.ar      1 NDP601      0.0000 
     20 C2A        10.2680  -51.8380   81.7980 C.ar      1 NDP601      0.0000 
     21 N3A        10.1510  -51.0940   82.9020 N.ar      1 NDP601      0.0000 
     22 C4A         9.1910  -50.0990   82.9660 C.ar      1 NDP601      0.0000 
     23 O3          6.4400  -43.7700   87.7830 O.3       1 NDP601      0.0000 
     24 PN          5.4340  -42.5700   87.5090 P.3       1 NDP601      0.0000 
     25 O1N         6.1850  -41.2310   87.5630 O.co2     1 NDP601      0.0000 
     26 O2N         4.8180  -42.7170   86.1340 O.co2     1 NDP601      0.0000 
     27 O5D         4.3020  -42.5850   88.6660 O.3       1 NDP601      0.0000 
     28 C5D         4.6380  -42.1860   89.9690 C.3       1 NDP601      0.0000 
     29 C4D         3.9410  -41.0200   90.4840 C.3       1 NDP601      0.0000 
     30 O4D         2.5360  -41.2510   90.4100 O.3       1 NDP601      0.0000 
     31 C3D         4.2390  -40.7870   91.9000 C.3       1 NDP601      0.0000 
     32 O3D         4.0560  -39.4400   92.1920 O.3       1 NDP601      0.0000 
     33 C2D         3.2420  -41.5470   92.5690 C.3       1 NDP601      0.0000 
     34 O2D         3.0490  -41.0680   93.8650 O.3       1 NDP601      0.0000 
     35 C1D         2.0580  -41.3160   91.7130 C.3       1 NDP601      0.0000 
     36 N1N         1.0950  -42.3620   91.8830 N.pl3     1 NDP601      0.0000 
     37 C2N        -0.1850  -42.0230   92.1130 C.2       1 NDP601      0.0000 
     38 C3N        -1.1680  -43.0080   92.2880 C.2       1 NDP601      0.0000 
     39 C7N        -2.6030  -42.5820   92.5460 C.2       1 NDP601      0.0000 
     40 O7N        -3.4870  -43.4500   92.6290 O.2       1 NDP601      0.0000 
     41 N7N        -2.9530  -41.1980   92.6970 N.am      1 NDP601      0.0000 
     42 C4N        -0.8160  -44.3690   92.2240 C.3       1 NDP601      0.0000 
     43 C5N         0.5270  -44.6860   91.9840 C.2       1 NDP601      0.0000 
     44 C6N         1.4730  -43.6760   91.8140 C.2       1 NDP601      0.0000 
     45 P2B        13.0430  -48.5960   85.9330 P.3       1 NDP601      0.0000 
     46 O1X        13.4790  -47.1290   85.7520 O.co2     1 NDP601      0.0000 
     47 O2X        13.7000  -49.1820   87.1140 O.co2     1 NDP601      0.0000 
     48 O3X        13.4180  -49.3970   84.7270 O.co2     1 NDP601      0.0000 
@<TRIPOS>BOND
     1    1    2 ar   
     2    1    3 ar   
     3    1    4 1    
     4    1   23 1    
     5    4    5 1    
     6    5    6 1    
     7    6    7 1    
     8    6    8 1    
     9    7   12 1    
    10    8    9 1    
    11    8   10 1    
    12   10   11 1    
    13   10   12 1    
    14   11   45 1    
    15   12   13 1    
    16   13   14 1    
    17   13   22 1    
    18   14   15 2    
    19   15   16 1    
    20   16   17 ar   
    21   16   22 ar   
    22   17   18 1    
    23   17   19 ar   
    24   19   20 ar   
    25   20   21 ar   
    26   21   22 ar   
    27   23   24 1    
    28   24   25 ar   
    29   24   26 ar   
    30   24   27 1    
    31   27   28 1    
    32   28   29 1    
    33   29   30 1    
    34   29   31 1    
    35   30   35 1    
    36   31   32 1    
    37   31   33 1    
    38   33   34 1    
    39   33   35 1    
    40   35   36 1    
    41   36   37 1    
    42   36   44 1    
    43   37   38 2    
    44   38   39 1    
    45   38   42 1    
    46   39   40 2    
    47   39   41 am   
    48   42   43 1    
    49   43   44 2    
    50   45   46 ar   
    51   45   47 ar   
    52   45   48 ar   
@<TRIPOS>SUBSTRUCTURE
     1 NDP601      1 GROUP   
@<TRIPOS>SET
ATOM$ORANGE STATIC     ATOMS   COLORGROUP SYSTEM 
42 5 5 6 6 8 8 10 10 12 12 14 14 16 16 17 17 20 \
20 22 22 28 28 29 29 31 31 33 33 35 35 37 37 38 38 39 \
39 42 42 43 43 44 44 

