#    Name: 6pfa_3_MTX
#    Modification time : Fri May 22 19:31:27 2020

@<TRIPOS>MOLECULE
6pfa_3_MTX
   33    35     1     0     0
SMALL
NO_CHARGES


@<TRIPOS>ATOM
      1 N1        -61.7070  -40.8130   67.0720 N.ar      1 MTX604      0.0000 
      2 C2        -61.9240  -41.0820   65.7710 C.ar      1 MTX604      0.0000 
      3 NA2       -62.9420  -42.0390   65.4250 N.pl3     1 MTX604      0.0000 
      4 N3        -61.2230  -40.4900   64.7890 N.ar      1 MTX604      0.0000 
      5 C4        -60.2610  -39.5880   65.0850 C.ar      1 MTX604      0.0000 
      6 NA4       -59.4980  -38.9420   64.0630 N.pl3     1 MTX604      0.0000 
      7 C4A       -59.9990  -39.2750   66.4370 C.ar      1 MTX604      0.0000 
      8 N5        -59.0380  -38.3690   66.7730 N.ar      1 MTX604      0.0000 
      9 C6        -58.8210  -38.1020   68.0760 C.ar      1 MTX604      0.0000 
     10 C7        -59.5590  -38.7240   69.0900 C.ar      1 MTX604      0.0000 
     11 N8        -60.5100  -39.6170   68.7380 N.ar      1 MTX604      0.0000 
     12 C8A       -60.7410  -39.9050   67.4170 C.ar      1 MTX604      0.0000 
     13 C9        -57.7510  -37.1000   68.4320 C.3       1 MTX604      0.0000 
     14 N10       -57.0850  -37.3450   69.6940 N.pl3     1 MTX604      0.0000 
     15 CM        -57.1580  -36.3610   70.7480 C.3       1 MTX604      0.0000 
     16 C11       -54.9620  -40.9710   70.3490 C.ar      1 MTX604      0.0000 
     17 C12       -55.5420  -40.2790   71.4080 C.ar      1 MTX604      0.0000 
     18 C13       -56.2330  -39.0940   71.1790 C.ar      1 MTX604      0.0000 
     19 C14       -56.3520  -38.5900   69.8920 C.ar      1 MTX604      0.0000 
     20 C15       -55.7780  -39.2830   68.8250 C.ar      1 MTX604      0.0000 
     21 C16       -55.0840  -40.4740   69.0560 C.ar      1 MTX604      0.0000 
     22 C         -54.2250  -42.2590   70.6320 C.2       1 MTX604      0.0000 
     23 O         -53.6900  -42.4050   71.7190 O.2       1 MTX604      0.0000 
     24 N         -54.1460  -43.3320   69.6680 N.am      1 MTX604      0.0000 
     25 CA        -53.4350  -44.5370   70.0090 C.3       1 MTX604      0.0000 
     26 CT        -52.8300  -45.0820   68.7780 C.2       1 MTX604      0.0000 
     27 O1        -53.2960  -44.7360   67.6600 O.co2     1 MTX604      0.0000 
     28 O2        -51.8550  -45.8940   68.8510 O.co2     1 MTX604      0.0000 
     29 CB        -54.4240  -45.5440   70.4820 C.3       1 MTX604      0.0000 
     30 CG        -54.5950  -45.8250   71.9440 C.3       1 MTX604      0.0000 
     31 CD        -55.2740  -47.1180   72.2750 C.2       1 MTX604      0.0000 
     32 OE1       -55.0280  -48.1210   71.5650 O.co2     1 MTX604      0.0000 
     33 OE2       -56.3410  -47.0960   72.9450 O.co2     1 MTX604      0.0000 
@<TRIPOS>BOND
     1    1    2 ar   
     2    1   12 ar   
     3    2    3 1    
     4    2    4 ar   
     5    4    5 ar   
     6    5    6 1    
     7    5    7 ar   
     8    7    8 ar   
     9    7   12 ar   
    10    8    9 ar   
    11    9   10 ar   
    12    9   13 1    
    13   10   11 ar   
    14   11   12 ar   
    15   13   14 1    
    16   14   15 1    
    17   14   19 1    
    18   16   17 ar   
    19   16   21 ar   
    20   16   22 1    
    21   17   18 ar   
    22   18   19 ar   
    23   19   20 ar   
    24   20   21 ar   
    25   22   23 2    
    26   22   24 am   
    27   24   25 1    
    28   25   26 1    
    29   25   29 1    
    30   26   27 ar   
    31   26   28 ar   
    32   29   30 1    
    33   30   31 1    
    34   31   32 ar   
    35   31   33 ar   
@<TRIPOS>SUBSTRUCTURE
     1 MTX604      1 GROUP   
@<TRIPOS>SET

