#    Name: 6pfa_4_MTX
#    Modification time : Fri May 22 19:31:34 2020

@<TRIPOS>MOLECULE
6pfa_4_MTX
   33    35     1     0     0
SMALL
NO_CHARGES


@<TRIPOS>ATOM
      1 N1        -80.1840  -79.3880   26.0950 N.ar      1 MTX604      0.0000 
      2 C2        -79.1870  -78.7410   26.7230 C.ar      1 MTX604      0.0000 
      3 NA2       -79.3790  -78.3380   28.0930 N.pl3     1 MTX604      0.0000 
      4 N3        -78.0210  -78.4590   26.1170 N.ar      1 MTX604      0.0000 
      5 C4        -77.8110  -78.8240   24.8330 C.ar      1 MTX604      0.0000 
      6 NA4       -76.5840  -78.5410   24.1550 N.pl3     1 MTX604      0.0000 
      7 C4A       -78.8300  -79.5040   24.1330 C.ar      1 MTX604      0.0000 
      8 N5        -78.6500  -79.8860   22.8380 N.ar      1 MTX604      0.0000 
      9 C6        -79.6490  -80.5340   22.2070 C.ar      1 MTX604      0.0000 
     10 C7        -80.8610  -80.8240   22.8470 C.ar      1 MTX604      0.0000 
     11 N8        -81.0210  -80.4360   24.1310 N.ar      1 MTX604      0.0000 
     12 C8A       -80.0150  -79.7760   24.7910 C.ar      1 MTX604      0.0000 
     13 C9        -79.4430  -80.9510   20.7720 C.3       1 MTX604      0.0000 
     14 N10       -80.6520  -80.9800   19.9800 N.pl3     1 MTX604      0.0000 
     15 CM        -81.0900  -82.2300   19.4070 C.3       1 MTX604      0.0000 
     16 C11       -82.9810  -77.4650   19.3970 C.ar      1 MTX604      0.0000 
     17 C12       -83.5680  -78.7260   19.3870 C.ar      1 MTX604      0.0000 
     18 C13       -82.7950  -79.8650   19.5800 C.ar      1 MTX604      0.0000 
     19 C14       -81.4260  -79.7580   19.7820 C.ar      1 MTX604      0.0000 
     20 C15       -80.8300  -78.4970   19.7910 C.ar      1 MTX604      0.0000 
     21 C16       -81.6090  -77.3530   19.5970 C.ar      1 MTX604      0.0000 
     22 C         -83.8510  -76.2470   19.1830 C.2       1 MTX604      0.0000 
     23 O         -84.8460  -76.3550   18.4840 O.2       1 MTX604      0.0000 
     24 N         -83.5560  -74.9600   19.7740 N.am      1 MTX604      0.0000 
     25 CA        -84.4350  -73.8450   19.5210 C.3       1 MTX604      0.0000 
     26 CT        -83.6190  -72.6150   19.4290 C.2       1 MTX604      0.0000 
     27 O1        -82.3980  -72.6610   19.7280 O.co2     1 MTX604      0.0000 
     28 O2        -84.1500  -71.5230   19.0560 O.co2     1 MTX604      0.0000 
     29 CB        -85.3710  -73.6550   20.6660 C.3       1 MTX604      0.0000 
     30 CG        -86.7440  -74.2580   20.6330 C.3       1 MTX604      0.0000 
     31 CD        -87.7470  -73.6670   21.5750 C.2       1 MTX604      0.0000 
     32 OE1       -87.7340  -72.4290   21.7680 O.co2     1 MTX604      0.0000 
     33 OE2       -88.3200  -74.4080   22.4160 O.co2     1 MTX604      0.0000 
@<TRIPOS>BOND
     1    1    2 ar   
     2    1   12 ar   
     3    2    3 1    
     4    2    4 ar   
     5    4    5 ar   
     6    5    6 1    
     7    5    7 ar   
     8    7    8 ar   
     9    7   12 ar   
    10    8    9 ar   
    11    9   10 ar   
    12    9   13 1    
    13   10   11 ar   
    14   11   12 ar   
    15   13   14 1    
    16   14   15 1    
    17   14   19 1    
    18   16   17 ar   
    19   16   21 ar   
    20   16   22 1    
    21   17   18 ar   
    22   18   19 ar   
    23   19   20 ar   
    24   20   21 ar   
    25   22   23 2    
    26   22   24 am   
    27   24   25 1    
    28   25   26 1    
    29   25   29 1    
    30   26   27 ar   
    31   26   28 ar   
    32   29   30 1    
    33   30   31 1    
    34   31   32 ar   
    35   31   33 ar   
@<TRIPOS>SUBSTRUCTURE
     1 MTX604      1 GROUP   
@<TRIPOS>SET

