#    Name: 6opx_1_017
#    Modification time : Fri May 22 19:26:18 2020

@<TRIPOS>MOLECULE
6opx_1_017
   75    78     1     0     0
SMALL
NO_CHARGES


@<TRIPOS>ATOM
      1 N1         -8.2220  -16.4930    1.3640 N.pl3     1 017101      0.0000 
      2 C2         -8.2180  -16.1810   -0.0960 C.ar      1 017101      0.0000 
      3 C3         -7.0170  -16.0720   -0.7630 C.ar      1 017101      0.0000 
      4 C4         -6.9990  -15.7850   -2.1100 C.ar      1 017101      0.0000 
      5 C5         -8.1980  -15.6050   -2.8040 C.ar      1 017101      0.0000 
      6 C6         -9.3890  -15.7090   -2.1440 C.ar      1 017101      0.0000 
      7 C7         -9.4090  -16.0000   -0.7800 C.ar      1 017101      0.0000 
      8 S8         -8.1840  -15.2150   -4.6060 S.o2      1 017101      0.0000 
      9 O9         -7.1130  -14.2910   -4.9200 O.2       1 017101      0.0000 
     10 O10        -9.3570  -14.3600   -4.9340 O.2       1 017101      0.0000 
     11 N11        -8.2060  -16.6590   -5.5960 N.pl3     1 017101      0.0000 
     12 C12        -7.3500  -16.7840   -6.8080 C.3       1 017101      0.0000 
     13 C13        -5.8340  -16.9850   -6.6540 C.3       1 017101      0.0000 
     14 C14        -5.0970  -15.7310   -6.0680 C.3       1 017101      0.0000 
     15 C15        -5.4270  -18.2830   -5.9170 C.3       1 017101      0.0000 
     16 C16        -9.6290  -17.2750   -5.7110 C.3       1 017101      0.0000 
     17 C17       -10.2080  -17.1760   -7.1630 C.3       1 017101      0.0000 
     18 O18       -11.3370  -17.9610   -7.2900 O.3       1 017101      0.0000 
     19 C19       -10.5730  -15.7330   -7.5170 C.3       1 017101      0.0000 
     20 N20       -10.7630  -15.6450   -8.9560 N.am      1 017101      0.0000 
     21 C21        -9.7230  -15.1430   -9.8690 C.2       1 017101      0.0000 
     22 O22        -8.7770  -14.5470   -9.4640 O.2       1 017101      0.0000 
     23 O23        -9.9170  -15.3900  -11.2320 O.3       1 017101      0.0000 
     24 C24        -9.4360  -14.4250  -12.1460 C.3       1 017101      0.0000 
     25 C25        -9.0030  -15.2620  -13.5300 C.3       1 017101      0.0000 
     26 O26       -10.1780  -15.4760  -14.1480 O.3       1 017101      0.0000 
     27 C27       -11.0060  -14.1580  -13.8700 C.3       1 017101      0.0000 
     28 O28       -12.1980  -14.3830  -13.5480 O.3       1 017101      0.0000 
     29 C29       -12.5560  -13.2680  -12.4130 C.3       1 017101      0.0000 
     30 C30       -11.4840  -13.2420  -11.6440 C.3       1 017101      0.0000 
     31 C31       -10.3320  -13.5240  -12.5650 C.3       1 017101      0.0000 
     32 C32       -11.8960  -15.2980   -6.8970 C.3       1 017101      0.0000 
     33 C33       -11.5460  -12.8460   -7.2100 C.ar      1 017101      0.0000 
     34 C34       -11.8940  -11.6010   -7.7560 C.ar      1 017101      0.0000 
     35 C35       -13.0100  -11.4960   -8.6030 C.ar      1 017101      0.0000 
     36 C36       -13.7690  -12.6060   -8.8940 C.ar      1 017101      0.0000 
     37 C37       -13.4240  -13.8500   -8.3510 C.ar      1 017101      0.0000 
     38 C38       -12.3030  -13.9530   -7.4970 C.ar      1 017101      0.0000 
     39 H11        -7.9500  -17.2680    1.6430 H         1 017101      0.0000 
     40 H12        -8.4950  -15.8980    1.9340 H         1 017101      0.0000 
     41 H3         -6.2190  -16.1920   -0.3040 H         1 017101      0.0000 
     42 H4         -6.1880  -15.7100   -2.5580 H         1 017101      0.0000 
     43 H6        -10.1870  -15.5860   -2.6050 H         1 017101      0.0000 
     44 H7        -10.2190  -16.0730   -0.3310 H         1 017101      0.0000 
     45 H121       -7.6750  -17.5180   -7.2950 H         1 017101      0.0000 
     46 H122       -7.4720  -16.0000   -7.3090 H         1 017101      0.0000 
     47 H13        -5.5360  -17.0930   -7.5370 H         1 017101      0.0000 
     48 H141       -5.1800  -15.7260   -5.1330 H         1 017101      0.0000 
     49 H142       -4.1870  -15.7650   -6.3000 H         1 017101      0.0000 
     50 H143       -5.4790  -14.9490   -6.4200 H         1 017101      0.0000 
     51 H151       -4.6270  -18.1380   -5.4470 H         1 017101      0.0000 
     52 H152       -6.1040  -18.5250   -5.3140 H         1 017101      0.0000 
     53 H153       -5.3030  -18.9720   -6.5420 H         1 017101      0.0000 
     54 H161       -9.5870  -18.1800   -5.4620 H         1 017101      0.0000 
     55 H162      -10.2040  -16.8200   -5.1240 H         1 017101      0.0000 
     56 H17        -9.5420  -17.4800   -7.7510 H         1 017101      0.0000 
     57 H18       -11.1230  -18.7640   -7.2510 H         1 017101      0.0000 
     58 H19        -9.8800  -15.1860   -7.1960 H         1 017101      0.0000 
     59 H20       -11.5220  -15.8990   -9.2910 H         1 017101      0.0000 
     60 H24        -8.7450  -13.9340  -11.7410 H         1 017101      0.0000 
     61 H251       -8.5930  -16.0780  -13.3090 H         1 017101      0.0000 
     62 H252       -8.4360  -14.7430  -14.0680 H         1 017101      0.0000 
     63 H27       -10.9740  -13.5820  -14.6110 H         1 017101      0.0000 
     64 H291      -13.3100  -13.5310  -11.9200 H         1 017101      0.0000 
     65 H292      -12.6980  -12.4290  -12.8100 H         1 017101      0.0000 
     66 H301      -11.3860  -12.3940  -11.2520 H         1 017101      0.0000 
     67 H302      -11.5420  -13.9070  -10.9840 H         1 017101      0.0000 
     68 H31        -9.8730  -12.7220  -12.7320 H         1 017101      0.0000 
     69 H321      -12.5570  -15.9400   -7.0780 H         1 017101      0.0000 
     70 H322      -11.7990  -15.2150   -5.9670 H         1 017101      0.0000 
     71 H33       -10.8040  -12.9200   -6.6550 H         1 017101      0.0000 
     72 H34       -11.3870  -10.8480   -7.5570 H         1 017101      0.0000 
     73 H35       -13.2370  -10.6730   -8.9690 H         1 017101      0.0000 
     74 H36       -14.5090  -12.5300   -9.4510 H         1 017101      0.0000 
     75 H37       -13.9300  -14.6030   -8.5500 H         1 017101      0.0000 
@<TRIPOS>BOND
     1    1    2 1    
     2    2    3 ar   
     3    1   39 1    
     4    1   40 1    
     5    2    7 ar   
     6    3    4 ar   
     7    4    5 ar   
     8    3   41 1    
     9    5    6 ar   
    10    4   42 1    
    11    5    8 1    
    12    6    7 ar   
    13    8    9 2    
    14    6   43 1    
    15    7   44 1    
    16    8   10 2    
    17    8   11 1    
    18   11   12 1    
    19   11   16 1    
    20   12   13 1    
    21   13   14 1    
    22   12   45 1    
    23   12   46 1    
    24   13   15 1    
    25   16   17 1    
    26   13   47 1    
    27   14   48 1    
    28   14   49 1    
    29   14   50 1    
    30   15   51 1    
    31   15   52 1    
    32   15   53 1    
    33   17   18 1    
    34   16   54 1    
    35   16   55 1    
    36   17   19 1    
    37   19   20 1    
    38   17   56 1    
    39   18   57 1    
    40   19   32 1    
    41   20   21 am   
    42   19   58 1    
    43   21   22 2    
    44   20   59 1    
    45   21   23 1    
    46   23   24 1    
    47   24   25 1    
    48   24   31 1    
    49   25   26 1    
    50   24   60 1    
    51   31   68 1    
    52   26   27 1    
    53   25   61 1    
    54   25   62 1    
    55   27   28 1    
    56   27   31 1    
    57   28   29 1    
    58   27   63 1    
    59   29   30 1    
    60   30   66 1    
    61   30   31 1    
    62   29   64 1    
    63   29   65 1    
    64   30   67 1    
    65   32   38 1    
    66   33   34 ar   
    67   32   69 1    
    68   32   70 1    
    69   33   38 ar   
    70   34   35 ar   
    71   33   71 1    
    72   35   36 ar   
    73   34   72 1    
    74   36   37 ar   
    75   35   73 1    
    76   37   38 ar   
    77   36   74 1    
    78   37   75 1    
@<TRIPOS>SUBSTRUCTURE
     1 017101      1 GROUP   
@<TRIPOS>SET

