#    Name: 6cke_1_3Z7
#    Modification time : Fri May 22 19:26:42 2020

@<TRIPOS>MOLECULE
6cke_1_3Z7
   10    10     1     0     0
SMALL
NO_CHARGES


@<TRIPOS>ATOM
      1 C1         -7.4780    0.1580  -16.0260           1 3Z7202      0.0000 
      2 C2         -8.0200    1.4050  -16.2560           1 3Z7202      0.0000 
      3 C3         -8.2270   -0.9590  -16.2880           1 3Z7202      0.0000 
      4 C4         -9.5160   -0.8630  -16.7780           1 3Z7202      0.0000 
      5 C5         -9.3120    1.5070  -16.7520           1 3Z7202      0.0000 
      6 C6        -10.0660    0.3790  -17.0190           1 3Z7202      0.0000 
      7 O7         -6.1870   -0.0600  -15.5110           1 3Z7202      0.0000 
      8 BR8       -10.0590    3.2630  -17.0730           1 3Z7202      0.0000 
      9 O9         -7.6410   -2.1800  -16.0130           1 3Z7202      0.0000 
     10 C10        -5.1350    0.7110  -16.0130           1 3Z7202      0.0000 
@<TRIPOS>BOND
     1    1    2 du   
     2    1    3 du   
     3    1    7 du   
     4    2    5 du   
     5    3    4 du   
     6    3    9 du   
     7    4    6 du   
     8    5    6 du   
     9    5    8 du   
    10    7   10 du   
@<TRIPOS>SUBSTRUCTURE
     1 3Z7202      1 GROUP   
@<TRIPOS>SET

