#    Name: 6cke_1_3Z7_CAVITY_N1_4
#    Modification time : Fri May 22 19:26:43 2020

@<TRIPOS>MOLECULE
6cke_1_3Z7_CAVITY_N1_4
   38     0     5     0     0
SMALL
NO_CHARGES


@<TRIPOS>ATOM
      1 OG         -4.7600    0.0600  -11.8900 O.3       1 SER1        0.0000 
      2 N         -10.5400    3.5700  -17.8300 N.am      2 ALA2        0.0000 
      3 N          -2.6900    1.5100  -14.5500 N.am      2 ALA2        0.0000 
      4 CZ        -11.0700    3.7700  -16.4400 C.ar      3 PHE5        0.0000 
      5 CZ         -8.4800    1.1700  -16.7000 C.ar      3 PHE5        0.0000 
      6 CZ         -8.1500   -4.1100  -12.5700 C.ar      3 PHE5        0.0000 
      7 CZ         -6.7700    0.1900  -15.9100 C.ar      3 PHE5        0.0000 
      8 CZ         -6.2600   -3.8700  -13.5100 C.ar      3 PHE5        0.0000 
      9 CZ         -4.8900    0.4300  -16.8500 C.ar      3 PHE5        0.0000 
     10 CZ         -5.0700   -0.7900  -15.1200 C.ar      3 PHE5        0.0000 
     11 CZ         -5.1100    1.4700  -12.2300 C.ar      3 PHE5        0.0000 
     12 CZ         -3.1800   -0.5500  -16.0600 C.ar      3 PHE5        0.0000 
     13 CZ         -3.7100   -0.3500  -14.6700 C.ar      3 PHE5        0.0000 
     14 CZ         -3.3600   -1.7700  -14.3300 C.ar      3 PHE5        0.0000 
     15 CZ         -1.8200   -0.1100  -15.6100 C.ar      3 PHE5        0.0000 
     16 CA        -10.1900    2.1500  -17.4900 C.3       4 GLY6        0.0000 
     17 CA        -10.7200    2.3500  -16.1000 C.3       4 GLY6        0.0000 
     18 CA         -9.1800    4.0100  -17.3800 C.3       4 GLY6        0.0000 
     19 CA         -9.7100    4.2100  -15.9900 C.3       4 GLY6        0.0000 
     20 CA         -8.8300    2.5900  -17.0400 C.3       4 GLY6        0.0000 
     21 CA         -9.3600    2.7900  -15.6500 C.3       4 GLY6        0.0000 
     22 CA         -9.8900    2.9900  -14.2600 C.3       4 GLY6        0.0000 
     23 CA         -8.0000    3.2300  -15.2000 C.3       4 GLY6        0.0000 
     24 CA         -7.1200    1.6100  -16.2500 C.3       4 GLY6        0.0000 
     25 CA         -7.6500    1.8100  -14.8600 C.3       4 GLY6        0.0000 
     26 CA         -8.1800    2.0100  -13.4700 C.3       4 GLY6        0.0000 
     27 CA         -5.7600    2.0500  -15.8000 C.3       4 GLY6        0.0000 
     28 CA         -6.8200    2.4500  -13.0200 C.3       4 GLY6        0.0000 
     29 CA         -5.4100    0.6300  -15.4600 C.3       4 GLY6        0.0000 
     30 CA         -5.9400    0.8300  -14.0700 C.3       4 GLY6        0.0000 
     31 CA         -6.4700    1.0300  -12.6800 C.3       4 GLY6        0.0000 
     32 CA         -4.0500    1.0700  -15.0100 C.3       4 GLY6        0.0000 
     33 CA         -4.5800    1.2700  -13.6200 C.3       4 GLY6        0.0000 
     34 CA         -3.8900   -1.5700  -12.9400 C.3       4 GLY6        0.0000 
     35 CA         -3.2200    1.7100  -13.1600 C.3       4 GLY6        0.0000 
     36 CA         -2.8700    0.2900  -12.8300 C.3       4 GLY6        0.0000 
     37 DU         -4.2300   -0.1500  -13.2800 H         5 CUB7        0.0000 
     38 DU         -2.3500    0.0900  -14.2200 H         5 CUB7        0.0000 
@<TRIPOS>BOND
@<TRIPOS>SUBSTRUCTURE
     1 SER1        1 GROUP   
     2 ALA2        2 GROUP   
     3 PHE5        4 GROUP   
     4 GLY6       16 GROUP   
     5 CUB7       37 GROUP   
@<TRIPOS>SET

