#    Name: 6hea_2_ATP
#    Modification time : Fri May 22 19:33:56 2020

@<TRIPOS>MOLECULE
6hea_2_ATP
   31    33     1     0     1
SMALL
NO_CHARGES


@<TRIPOS>ATOM
      1 PG        240.2860  238.1500  368.9510 P.3       1 ATP402      0.0000 
      2 O1G       241.1610  238.2780  367.7430 O.co2     1 ATP402      0.0000 
      3 O2G       240.9800  238.1310  370.3410 O.co2     1 ATP402      0.0000 
      4 O3G       239.0320  239.0170  368.8470 O.co2     1 ATP402      0.0000 
      5 PB        239.4590  234.8690  368.4380 P.3       1 ATP402      0.0000 
      6 O1B       239.7680  234.4650  367.0210 O.co2     1 ATP402      0.0000 
      7 O2B       240.2670  234.2010  369.5240 O.co2     1 ATP402      0.0000 
      8 O3B       239.6290  236.5860  368.7270 O.3       1 ATP402      0.0000 
      9 PA        236.3470  234.8400  369.7910 P.3       1 ATP402      0.0000 
     10 O1A       236.2500  236.2460  370.1560 O.co2     1 ATP402      0.0000 
     11 O2A       236.2860  233.8750  370.8520 O.co2     1 ATP402      0.0000 
     12 O3A       237.7680  234.5710  368.8970 O.3       1 ATP402      0.0000 
     13 O5'       235.1950  234.4700  368.7140 O.3       1 ATP402      0.0000 
     14 C5'       233.8220  234.6270  369.0090 C.3       1 ATP402      0.0000 
     15 C4'       232.9980  233.3460  369.3140 C.3       1 ATP402      0.0000 
     16 O4'       233.1990  232.3140  368.2730 O.3       1 ATP402      0.0000 
     17 C3'       233.2590  232.5880  370.5910 C.3       1 ATP402      0.0000 
     18 O3'       232.0840  232.2210  371.3040 O.3       1 ATP402      0.0000 
     19 C2'       234.0990  231.3690  370.2220 C.3       1 ATP402      0.0000 
     20 O2'       233.9910  230.2900  371.1530 O.3       1 ATP402      0.0000 
     21 C1'       233.4210  231.0430  368.8940 C.3       1 ATP402      0.0000 
     22 N9        234.1690  230.2160  367.9910 N.pl3     1 ATP402      0.0000 
     23 C8        235.4640  230.3350  367.4780 C.2       1 ATP402      0.0000 
     24 N7        235.7870  229.3920  366.6590 N.2       1 ATP402      0.0000 
     25 C5        234.7300  228.5260  366.6200 C.ar      1 ATP402      0.0000 
     26 C6        234.5380  227.2770  365.9540 C.ar      1 ATP402      0.0000 
     27 N6        235.5180  226.7890  365.1000 N.pl3     1 ATP402      0.0000 
     28 N1        233.2660  226.7910  366.0790 N.ar      1 ATP402      0.0000 
     29 C2        232.3730  227.4520  366.8130 C.ar      1 ATP402      0.0000 
     30 N3        232.4700  228.5180  367.5490 N.ar      1 ATP402      0.0000 
     31 C4        233.6880  229.0950  367.4060 C.ar      1 ATP402      0.0000 
@<TRIPOS>BOND
     1    1    2 ar   
     2    1    3 ar   
     3    1    4 ar   
     4    1    8 1    
     5    5    6 ar   
     6    5    7 ar   
     7    5    8 1    
     8    5   12 1    
     9    9   10 ar   
    10    9   11 ar   
    11    9   12 1    
    12    9   13 1    
    13   13   14 1    
    14   14   15 1    
    15   15   16 1    
    16   15   17 1    
    17   16   21 1    
    18   17   18 1    
    19   17   19 1    
    20   19   20 1    
    21   19   21 1    
    22   21   22 1    
    23   22   23 1    
    24   22   31 1    
    25   23   24 2    
    26   24   25 1    
    27   25   26 ar   
    28   25   31 ar   
    29   26   27 1    
    30   26   28 ar   
    31   28   29 ar   
    32   29   30 ar   
    33   30   31 ar   
@<TRIPOS>SUBSTRUCTURE
     1 ATP402      1 GROUP   
@<TRIPOS>SET
ATOM$ORANGE STATIC     ATOMS   COLORGROUP SYSTEM 
20 14 14 15 15 17 17 19 19 21 21 23 23 25 25 26 26 29 \
29 31 31 

