#    Name: 6hea_3_ATP
#    Modification time : Fri May 22 19:34:08 2020

@<TRIPOS>MOLECULE
6hea_3_ATP
   31    33     1     0     1
SMALL
NO_CHARGES


@<TRIPOS>ATOM
      1 PG        225.1950  258.4140  368.4590 P.3       1 ATP401      0.0000 
      2 O1G       226.2730  258.1430  367.4580 O.co2     1 ATP401      0.0000 
      3 O2G       224.6620  257.1400  369.1490 O.co2     1 ATP401      0.0000 
      4 O3G       225.6090  259.5380  369.4260 O.co2     1 ATP401      0.0000 
      5 PB        222.7020  259.8080  366.3680 P.3       1 ATP401      0.0000 
      6 O1B       223.4910  260.5900  365.3460 O.co2     1 ATP401      0.0000 
      7 O2B       221.6460  258.8430  365.7990 O.co2     1 ATP401      0.0000 
      8 O3B       223.8320  259.0800  367.5150 O.3       1 ATP401      0.0000 
      9 PA        221.5970  262.2500  368.2890 P.3       1 ATP401      0.0000 
     10 O1A       222.7920  263.0620  368.4630 O.co2     1 ATP401      0.0000 
     11 O2A       220.8720  261.7490  369.4620 O.co2     1 ATP401      0.0000 
     12 O3A       221.8730  261.0000  367.2870 O.3       1 ATP401      0.0000 
     13 O5'       220.5190  262.9750  367.4340 O.3       1 ATP401      0.0000 
     14 C5'       220.2750  264.3760  367.7370 C.3       1 ATP401      0.0000 
     15 C4'       218.7580  264.7190  367.7640 C.3       1 ATP401      0.0000 
     16 O4'       218.0570  264.1360  366.7070 O.3       1 ATP401      0.0000 
     17 C3'       218.0340  264.2810  369.0550 C.3       1 ATP401      0.0000 
     18 O3'       217.3650  265.3850  369.6540 O.3       1 ATP401      0.0000 
     19 C2'       217.0920  263.1780  368.5750 C.3       1 ATP401      0.0000 
     20 O2'       215.8640  263.1930  369.3340 O.3       1 ATP401      0.0000 
     21 C1'       216.8350  263.6900  367.2070 C.3       1 ATP401      0.0000 
     22 N9        216.1480  262.7290  366.3480 N.pl3     1 ATP401      0.0000 
     23 C8        216.8430  261.8620  365.5650 C.2       1 ATP401      0.0000 
     24 N7        216.0870  261.0730  364.9190 N.2       1 ATP401      0.0000 
     25 C5        214.8110  261.3300  365.3680 C.ar      1 ATP401      0.0000 
     26 C6        213.5760  260.6120  365.1970 C.ar      1 ATP401      0.0000 
     27 N6        213.6160  259.4230  364.5920 N.pl3     1 ATP401      0.0000 
     28 N1        212.4890  261.1600  365.8370 N.ar      1 ATP401      0.0000 
     29 C2        212.6880  262.3140  366.5170 C.ar      1 ATP401      0.0000 
     30 N3        213.8110  262.9250  366.8990 N.ar      1 ATP401      0.0000 
     31 C4        214.8790  262.4060  366.2680 C.ar      1 ATP401      0.0000 
@<TRIPOS>BOND
     1    1    2 ar   
     2    1    3 ar   
     3    1    4 ar   
     4    1    8 1    
     5    5    6 ar   
     6    5    7 ar   
     7    5    8 1    
     8    5   12 1    
     9    9   10 ar   
    10    9   11 ar   
    11    9   12 1    
    12    9   13 1    
    13   13   14 1    
    14   14   15 1    
    15   15   16 1    
    16   15   17 1    
    17   16   21 1    
    18   17   18 1    
    19   17   19 1    
    20   19   20 1    
    21   19   21 1    
    22   21   22 1    
    23   22   23 1    
    24   22   31 1    
    25   23   24 2    
    26   24   25 1    
    27   25   26 ar   
    28   25   31 ar   
    29   26   27 1    
    30   26   28 ar   
    31   28   29 ar   
    32   29   30 ar   
    33   30   31 ar   
@<TRIPOS>SUBSTRUCTURE
     1 ATP401      1 GROUP   
@<TRIPOS>SET
ATOM$ORANGE STATIC     ATOMS   COLORGROUP SYSTEM 
20 14 14 15 15 17 17 19 19 21 21 23 23 25 25 26 26 29 \
29 31 31 

