#    Name: 6hea_1_ATP
#    Modification time : Fri May 22 19:33:45 2020

@<TRIPOS>MOLECULE
6hea_1_ATP
   31    33     1     0     1
SMALL
NO_CHARGES


@<TRIPOS>ATOM
      1 PG        265.8050  237.6010  371.7120 P.3       1 ATP401      0.0000 
      2 O1G       265.8930  238.3650  370.3700 O.co2     1 ATP401      0.0000 
      3 O2G       266.3810  238.3720  372.8530 O.co2     1 ATP401      0.0000 
      4 O3G       264.4620  236.8950  371.9580 O.co2     1 ATP401      0.0000 
      5 PB        268.3200  235.1490  371.8260 P.3       1 ATP401      0.0000 
      6 O1B       268.8740  234.8580  370.5050 O.co2     1 ATP401      0.0000 
      7 O2B       269.3000  235.8920  372.7750 O.co2     1 ATP401      0.0000 
      8 O3B       267.0330  236.2900  371.6580 O.3       1 ATP401      0.0000 
      9 PA        267.4520  232.1560  373.2200 P.3       1 ATP401      0.0000 
     10 O1A       266.1510  232.1550  373.9390 O.co2     1 ATP401      0.0000 
     11 O2A       268.6470  231.7610  373.9860 O.co2     1 ATP401      0.0000 
     12 O3A       267.7180  233.6880  372.5930 O.3       1 ATP401      0.0000 
     13 O5'       267.4240  231.2440  371.8760 O.3       1 ATP401      0.0000 
     14 C5'       266.2090  230.5320  371.4460 C.3       1 ATP401      0.0000 
     15 C4'       266.4300  228.9710  371.3530 C.3       1 ATP401      0.0000 
     16 O4'       267.4620  228.6130  370.3810 O.3       1 ATP401      0.0000 
     17 C3'       266.9740  228.3310  372.6580 C.3       1 ATP401      0.0000 
     18 O3'       266.4100  227.0140  372.7740 O.3       1 ATP401      0.0000 
     19 C2'       268.4980  228.2020  372.4780 C.3       1 ATP401      0.0000 
     20 O2'       269.2010  227.2260  373.2930 O.3       1 ATP401      0.0000 
     21 C1'       268.4580  227.8450  371.0290 C.3       1 ATP401      0.0000 
     22 N9        269.7630  228.0060  370.2750 N.pl3     1 ATP401      0.0000 
     23 C8        270.3070  229.0980  369.5120 C.2       1 ATP401      0.0000 
     24 N7        271.4970  228.9660  369.0630 N.2       1 ATP401      0.0000 
     25 C5        271.8890  227.7610  369.5820 C.ar      1 ATP401      0.0000 
     26 C6        273.1440  227.1370  369.4230 C.ar      1 ATP401      0.0000 
     27 N6        274.0890  227.6910  368.6590 N.pl3     1 ATP401      0.0000 
     28 N1        273.2080  225.9370  370.0200 N.ar      1 ATP401      0.0000 
     29 C2        272.1220  225.4640  370.6410 C.ar      1 ATP401      0.0000 
     30 N3        270.9710  225.9450  370.9300 N.ar      1 ATP401      0.0000 
     31 C4        270.8520  227.1470  370.2930 C.ar      1 ATP401      0.0000 
@<TRIPOS>BOND
     1    1    2 ar   
     2    1    3 ar   
     3    1    4 ar   
     4    1    8 1    
     5    5    6 ar   
     6    5    7 ar   
     7    5    8 1    
     8    5   12 1    
     9    9   10 ar   
    10    9   11 ar   
    11    9   12 1    
    12    9   13 1    
    13   13   14 1    
    14   14   15 1    
    15   15   16 1    
    16   15   17 1    
    17   16   21 1    
    18   17   18 1    
    19   17   19 1    
    20   19   20 1    
    21   19   21 1    
    22   21   22 1    
    23   22   23 1    
    24   22   31 1    
    25   23   24 2    
    26   24   25 1    
    27   25   26 ar   
    28   25   31 ar   
    29   26   27 1    
    30   26   28 ar   
    31   28   29 ar   
    32   29   30 ar   
    33   30   31 ar   
@<TRIPOS>SUBSTRUCTURE
     1 ATP401      1 GROUP   
@<TRIPOS>SET
ATOM$ORANGE STATIC     ATOMS   COLORGROUP SYSTEM 
20 14 14 15 15 17 17 19 19 21 21 23 23 25 25 26 26 29 \
29 31 31 

