#    Name: 6hea_4_ADP
#    Modification time : Fri May 22 19:34:20 2020

@<TRIPOS>MOLECULE
6hea_4_ADP
   27    29     1     0     1
SMALL
NO_CHARGES


@<TRIPOS>ATOM
      1 PB        236.9490  285.3610  363.9670 P.3       1 ADP401      0.0000 
      2 O1B       235.8200  285.9150  363.0780 O.co2     1 ADP401      0.0000 
      3 O2B       238.2150  285.0050  363.2350 O.co2     1 ADP401      0.0000 
      4 O3B       236.6100  284.2660  364.9980 O.co2     1 ADP401      0.0000 
      5 PA        236.9790  288.3850  365.5290 P.3       1 ADP401      0.0000 
      6 O1A       235.5190  288.5820  365.4530 O.co2     1 ADP401      0.0000 
      7 O2A       237.6510  288.5420  366.8500 O.co2     1 ADP401      0.0000 
      8 O3A       237.2670  286.7860  364.8840 O.3       1 ADP401      0.0000 
      9 O5'       237.6580  289.3160  364.4500 O.3       1 ADP401      0.0000 
     10 C5'       239.0720  289.6650  364.4450 C.3       1 ADP401      0.0000 
     11 C4'       239.2300  291.1840  364.6000 C.3       1 ADP401      0.0000 
     12 O4'       238.6670  291.8770  363.4970 O.3       1 ADP401      0.0000 
     13 C3'       238.6580  291.8310  365.9080 C.3       1 ADP401      0.0000 
     14 O3'       239.4170  292.9250  366.4360 O.3       1 ADP401      0.0000 
     15 C2'       237.2560  292.1440  365.4350 C.3       1 ADP401      0.0000 
     16 O2'       236.6060  293.1260  366.1920 O.3       1 ADP401      0.0000 
     17 C1'       237.3950  292.4810  363.9950 C.3       1 ADP401      0.0000 
     18 N9        236.2030  292.1510  363.2290 N.pl3     1 ADP401      0.0000 
     19 C8        235.8590  290.9890  362.5470 C.2       1 ADP401      0.0000 
     20 N7        234.6990  291.0500  361.8810 N.2       1 ADP401      0.0000 
     21 C5        234.1770  292.2510  362.3160 C.ar      1 ADP401      0.0000 
     22 C6        232.8520  292.7500  362.1290 C.ar      1 ADP401      0.0000 
     23 N6        232.0530  292.0020  361.3670 N.pl3     1 ADP401      0.0000 
     24 N1        232.6420  293.9510  362.8310 N.ar      1 ADP401      0.0000 
     25 C2        233.5770  294.4060  363.6220 C.ar      1 ADP401      0.0000 
     26 N3        234.8280  294.0320  363.8170 N.ar      1 ADP401      0.0000 
     27 C4        235.0670  292.8890  363.1600 C.ar      1 ADP401      0.0000 
@<TRIPOS>BOND
     1    1    2 ar   
     2    1    3 ar   
     3    1    4 ar   
     4    1    8 1    
     5    5    6 ar   
     6    5    7 ar   
     7    5    8 1    
     8    5    9 1    
     9    9   10 1    
    10   10   11 1    
    11   11   12 1    
    12   11   13 1    
    13   12   17 1    
    14   13   14 1    
    15   13   15 1    
    16   15   16 1    
    17   15   17 1    
    18   17   18 1    
    19   18   19 1    
    20   18   27 1    
    21   19   20 2    
    22   20   21 1    
    23   21   22 ar   
    24   21   27 ar   
    25   22   23 1    
    26   22   24 ar   
    27   24   25 ar   
    28   25   26 ar   
    29   26   27 ar   
@<TRIPOS>SUBSTRUCTURE
     1 ADP401      1 GROUP   
@<TRIPOS>SET
ATOM$ORANGE STATIC     ATOMS   COLORGROUP SYSTEM 
20 10 10 11 11 13 13 15 15 17 17 19 19 21 21 22 22 25 \
25 27 27 

