#    Name: 6hea_5_ATP
#    Modification time : Fri May 22 19:34:33 2020

@<TRIPOS>MOLECULE
6hea_5_ATP
   31    33     1     0     1
SMALL
NO_CHARGES


@<TRIPOS>ATOM
      1 PG        279.7640  260.3870  376.5650 P.3       1 ATP401      0.0000 
      2 O1G       279.3050  260.9970  375.2890 O.co2     1 ATP401      0.0000 
      3 O2G       279.4720  261.2110  377.8520 O.co2     1 ATP401      0.0000 
      4 O3G       279.3840  258.9270  376.6970 O.co2     1 ATP401      0.0000 
      5 PB        282.8890  261.3980  376.3370 P.3       1 ATP401      0.0000 
      6 O1B       283.0870  261.8130  374.8510 O.co2     1 ATP401      0.0000 
      7 O2B       282.7010  262.5110  377.4260 O.co2     1 ATP401      0.0000 
      8 O3B       281.4800  260.4550  376.3640 O.3       1 ATP401      0.0000 
      9 PA        285.4120  259.6340  377.8070 P.3       1 ATP401      0.0000 
     10 O1A       286.0990  260.7730  378.4690 O.co2     1 ATP401      0.0000 
     11 O2A       284.9780  258.5020  378.6410 O.co2     1 ATP401      0.0000 
     12 O3A       284.1240  260.2710  376.8340 O.3       1 ATP401      0.0000 
     13 O5'       286.4870  259.0350  376.7710 O.3       1 ATP401      0.0000 
     14 C5'       286.1510  257.8970  376.0010 C.3       1 ATP401      0.0000 
     15 C4'       287.3070  257.1270  375.4140 C.3       1 ATP401      0.0000 
     16 O4'       287.7760  257.6550  374.0880 O.3       1 ATP401      0.0000 
     17 C3'       288.6220  257.2590  376.2310 C.3       1 ATP401      0.0000 
     18 O3'       289.3690  256.0340  376.2610 O.3       1 ATP401      0.0000 
     19 C2'       289.3610  258.3920  375.5900 C.3       1 ATP401      0.0000 
     20 O2'       290.7250  258.3360  375.8510 O.3       1 ATP401      0.0000 
     21 C1'       289.0880  258.0980  374.1350 C.3       1 ATP401      0.0000 
     22 N9        289.2660  259.3650  373.3640 N.pl3     1 ATP401      0.0000 
     23 C8        288.3080  260.1880  372.9450 C.2       1 ATP401      0.0000 
     24 N7        288.6750  261.1900  372.2120 N.2       1 ATP401      0.0000 
     25 C5        290.0640  261.0080  372.1340 C.ar      1 ATP401      0.0000 
     26 C6        291.0900  261.9410  371.7150 C.ar      1 ATP401      0.0000 
     27 N6        290.6830  263.0160  370.9600 N.pl3     1 ATP401      0.0000 
     28 N1        292.4120  261.5150  371.9920 N.ar      1 ATP401      0.0000 
     29 C2        292.5560  260.3280  372.6370 C.ar      1 ATP401      0.0000 
     30 N3        291.6310  259.5110  373.0920 N.ar      1 ATP401      0.0000 
     31 C4        290.4000  259.8410  372.8200 C.ar      1 ATP401      0.0000 
@<TRIPOS>BOND
     1    1    2 ar   
     2    1    3 ar   
     3    1    4 ar   
     4    1    8 1    
     5    5    6 ar   
     6    5    7 ar   
     7    5    8 1    
     8    5   12 1    
     9    9   10 ar   
    10    9   11 ar   
    11    9   12 1    
    12    9   13 1    
    13   13   14 1    
    14   14   15 1    
    15   15   16 1    
    16   15   17 1    
    17   16   21 1    
    18   17   18 1    
    19   17   19 1    
    20   19   20 1    
    21   19   21 1    
    22   21   22 1    
    23   22   23 1    
    24   22   31 1    
    25   23   24 2    
    26   24   25 1    
    27   25   26 ar   
    28   25   31 ar   
    29   26   27 1    
    30   26   28 ar   
    31   28   29 ar   
    32   29   30 ar   
    33   30   31 ar   
@<TRIPOS>SUBSTRUCTURE
     1 ATP401      1 GROUP   
@<TRIPOS>SET
ATOM$ORANGE STATIC     ATOMS   COLORGROUP SYSTEM 
20 14 14 15 15 17 17 19 19 21 21 23 23 25 25 26 26 29 \
29 31 31 

