#    Name: 6py0_1_RTL
#    Modification time : Fri May 22 19:40:05 2020

@<TRIPOS>MOLECULE
6py0_1_RTL
   21    21     1     0     0
SMALL
NO_CHARGES


@<TRIPOS>ATOM
      1 C1         -5.0810    1.3490  -11.8940 C.3       1 RTL201      0.0000 
      2 C2         -3.8930    0.4540  -12.2450 C.3       1 RTL201      0.0000 
      3 C3         -4.2060   -0.5510  -13.3680 C.3       1 RTL201      0.0000 
      4 C4         -5.6000   -1.1470  -13.2400 C.3       1 RTL201      0.0000 
      5 C5         -6.5220    0.0370  -13.2390 C.2       1 RTL201      0.0000 
      6 C6         -6.4350    0.7140  -12.1270 C.2       1 RTL201      0.0000 
      7 C7         -7.5800    0.8070  -11.2060 C.2       1 RTL201      0.0000 
      8 C8         -7.4450    0.4430   -9.9520 C.2       1 RTL201      0.0000 
      9 C9         -8.4760    0.4990   -8.9110 C.2       1 RTL201      0.0000 
     10 C10        -8.3260    1.4060   -7.9520 C.2       1 RTL201      0.0000 
     11 C11        -9.2010    1.5390   -6.8130 C.2       1 RTL201      0.0000 
     12 C12        -8.7260    0.9260   -5.7340 C.2       1 RTL201      0.0000 
     13 C13        -9.3080    0.8380   -4.3940 C.2       1 RTL201      0.0000 
     14 C14        -8.8530   -0.0870   -3.5460 C.2       1 RTL201      0.0000 
     15 C15        -9.4170   -0.2040   -2.1530 C.3       1 RTL201      0.0000 
     16 O1         -8.6630   -1.1700   -1.4040 O.3       1 RTL201      0.0000 
     17 C16        -4.9900    2.5740  -12.7720 C.3       1 RTL201      0.0000 
     18 C17        -4.9470    1.7250  -10.4360 C.3       1 RTL201      0.0000 
     19 C18        -7.3460    0.4930  -14.3980 C.3       1 RTL201      0.0000 
     20 C19        -9.6140   -0.4630   -8.9180 C.3       1 RTL201      0.0000 
     21 C20       -10.3700    1.7810   -3.9680 C.3       1 RTL201      0.0000 
@<TRIPOS>BOND
     1    1    2 1    
     2    1    6 1    
     3    1   17 1    
     4    1   18 1    
     5    2    3 1    
     6    3    4 1    
     7    4    5 1    
     8    5    6 2    
     9    5   19 1    
    10    6    7 1    
    11    7    8 2    
    12    8    9 1    
    13    9   10 2    
    14    9   20 1    
    15   10   11 1    
    16   11   12 2    
    17   12   13 1    
    18   13   14 2    
    19   13   21 1    
    20   14   15 1    
    21   15   16 1    
@<TRIPOS>SUBSTRUCTURE
     1 RTL201      1 GROUP   
@<TRIPOS>SET

