#    Name: 6er9_4_NAP
#    Modification time : Fri May 22 19:34:33 2020

@<TRIPOS>MOLECULE
6er9_4_NAP
   48    52     1     0     1
SMALL
NO_CHARGES


@<TRIPOS>ATOM
      1 PA         37.7910   -8.2430   16.8840 P.3       1 NAP602      0.0000 
      2 O1A        37.4700   -7.9310   18.2900 O.co2     1 NAP602      0.0000 
      3 O2A        36.5110   -8.6570   16.1610 O.co2     1 NAP602      0.0000 
      4 O5B        38.5170   -6.9970   16.1320 O.3       1 NAP602      0.0000 
      5 C5B        38.4660   -6.8070   14.7040 C.3       1 NAP602      0.0000 
      6 C4B        39.1380   -5.4940   14.3860 C.3       1 NAP602      0.0000 
      7 O4B        39.1220   -5.2730   12.9560 O.3       1 NAP602      0.0000 
      8 C3B        38.4740   -4.2620   14.9970 C.3       1 NAP602      0.0000 
      9 O3B        39.4180   -3.2030   15.0980 O.3       1 NAP602      0.0000 
     10 C2B        37.4320   -3.9810   13.9200 C.3       1 NAP602      0.0000 
     11 O2B        36.8100   -2.6850   14.0370 O.3       1 NAP602      0.0000 
     12 C1B        38.2690   -4.1830   12.6620 C.3       1 NAP602      0.0000 
     13 N9A        37.4760   -4.5180   11.4820 N.pl3     1 NAP602      0.0000 
     14 C8A        36.5310   -5.5050   11.3750 C.2       1 NAP602      0.0000 
     15 N7A        35.9650   -5.5750   10.1940 N.2       1 NAP602      0.0000 
     16 C5A        36.5750   -4.5600    9.4730 C.ar      1 NAP602      0.0000 
     17 C6A        36.3990   -4.0890    8.1580 C.ar      1 NAP602      0.0000 
     18 N6A        35.5520   -4.6350    7.2800 N.pl3     1 NAP602      0.0000 
     19 N1A        37.1420   -3.0310    7.7660 N.ar      1 NAP602      0.0000 
     20 C2A        38.0100   -2.4980    8.6300 C.ar      1 NAP602      0.0000 
     21 N3A        38.2710   -2.8610    9.8880 N.ar      1 NAP602      0.0000 
     22 C4A        37.5120   -3.9010   10.2560 C.ar      1 NAP602      0.0000 
     23 O3         38.8500   -9.4280   16.7890 O.3       1 NAP602      0.0000 
     24 PN         40.2720   -9.6990   17.4670 P.3       1 NAP602      0.0000 
     25 O1N        40.9450   -8.4000   17.6870 O.co2     1 NAP602      0.0000 
     26 O2N        40.9790  -10.7460   16.6980 O.co2     1 NAP602      0.0000 
     27 O5D        39.8180  -10.3050   18.8800 O.3       1 NAP602      0.0000 
     28 C5D        38.5190  -10.9290   19.0430 C.3       1 NAP602      0.0000 
     29 C4D        38.3630  -11.5530   20.4120 C.3       1 NAP602      0.0000 
     30 O4D        39.3420  -12.6020   20.5990 O.3       1 NAP602      0.0000 
     31 C3D        38.5580  -10.6250   21.6060 C.3       1 NAP602      0.0000 
     32 O3D        37.3750   -9.8920   21.9110 O.3       1 NAP602      0.0000 
     33 C2D        38.9200  -11.6160   22.7140 C.3       1 NAP602      0.0000 
     34 O2D        37.7730  -12.2660   23.2470 O.3       1 NAP602      0.0000 
     35 C1D        39.7680  -12.6300   21.9400 C.3       1 NAP602      0.0000 
     36 N1N        41.2640  -12.3010   21.9810 N.pl3     1 NAP602      0.0000 
     37 C2N        41.7120  -12.1270   23.2420 C.ar      1 NAP602      0.0000 
     38 C3N        43.0060  -11.7000   23.4610 C.ar      1 NAP602      0.0000 
     39 C7N        43.5210  -11.6050   24.8720 C.2       1 NAP602      0.0000 
     40 O7N        44.6220  -11.0780   25.0890 O.2       1 NAP602      0.0000 
     41 N7N        42.7420  -12.0400   25.8420 N.am      1 NAP602      0.0000 
     42 C4N        43.8250  -11.4630   22.3620 C.ar      1 NAP602      0.0000 
     43 C5N        43.3440  -11.6750   21.0820 C.ar      1 NAP602      0.0000 
     44 C6N        42.0500  -12.1040   20.9100 C.ar      1 NAP602      0.0000 
     45 P2B        35.2850   -2.5920   14.5580 P.3       1 NAP602      0.0000 
     46 O1X        35.2840   -2.3560   16.0290 O.co2     1 NAP602      0.0000 
     47 O2X        34.6110   -1.4680   13.7780 O.co2     1 NAP602      0.0000 
     48 O3X        34.6250   -3.9000   14.1480 O.co2     1 NAP602      0.0000 
@<TRIPOS>BOND
     1    1    2 ar   
     2    1    3 ar   
     3    1    4 1    
     4    1   23 1    
     5    4    5 1    
     6    5    6 1    
     7    6    7 1    
     8    6    8 1    
     9    7   12 1    
    10    8    9 1    
    11    8   10 1    
    12   10   11 1    
    13   10   12 1    
    14   11   45 1    
    15   12   13 1    
    16   13   14 1    
    17   13   22 1    
    18   14   15 2    
    19   15   16 1    
    20   16   17 ar   
    21   16   22 ar   
    22   17   18 1    
    23   17   19 ar   
    24   19   20 ar   
    25   20   21 ar   
    26   21   22 ar   
    27   23   24 1    
    28   24   25 ar   
    29   24   26 ar   
    30   24   27 1    
    31   27   28 1    
    32   28   29 1    
    33   29   30 1    
    34   29   31 1    
    35   30   35 1    
    36   31   32 1    
    37   31   33 1    
    38   33   34 1    
    39   33   35 1    
    40   35   36 1    
    41   36   37 ar   
    42   36   44 ar   
    43   37   38 ar   
    44   38   39 1    
    45   38   42 ar   
    46   39   40 2    
    47   39   41 am   
    48   42   43 ar   
    49   43   44 ar   
    50   45   46 ar   
    51   45   47 ar   
    52   45   48 ar   
@<TRIPOS>SUBSTRUCTURE
     1 NAP602      1 GROUP   
@<TRIPOS>SET
ATOM$ORANGE STATIC     ATOMS   COLORGROUP SYSTEM 
42 5 5 6 6 8 8 10 10 12 12 14 14 16 16 17 17 20 \
20 22 22 28 28 29 29 31 31 33 33 35 35 37 37 38 38 39 \
39 42 42 43 43 44 44 

