#    Name: 6er9_3_FAD
#    Modification time : Fri May 22 19:34:27 2020

@<TRIPOS>MOLECULE
6er9_3_FAD
   53    58     1     0     1
SMALL
NO_CHARGES


@<TRIPOS>ATOM
      1 PA         40.2130  -23.7540   20.1240 P.3       1 FAD601      0.0000 
      2 O1A        41.5120  -23.4860   20.7720 O.co2     1 FAD601      0.0000 
      3 O2A        39.6650  -22.7160   19.1610 O.co2     1 FAD601      0.0000 
      4 O5B        40.3750  -25.1630   19.3240 O.3       1 FAD601      0.0000 
      5 C5B        39.4670  -25.4580   18.2400 C.3       1 FAD601      0.0000 
      6 C4B        40.1660  -26.3700   17.2600 C.3       1 FAD601      0.0000 
      7 O4B        39.1960  -27.0740   16.4500 O.3       1 FAD601      0.0000 
      8 C3B        41.1350  -25.6840   16.2840 C.3       1 FAD601      0.0000 
      9 O3B        42.4040  -26.3250   16.3100 O.3       1 FAD601      0.0000 
     10 C2B        40.4590  -25.8680   14.9210 C.3       1 FAD601      0.0000 
     11 O2B        41.4180  -25.9940   13.8790 O.3       1 FAD601      0.0000 
     12 C1B        39.7310  -27.1840   15.1490 C.3       1 FAD601      0.0000 
     13 N9A        38.6510  -27.4760   14.2110 N.pl3     1 FAD601      0.0000 
     14 C8A        37.4250  -26.8630   14.1270 C.2       1 FAD601      0.0000 
     15 N7A        36.6440  -27.3610   13.2030 N.2       1 FAD601      0.0000 
     16 C5A        37.4020  -28.3790   12.6320 C.ar      1 FAD601      0.0000 
     17 C6A        37.1420  -29.2970   11.6020 C.ar      1 FAD601      0.0000 
     18 N6A        35.9900  -29.3570   10.9300 N.pl3     1 FAD601      0.0000 
     19 N1A        38.1200  -30.1740   11.2810 N.ar      1 FAD601      0.0000 
     20 C2A        39.2740  -30.1260   11.9540 C.ar      1 FAD601      0.0000 
     21 N3A        39.6290  -29.3120   12.9500 N.ar      1 FAD601      0.0000 
     22 C4A        38.6430  -28.4500   13.2490 C.ar      1 FAD601      0.0000 
     23 N1         40.3380  -16.9360   26.7510 N.2       1 FAD601      0.0000 
     24 C2         40.6060  -16.7270   28.0690 C.2       1 FAD601      0.0000 
     25 O2         39.8720  -17.1850   28.9580 O.2       1 FAD601      0.0000 
     26 N3         41.7440  -16.0270   28.4410 N.am      1 FAD601      0.0000 
     27 C4         42.6930  -15.5020   27.5820 C.2       1 FAD601      0.0000 
     28 O4         43.6660  -14.9040   28.0390 O.2       1 FAD601      0.0000 
     29 C4X        42.4070  -15.7490   26.1640 C.2       1 FAD601      0.0000 
     30 N5         43.2570  -15.3120   25.2750 N.2       1 FAD601      0.0000 
     31 C5X        42.9810  -15.5570   23.9350 C.ar      1 FAD601      0.0000 
     32 C6         43.8770  -15.1020   22.9640 C.ar      1 FAD601      0.0000 
     33 C7         43.6380  -15.3090   21.6090 C.ar      1 FAD601      0.0000 
     34 C7M        44.6480  -14.8410   20.5940 C.3       1 FAD601      0.0000 
     35 C8         42.4660  -15.9730   21.2060 C.ar      1 FAD601      0.0000 
     36 C8M        42.1350  -16.1390   19.7460 C.3       1 FAD601      0.0000 
     37 C9         41.5790  -16.4450   22.1720 C.ar      1 FAD601      0.0000 
     38 C9A        41.8310  -16.2500   23.5220 C.ar      1 FAD601      0.0000 
     39 N10        40.9580  -16.7250   24.5260 N.pl3     1 FAD601      0.0000 
     40 C10        41.1990  -16.4820   25.8530 C.2       1 FAD601      0.0000 
     41 C1'        39.7860  -17.5490   24.1850 C.3       1 FAD601      0.0000 
     42 C2'        39.7420  -19.0410   24.5040 C.3       1 FAD601      0.0000 
     43 O2'        40.0990  -19.3190   25.8600 O.3       1 FAD601      0.0000 
     44 C3'        40.7140  -19.8120   23.6200 C.3       1 FAD601      0.0000 
     45 O3'        40.2930  -19.6190   22.2760 O.3       1 FAD601      0.0000 
     46 C4'        40.7360  -21.2980   23.9800 C.3       1 FAD601      0.0000 
     47 O4'        41.9830  -21.8630   23.5770 O.3       1 FAD601      0.0000 
     48 C5'        39.5470  -22.0660   23.4380 C.3       1 FAD601      0.0000 
     49 O5'        39.8210  -23.4760   23.5790 O.3       1 FAD601      0.0000 
     50 P          39.0160  -24.5750   22.6640 P.3       1 FAD601      0.0000 
     51 O1P        39.7280  -25.8660   22.7740 O.co2     1 FAD601      0.0000 
     52 O2P        37.5400  -24.6070   23.0680 O.co2     1 FAD601      0.0000 
     53 O3P        39.0520  -24.0020   21.1810 O.3       1 FAD601      0.0000 
@<TRIPOS>BOND
     1    1    2 ar   
     2    1    3 ar   
     3    1    4 1    
     4    1   53 1    
     5    4    5 1    
     6    5    6 1    
     7    6    7 1    
     8    6    8 1    
     9    7   12 1    
    10    8    9 1    
    11    8   10 1    
    12   10   11 1    
    13   10   12 1    
    14   12   13 1    
    15   13   14 1    
    16   13   22 1    
    17   14   15 2    
    18   15   16 1    
    19   16   17 ar   
    20   16   22 ar   
    21   17   18 1    
    22   17   19 ar   
    23   19   20 ar   
    24   20   21 ar   
    25   21   22 ar   
    26   23   24 1    
    27   23   40 2    
    28   24   25 2    
    29   24   26 am   
    30   26   27 am   
    31   27   28 2    
    32   27   29 1    
    33   29   30 2    
    34   29   40 1    
    35   30   31 1    
    36   31   32 ar   
    37   31   38 ar   
    38   32   33 ar   
    39   33   34 1    
    40   33   35 ar   
    41   35   36 1    
    42   35   37 ar   
    43   37   38 ar   
    44   38   39 1    
    45   39   40 1    
    46   39   41 1    
    47   41   42 1    
    48   42   43 1    
    49   42   44 1    
    50   44   45 1    
    51   44   46 1    
    52   46   47 1    
    53   46   48 1    
    54   48   49 1    
    55   49   50 1    
    56   50   51 ar   
    57   50   52 ar   
    58   50   53 1    
@<TRIPOS>SUBSTRUCTURE
     1 FAD601      1 GROUP   
@<TRIPOS>SET
ATOM$ORANGE STATIC     ATOMS   COLORGROUP SYSTEM 
54 5 5 6 6 8 8 10 10 12 12 14 14 16 16 17 17 20 \
20 22 22 24 24 27 27 29 29 31 31 32 32 33 33 34 34 35 \
35 36 36 37 37 38 38 40 40 41 41 42 42 44 44 46 46 48 \
48 

