#    Name: 6er9_1_FAD
#    Modification time : Fri May 22 19:34:14 2020

@<TRIPOS>MOLECULE
6er9_1_FAD
   53    58     1     0     1
SMALL
NO_CHARGES


@<TRIPOS>ATOM
      1 PA          1.8700   15.0640   75.9670 P.3       1 FAD601      0.0000 
      2 O1A         0.9790   15.3150   74.8200 O.co2     1 FAD601      0.0000 
      3 O2A         3.3730   15.3190   75.7310 O.co2     1 FAD601      0.0000 
      4 O5B         1.3640   16.0140   77.1650 O.3       1 FAD601      0.0000 
      5 C5B         2.2630   16.2310   78.2660 C.3       1 FAD601      0.0000 
      6 C4B         1.9100   17.5830   78.8260 C.3       1 FAD601      0.0000 
      7 O4B         2.4140   17.6890   80.1740 O.3       1 FAD601      0.0000 
      8 C3B         2.4850   18.7740   78.0360 C.3       1 FAD601      0.0000 
      9 O3B         1.4650   19.6660   77.5910 O.3       1 FAD601      0.0000 
     10 C2B         3.4170   19.4700   79.0390 C.3       1 FAD601      0.0000 
     11 O2B         3.2760   20.8770   78.8740 O.3       1 FAD601      0.0000 
     12 C1B         2.8240   19.0210   80.3780 C.3       1 FAD601      0.0000 
     13 N9A         3.7540   19.0530   81.5070 N.pl3     1 FAD601      0.0000 
     14 C8A         4.9040   18.3260   81.6650 C.2       1 FAD601      0.0000 
     15 N7A         5.5470   18.5850   82.7830 N.2       1 FAD601      0.0000 
     16 C5A         4.7620   19.5410   83.3990 C.ar      1 FAD601      0.0000 
     17 C6A         4.8770   20.2250   84.6330 C.ar      1 FAD601      0.0000 
     18 N6A         5.9230   20.1030   85.4600 N.pl3     1 FAD601      0.0000 
     19 N1A         3.8920   21.0830   84.9720 N.ar      1 FAD601      0.0000 
     20 C2A         2.8760   21.2640   84.1240 C.ar      1 FAD601      0.0000 
     21 N3A         2.6700   20.6980   82.9310 N.ar      1 FAD601      0.0000 
     22 C4A         3.6470   19.8410   82.6290 C.ar      1 FAD601      0.0000 
     23 N1          2.0280    8.9690   68.8100 N.2       1 FAD601      0.0000 
     24 C2          1.3230    8.0660   68.1040 C.2       1 FAD601      0.0000 
     25 O2          0.8900    7.0390   68.6380 O.2       1 FAD601      0.0000 
     26 N3          1.0700    8.2890   66.7640 N.am      1 FAD601      0.0000 
     27 C4          1.4710    9.3950   66.0340 C.2       1 FAD601      0.0000 
     28 O4          1.1450    9.5090   64.8550 O.2       1 FAD601      0.0000 
     29 C4X         2.2360   10.3550   66.7980 C.2       1 FAD601      0.0000 
     30 N5          2.6950   11.4120   66.1820 N.2       1 FAD601      0.0000 
     31 C5X         3.4720   12.3130   66.9150 C.ar      1 FAD601      0.0000 
     32 C6          3.9320   13.4690   66.2910 C.ar      1 FAD601      0.0000 
     33 C7          4.7000   14.4000   66.9850 C.ar      1 FAD601      0.0000 
     34 C7M         5.0680   15.7020   66.3220 C.3       1 FAD601      0.0000 
     35 C8          5.0490   14.1480   68.3230 C.ar      1 FAD601      0.0000 
     36 C8M         5.9380   15.1020   69.0800 C.3       1 FAD601      0.0000 
     37 C9          4.5750   13.0010   68.9520 C.ar      1 FAD601      0.0000 
     38 C9A         3.7670   12.0890   68.2640 C.ar      1 FAD601      0.0000 
     39 N10         3.2180   10.9470   68.9020 N.pl3     1 FAD601      0.0000 
     40 C10         2.4610   10.0530   68.1910 C.2       1 FAD601      0.0000 
     41 C1'         3.3660   10.6040   70.3200 C.3       1 FAD601      0.0000 
     42 C2'         2.2340   10.6020   71.3490 C.3       1 FAD601      0.0000 
     43 O2'         0.9760   10.1550   70.8400 O.3       1 FAD601      0.0000 
     44 C3'         1.9910   12.0180   71.8430 C.3       1 FAD601      0.0000 
     45 O3'         3.2470   12.4530   72.3490 O.3       1 FAD601      0.0000 
     46 C4'         0.8350   12.0230   72.8500 C.3       1 FAD601      0.0000 
     47 O4'        -0.0640   13.0860   72.5370 O.3       1 FAD601      0.0000 
     48 C5'         1.2460   11.9590   74.3080 C.3       1 FAD601      0.0000 
     49 O5'         0.1350   12.3540   75.1300 O.3       1 FAD601      0.0000 
     50 P           0.4530   12.6230   76.6630 P.3       1 FAD601      0.0000 
     51 O1P        -0.7840   13.1890   77.2490 O.co2     1 FAD601      0.0000 
     52 O2P         0.9230   11.3270   77.3680 O.co2     1 FAD601      0.0000 
     53 O3P         1.6910   13.6300   76.6430 O.3       1 FAD601      0.0000 
@<TRIPOS>BOND
     1    1    2 ar   
     2    1    3 ar   
     3    1    4 1    
     4    1   53 1    
     5    4    5 1    
     6    5    6 1    
     7    6    7 1    
     8    6    8 1    
     9    7   12 1    
    10    8    9 1    
    11    8   10 1    
    12   10   11 1    
    13   10   12 1    
    14   12   13 1    
    15   13   14 1    
    16   13   22 1    
    17   14   15 2    
    18   15   16 1    
    19   16   17 ar   
    20   16   22 ar   
    21   17   18 1    
    22   17   19 ar   
    23   19   20 ar   
    24   20   21 ar   
    25   21   22 ar   
    26   23   24 1    
    27   23   40 2    
    28   24   25 2    
    29   24   26 am   
    30   26   27 am   
    31   27   28 2    
    32   27   29 1    
    33   29   30 2    
    34   29   40 1    
    35   30   31 1    
    36   31   32 ar   
    37   31   38 ar   
    38   32   33 ar   
    39   33   34 1    
    40   33   35 ar   
    41   35   36 1    
    42   35   37 ar   
    43   37   38 ar   
    44   38   39 1    
    45   39   40 1    
    46   39   41 1    
    47   41   42 1    
    48   42   43 1    
    49   42   44 1    
    50   44   45 1    
    51   44   46 1    
    52   46   47 1    
    53   46   48 1    
    54   48   49 1    
    55   49   50 1    
    56   50   51 ar   
    57   50   52 ar   
    58   50   53 1    
@<TRIPOS>SUBSTRUCTURE
     1 FAD601      1 GROUP   
@<TRIPOS>SET
ATOM$ORANGE STATIC     ATOMS   COLORGROUP SYSTEM 
54 5 5 6 6 8 8 10 10 12 12 14 14 16 16 17 17 20 \
20 22 22 24 24 27 27 29 29 31 31 32 32 33 33 34 34 35 \
35 36 36 37 37 38 38 40 40 41 41 42 42 44 44 46 46 48 \
48 

