#    Name: 6er9_2_NAP
#    Modification time : Fri May 22 19:34:21 2020

@<TRIPOS>MOLECULE
6er9_2_NAP
   48    52     1     0     1
SMALL
NO_CHARGES


@<TRIPOS>ATOM
      1 PA         14.6760   12.7380   66.8710 P.3       1 NAP602      0.0000 
      2 O1A        14.2450   11.4350   66.3190 O.co2     1 NAP602      0.0000 
      3 O2A        15.5000   12.5880   68.1410 O.co2     1 NAP602      0.0000 
      4 O5B        15.5300   13.6220   65.8100 O.3       1 NAP602      0.0000 
      5 C5B        16.5160   14.5740   66.2500 C.3       1 NAP602      0.0000 
      6 C4B        17.3320   14.9690   65.0450 C.3       1 NAP602      0.0000 
      7 O4B        18.2610   16.0140   65.4110 O.3       1 NAP602      0.0000 
      8 C3B        18.1740   13.8450   64.4340 C.3       1 NAP602      0.0000 
      9 O3B        18.2510   13.9710   63.0170 O.3       1 NAP602      0.0000 
     10 C2B        19.5300   14.0700   65.0940 C.3       1 NAP602      0.0000 
     11 O2B        20.6290   13.4470   64.3960 O.3       1 NAP602      0.0000 
     12 C1B        19.5820   15.5940   65.1290 C.3       1 NAP602      0.0000 
     13 N9A        20.4640   16.1210   66.1770 N.pl3     1 NAP602      0.0000 
     14 C8A        20.3770   15.8740   67.5230 C.2       1 NAP602      0.0000 
     15 N7A        21.3010   16.4880   68.2220 N.2       1 NAP602      0.0000 
     16 C5A        22.0430   17.1790   67.2860 C.ar      1 NAP602      0.0000 
     17 C6A        23.1760   18.0040   67.3780 C.ar      1 NAP602      0.0000 
     18 N6A        23.8220   18.2450   68.5230 N.pl3     1 NAP602      0.0000 
     19 N1A        23.6710   18.5290   66.2370 N.ar      1 NAP602      0.0000 
     20 C2A        23.0780   18.2240   65.0780 C.ar      1 NAP602      0.0000 
     21 N3A        22.0120   17.4520   64.8590 N.ar      1 NAP602      0.0000 
     22 C4A        21.5290   16.9560   66.0050 C.ar      1 NAP602      0.0000 
     23 O3         13.4200   13.6680   67.1530 O.3       1 NAP602      0.0000 
     24 PN         12.1950   14.1340   66.2420 P.3       1 NAP602      0.0000 
     25 O1N        12.5480   13.9970   64.8130 O.co2     1 NAP602      0.0000 
     26 O2N        11.7370   15.4500   66.7440 O.co2     1 NAP602      0.0000 
     27 O5D        11.1540   12.9660   66.5610 O.3       1 NAP602      0.0000 
     28 C5D        11.2660   12.2160   67.7950 C.3       1 NAP602      0.0000 
     29 C4D        10.1210   11.2410   67.9110 C.3       1 NAP602      0.0000 
     30 O4D         8.8700   11.9660   67.9960 O.3       1 NAP602      0.0000 
     31 C3D         9.9280   10.2880   66.7330 C.3       1 NAP602      0.0000 
     32 O3D        10.7790    9.1450   66.7520 O.3       1 NAP602      0.0000 
     33 C2D         8.4540    9.9120   66.8870 C.3       1 NAP602      0.0000 
     34 O2D         8.2330    8.9450   67.9090 O.3       1 NAP602      0.0000 
     35 C1D         7.8590   11.2540   67.3200 C.3       1 NAP602      0.0000 
     36 N1N         7.3840   12.0930   66.1350 N.pl3     1 NAP602      0.0000 
     37 C2N         6.4210   11.5020   65.4060 C.ar      1 NAP602      0.0000 
     38 C3N         5.9460   12.1110   64.2620 C.ar      1 NAP602      0.0000 
     39 C7N         4.8430   11.4540   63.4800 C.2       1 NAP602      0.0000 
     40 O7N         4.5390   11.8970   62.3650 O.2       1 NAP602      0.0000 
     41 N7N         4.2910   10.3640   63.9860 N.am      1 NAP602      0.0000 
     42 C4N         6.4760   13.3440   63.8960 C.ar      1 NAP602      0.0000 
     43 C5N         7.4590   13.9320   64.6710 C.ar      1 NAP602      0.0000 
     44 C6N         7.9030   13.2880   65.7970 C.ar      1 NAP602      0.0000 
     45 P2B        21.2680   12.0160   64.8800 P.3       1 NAP602      0.0000 
     46 O1X        20.4090   10.8540   64.5170 O.co2     1 NAP602      0.0000 
     47 O2X        22.6500   12.0040   64.1860 O.co2     1 NAP602      0.0000 
     48 O3X        21.5530   12.0770   66.3680 O.co2     1 NAP602      0.0000 
@<TRIPOS>BOND
     1    1    2 ar   
     2    1    3 ar   
     3    1    4 1    
     4    1   23 1    
     5    4    5 1    
     6    5    6 1    
     7    6    7 1    
     8    6    8 1    
     9    7   12 1    
    10    8    9 1    
    11    8   10 1    
    12   10   11 1    
    13   10   12 1    
    14   11   45 1    
    15   12   13 1    
    16   13   14 1    
    17   13   22 1    
    18   14   15 2    
    19   15   16 1    
    20   16   17 ar   
    21   16   22 ar   
    22   17   18 1    
    23   17   19 ar   
    24   19   20 ar   
    25   20   21 ar   
    26   21   22 ar   
    27   23   24 1    
    28   24   25 ar   
    29   24   26 ar   
    30   24   27 1    
    31   27   28 1    
    32   28   29 1    
    33   29   30 1    
    34   29   31 1    
    35   30   35 1    
    36   31   32 1    
    37   31   33 1    
    38   33   34 1    
    39   33   35 1    
    40   35   36 1    
    41   36   37 ar   
    42   36   44 ar   
    43   37   38 ar   
    44   38   39 1    
    45   38   42 ar   
    46   39   40 2    
    47   39   41 am   
    48   42   43 ar   
    49   43   44 ar   
    50   45   46 ar   
    51   45   47 ar   
    52   45   48 ar   
@<TRIPOS>SUBSTRUCTURE
     1 NAP602      1 GROUP   
@<TRIPOS>SET
ATOM$ORANGE STATIC     ATOMS   COLORGROUP SYSTEM 
42 5 5 6 6 8 8 10 10 12 12 14 14 16 16 17 17 20 \
20 22 22 28 28 29 29 31 31 33 33 35 35 37 37 38 38 39 \
39 42 42 43 43 44 44 

