#    Name: 6fkj_5_ACP
#    Modification time : Fri May 22 19:30:16 2020

@<TRIPOS>MOLECULE
6fkj_5_ACP
   31    33     1     0     1
SMALL
NO_CHARGES


@<TRIPOS>ATOM
      1 PG          7.9130   49.4430   94.2190 P.3       1 ACP402      0.0000 
      2 O1G         8.6260   49.7010   92.9450 O.co2     1 ACP402      0.0000 
      3 O2G         6.5670   48.6170   93.8970 O.co2     1 ACP402      0.0000 
      4 O3G         7.5030   50.8370   94.9140 O.co2     1 ACP402      0.0000 
      5 PB         10.5750   49.3320   95.6060 P.3       1 ACP402      0.0000 
      6 O1B        10.6380   50.7100   94.7770 O.co2     1 ACP402      0.0000 
      7 O2B        11.6490   48.4430   95.0980 O.co2     1 ACP402      0.0000 
      8 C3B         8.9740   48.5050   95.3610 C.3       1 ACP402      0.0000 
      9 PA         10.0140   50.7500   97.9950 P.3       1 ACP402      0.0000 
     10 O1A         8.7920   51.1290   97.1890 O.co2     1 ACP402      0.0000 
     11 O2A        10.9850   51.8180   98.4420 O.co2     1 ACP402      0.0000 
     12 O3A        10.8290   49.6160   97.1770 O.3       1 ACP402      0.0000 
     13 O5'         9.5110   50.0060   99.3300 O.3       1 ACP402      0.0000 
     14 C5'         8.9080   48.7160   99.2660 C.3       1 ACP402      0.0000 
     15 C4'         8.1100   48.4610  100.5380 C.3       1 ACP402      0.0000 
     16 O4'         8.8220   48.9160  101.6920 O.3       1 ACP402      0.0000 
     17 C3'         6.8030   49.2280  100.5360 C.3       1 ACP402      0.0000 
     18 O3'         5.7470   48.4380   99.9740 O.3       1 ACP402      0.0000 
     19 C2'         6.5630   49.5600  101.9980 C.3       1 ACP402      0.0000 
     20 O2'         5.6940   48.5820  102.5690 O.3       1 ACP402      0.0000 
     21 C1'         7.9170   49.4410  102.6690 C.3       1 ACP402      0.0000 
     22 N9          8.4030   50.7720  103.1060 N.pl3     1 ACP402      0.0000 
     23 C8          9.2150   51.5710  102.3910 C.2       1 ACP402      0.0000 
     24 N7          9.4950   52.7220  103.0570 N.2       1 ACP402      0.0000 
     25 C5          8.8510   52.6680  104.2350 C.ar      1 ACP402      0.0000 
     26 C6          8.7210   53.5560  105.4150 C.ar      1 ACP402      0.0000 
     27 N6          9.3470   54.7600  105.4690 N.pl3     1 ACP402      0.0000 
     28 N1          7.9560   53.1200  106.4400 N.ar      1 ACP402      0.0000 
     29 C2          7.3270   51.9300  106.3950 C.ar      1 ACP402      0.0000 
     30 N3          7.3990   51.0740  105.3580 N.ar      1 ACP402      0.0000 
     31 C4          8.1360   51.3800  104.2650 C.ar      1 ACP402      0.0000 
@<TRIPOS>BOND
     1    1    2 ar   
     2    1    3 ar   
     3    1    4 ar   
     4    1    8 1    
     5    5    6 ar   
     6    5    7 ar   
     7    5    8 1    
     8    5   12 1    
     9    9   10 ar   
    10    9   11 ar   
    11    9   12 1    
    12    9   13 1    
    13   13   14 1    
    14   14   15 1    
    15   15   16 1    
    16   15   17 1    
    17   16   21 1    
    18   17   18 1    
    19   17   19 1    
    20   19   20 1    
    21   19   21 1    
    22   21   22 1    
    23   22   23 1    
    24   22   31 1    
    25   23   24 2    
    26   24   25 1    
    27   25   26 ar   
    28   25   31 ar   
    29   26   27 1    
    30   26   28 ar   
    31   28   29 ar   
    32   29   30 ar   
    33   30   31 ar   
@<TRIPOS>SUBSTRUCTURE
     1 ACP402      1 GROUP   
@<TRIPOS>SET
ATOM$ORANGE STATIC     ATOMS   COLORGROUP SYSTEM 
22 8 8 14 14 15 15 17 17 19 19 21 21 23 23 25 25 26 \
26 29 29 31 31 

