#    Name: 6fkj_2_GDP_CAVITY_N1_12
#    Modification time : Fri May 22 19:30:10 2020

@<TRIPOS>MOLECULE
6fkj_2_GDP_CAVITY_N1_12
   79     0     6     0     0
SMALL
NO_CHARGES


@<TRIPOS>ATOM
      1 OG         11.4600   53.5800    7.7100 O.3       1 SER1        0.0000 
      2 OG         12.9300   53.6200    9.2300 O.3       1 SER1        0.0000 
      3 OG         11.5900   54.2500    9.0400 O.3       1 SER1        0.0000 
      4 OG         10.2400   54.8900    8.8600 O.3       1 SER1        0.0000 
      5 OG         10.3700   55.5600   10.1900 O.3       1 SER1        0.0000 
      6 N           9.9000   49.8800    6.3400 N.am      2 ALA2        0.0000 
      7 N          11.9400   47.4300    7.3700 N.am      2 ALA2        0.0000 
      8 N          10.0300   50.5500    7.6800 N.am      2 ALA2        0.0000 
      9 N           8.6800   51.1800    7.4900 N.am      2 ALA2        0.0000 
     10 N          12.0700   48.1000    8.7100 N.am      2 ALA2        0.0000 
     11 N          10.7300   48.7300    8.5200 N.am      2 ALA2        0.0000 
     12 N           9.3800   49.3700    8.3300 N.am      2 ALA2        0.0000 
     13 O          13.5000   51.1300    8.7300 O.2       2 ALA2        0.0000 
     14 O          12.1600   51.7600    8.5500 O.2       2 ALA2        0.0000 
     15 O          14.2000   49.3100    9.5800 O.2       2 ALA2        0.0000 
     16 O          12.8500   49.9500    9.3900 O.2       2 ALA2        0.0000 
     17 O          11.5100   50.5800    9.2000 O.2       2 ALA2        0.0000 
     18 N          10.1600   51.2200    9.0200 N.am      2 ALA2        0.0000 
     19 N           8.8100   51.8500    8.8300 N.am      2 ALA2        0.0000 
     20 O          12.2000   48.7600   10.0400 O.2       2 ALA2        0.0000 
     21 O          10.8600   49.4000    9.8600 O.2       2 ALA2        0.0000 
     22 N           9.5100   50.0300    9.6700 N.am      2 ALA2        0.0000 
     23 N          10.2100   48.2200   10.5100 N.am      2 ALA2        0.0000 
     24 N           8.8600   48.8500   10.3300 N.am      2 ALA2        0.0000 
     25 O          13.6300   51.8000   10.0700 O.2       2 ALA2        0.0000 
     26 O          12.2900   52.4300    9.8800 O.2       2 ALA2        0.0000 
     27 O          10.9400   53.0700    9.7000 O.2       2 ALA2        0.0000 
     28 O          10.2900   51.8900   10.3500 O.2       2 ALA2        0.0000 
     29 N           8.9400   52.5200   10.1700 N.am      2 ALA2        0.0000 
     30 O           9.6400   50.7000   11.0100 O.2       2 ALA2        0.0000 
     31 N           8.3000   51.3400   10.8200 N.am      2 ALA2        0.0000 
     32 N           6.9500   51.9700   10.6300 N.am      2 ALA2        0.0000 
     33 N          11.6800   48.2500   12.0400 N.am      2 ALA2        0.0000 
     34 O          10.3400   48.8800   11.8500 O.2       2 ALA2        0.0000 
     35 N           8.9900   49.5200   11.6600 N.am      2 ALA2        0.0000 
     36 N           7.6500   50.1500   11.4800 N.am      2 ALA2        0.0000 
     37 O          11.7200   54.9200   10.3800 O.2       2 ALA2        0.0000 
     38 O           8.3800   55.0100   10.6600 O.2       2 ALA2        0.0000 
     39 O          10.4200   52.5500   11.6900 O.2       2 ALA2        0.0000 
     40 O           9.0700   53.1900   11.5000 O.2       2 ALA2        0.0000 
     41 O           9.7700   51.3700   12.3400 O.2       2 ALA2        0.0000 
     42 O           8.4300   52.0100   12.1600 O.2       2 ALA2        0.0000 
     43 O          10.4700   49.5500   13.1900 O.2       2 ALA2        0.0000 
     44 O           9.1200   50.1900   13.0000 O.2       2 ALA2        0.0000 
     45 N           9.9000   52.0400   13.6800 N.am      2 ALA2        0.0000 
     46 N           8.5600   52.6700   13.4900 N.am      2 ALA2        0.0000 
     47 NZ         13.8900   50.9800    5.4100 N.4       3 LYS4        0.0000 
     48 NZ         13.2400   49.7900    6.0600 N.4       3 LYS4        0.0000 
     49 NZ         11.8900   50.4300    5.8700 N.4       3 LYS4        0.0000 
     50 NZ         10.5500   51.0600    5.6900 N.4       3 LYS4        0.0000 
     51 NZ         12.5900   48.6100    6.7200 N.4       3 LYS4        0.0000 
     52 NZ         11.2500   49.2400    6.5300 N.4       3 LYS4        0.0000 
     53 NZ         14.7200   49.8300    7.5800 N.4       3 LYS4        0.0000 
     54 NZ         15.5000   51.6800    8.2700 N.4       3 LYS4        0.0000 
     55 NZ         14.8500   50.4900    8.9200 N.4       3 LYS4        0.0000 
     56 CZ          7.7800   50.8200   12.8100 C.ar      4 PHE5        0.0000 
     57 CZ          9.8200   48.3700   13.8400 C.ar      4 PHE5        0.0000 
     58 CZ          8.4700   49.0000   13.6500 C.ar      4 PHE5        0.0000 
     59 CA         14.5400   52.1600    4.7500 C.3       5 GLY6        0.0000 
     60 CA         15.3700   51.0100    6.9300 C.3       5 GLY6        0.0000 
     61 CA         14.0200   51.6400    6.7400 C.3       5 GLY6        0.0000 
     62 CA         14.1500   52.3100    8.0800 C.3       5 GLY6        0.0000 
     63 CA         12.8000   52.9500    7.8900 C.3       5 GLY6        0.0000 
     64 DU         15.2400   50.3400    5.5900 H         6 CUB7        0.0000 
     65 DU         14.5900   49.1600    6.2500 H         6 CUB7        0.0000 
     66 DU         13.9400   47.9700    6.9000 H         6 CUB7        0.0000 
     67 DU         12.6700   52.2800    6.5600 H         6 CUB7        0.0000 
     68 DU         11.3300   52.9100    6.3700 H         6 CUB7        0.0000 
     69 DU         13.3700   50.4600    7.4000 H         6 CUB7        0.0000 
     70 DU         12.0200   51.1000    7.2100 H         6 CUB7        0.0000 
     71 DU         10.6800   51.7300    7.0200 H         6 CUB7        0.0000 
     72 DU         14.0700   48.6400    8.2400 H         6 CUB7        0.0000 
     73 DU         12.7200   49.2800    8.0500 H         6 CUB7        0.0000 
     74 DU         11.3800   49.9100    7.8700 H         6 CUB7        0.0000 
     75 DU         10.8100   52.4000    8.3600 H         6 CUB7        0.0000 
     76 DU          9.4600   53.0300    8.1700 H         6 CUB7        0.0000 
     77 DU          9.5900   53.7000    9.5100 H         6 CUB7        0.0000 
     78 DU          9.6900   47.7000   12.5000 H         6 CUB7        0.0000 
     79 DU          7.7300   53.8200   11.3200 H         6 CUB7        0.0000 
@<TRIPOS>BOND
@<TRIPOS>SUBSTRUCTURE
     1 SER1        1 GROUP   
     2 ALA2        6 GROUP   
     3 LYS4       47 GROUP   
     4 PHE5       56 GROUP   
     5 GLY6       59 GROUP   
     6 CUB7       64 GROUP   
@<TRIPOS>SET

