#    Name: 6fkj_2_GDP_CAVITY_N1_8
#    Modification time : Fri May 22 19:30:10 2020

@<TRIPOS>MOLECULE
6fkj_2_GDP_CAVITY_N1_8
   37     0     4     0     0
SMALL
NO_CHARGES


@<TRIPOS>ATOM
      1 O          13.5000   51.1300    8.7300 O.2       1 ALA2        0.0000 
      2 O          14.2000   49.3100    9.5800 O.2       1 ALA2        0.0000 
      3 O          12.8500   49.9500    9.3900 O.2       1 ALA2        0.0000 
      4 O          11.5100   50.5800    9.2000 O.2       1 ALA2        0.0000 
      5 O          12.2000   48.7600   10.0400 O.2       1 ALA2        0.0000 
      6 O          10.8600   49.4000    9.8600 O.2       1 ALA2        0.0000 
      7 N          10.2100   48.2200   10.5100 N.am      1 ALA2        0.0000 
      8 N           8.8600   48.8500   10.3300 N.am      1 ALA2        0.0000 
      9 O          13.6300   51.8000   10.0700 O.2       1 ALA2        0.0000 
     10 O          12.2900   52.4300    9.8800 O.2       1 ALA2        0.0000 
     11 O          10.2900   51.8900   10.3500 O.2       1 ALA2        0.0000 
     12 N           8.9400   52.5200   10.1700 N.am      1 ALA2        0.0000 
     13 O           9.6400   50.7000   11.0100 O.2       1 ALA2        0.0000 
     14 N           8.3000   51.3400   10.8200 N.am      1 ALA2        0.0000 
     15 N           6.9500   51.9700   10.6300 N.am      1 ALA2        0.0000 
     16 N          11.6800   48.2500   12.0400 N.am      1 ALA2        0.0000 
     17 O          10.3400   48.8800   11.8500 O.2       1 ALA2        0.0000 
     18 N           8.9900   49.5200   11.6600 N.am      1 ALA2        0.0000 
     19 N           7.6500   50.1500   11.4800 N.am      1 ALA2        0.0000 
     20 O          11.7200   54.9200   10.3800 O.2       1 ALA2        0.0000 
     21 O           8.3800   55.0100   10.6600 O.2       1 ALA2        0.0000 
     22 O          10.4200   52.5500   11.6900 O.2       1 ALA2        0.0000 
     23 O           9.0700   53.1900   11.5000 O.2       1 ALA2        0.0000 
     24 O           9.7700   51.3700   12.3400 O.2       1 ALA2        0.0000 
     25 O           8.4300   52.0100   12.1600 O.2       1 ALA2        0.0000 
     26 O          10.4700   49.5500   13.1900 O.2       1 ALA2        0.0000 
     27 O           9.1200   50.1900   13.0000 O.2       1 ALA2        0.0000 
     28 N           9.9000   52.0400   13.6800 N.am      1 ALA2        0.0000 
     29 N           8.5600   52.6700   13.4900 N.am      1 ALA2        0.0000 
     30 NZ         15.5000   51.6800    8.2700 N.4       2 LYS4        0.0000 
     31 NZ         14.8500   50.4900    8.9200 N.4       2 LYS4        0.0000 
     32 CZ          7.7800   50.8200   12.8100 C.ar      3 PHE5        0.0000 
     33 CZ          9.8200   48.3700   13.8400 C.ar      3 PHE5        0.0000 
     34 CZ          8.4700   49.0000   13.6500 C.ar      3 PHE5        0.0000 
     35 DU         14.0700   48.6400    8.2400 H         4 CUB7        0.0000 
     36 DU          9.6900   47.7000   12.5000 H         4 CUB7        0.0000 
     37 DU          7.7300   53.8200   11.3200 H         4 CUB7        0.0000 
@<TRIPOS>BOND
@<TRIPOS>SUBSTRUCTURE
     1 ALA2        1 GROUP   
     2 LYS4       30 GROUP   
     3 PHE5       32 GROUP   
     4 CUB7       35 GROUP   
@<TRIPOS>SET

