#    Name: 6fkj_2_GDP
#    Modification time : Fri May 22 19:30:08 2020

@<TRIPOS>MOLECULE
6fkj_2_GDP
   28    30     1     0     1
SMALL
NO_CHARGES


@<TRIPOS>ATOM
      1 PB         18.8050   49.2430   16.0280 P.3       1 GDP502      0.0000 
      2 O1B        18.4000   50.1620   14.9260 O.co2     1 GDP502      0.0000 
      3 O2B        19.3140   50.0180   17.2260 O.co2     1 GDP502      0.0000 
      4 O3B        19.8940   48.3110   15.5310 O.co2     1 GDP502      0.0000 
      5 O3A        17.5680   48.3210   16.4630 O.3       1 GDP502      0.0000 
      6 PA         16.1820   48.8430   17.1000 P.3       1 GDP502      0.0000 
      7 O1A        15.0490   48.7190   16.1210 O.co2     1 GDP502      0.0000 
      8 O2A        16.2640   50.2490   17.6300 O.co2     1 GDP502      0.0000 
      9 O5'        16.0810   47.7760   18.2840 O.3       1 GDP502      0.0000 
     10 C5'        15.0350   46.8230   18.3820 C.3       1 GDP502      0.0000 
     11 C4'        14.5140   46.8980   19.8000 C.3       1 GDP502      0.0000 
     12 O4'        13.9530   48.2010   19.9520 O.3       1 GDP502      0.0000 
     13 C3'        13.3730   45.9270   19.9970 C.3       1 GDP502      0.0000 
     14 O3'        13.3290   45.6050   21.3880 O.3       1 GDP502      0.0000 
     15 C2'        12.1400   46.7150   19.5940 C.3       1 GDP502      0.0000 
     16 O2'        10.9880   46.2660   20.3140 O.3       1 GDP502      0.0000 
     17 C1'        12.5260   48.1070   20.0340 C.3       1 GDP502      0.0000 
     18 N9         12.0400   49.2050   19.1870 N.pl3     1 GDP502      0.0000 
     19 C8         12.3270   49.4340   17.8940 C.2       1 GDP502      0.0000 
     20 N7         11.7480   50.5920   17.4830 N.2       1 GDP502      0.0000 
     21 C5         11.0830   51.1080   18.5400 C.2       1 GDP502      0.0000 
     22 C6         10.2650   52.3050   18.8130 C.2       1 GDP502      0.0000 
     23 O6         10.0370   53.1350   17.9120 O.2       1 GDP502      0.0000 
     24 N1          9.7780   52.4730   20.0500 N.am      1 GDP502      0.0000 
     25 C2         10.0000   51.5980   21.0430 C.2       1 GDP502      0.0000 
     26 N2          9.4590   51.8470   22.2630 N.pl3     1 GDP502      0.0000 
     27 N3         10.7440   50.4770   20.8660 N.2       1 GDP502      0.0000 
     28 C4         11.2920   50.1970   19.6600 C.2       1 GDP502      0.0000 
@<TRIPOS>BOND
     1    1    2 ar   
     2    1    3 ar   
     3    1    4 ar   
     4    1    5 1    
     5    5    6 1    
     6    6    7 ar   
     7    6    8 ar   
     8    6    9 1    
     9    9   10 1    
    10   10   11 1    
    11   11   12 1    
    12   11   13 1    
    13   12   17 1    
    14   13   14 1    
    15   13   15 1    
    16   15   16 1    
    17   15   17 1    
    18   17   18 1    
    19   18   19 1    
    20   18   28 1    
    21   19   20 2    
    22   20   21 1    
    23   21   22 1    
    24   21   28 2    
    25   22   23 2    
    26   22   24 am   
    27   24   25 1    
    28   25   26 1    
    29   25   27 2    
    30   27   28 1    
@<TRIPOS>SUBSTRUCTURE
     1 GDP502      1 GROUP   
@<TRIPOS>SET
ATOM$ORANGE STATIC     ATOMS   COLORGROUP SYSTEM 
20 10 10 11 11 13 13 15 15 17 17 19 19 21 21 22 22 25 \
25 28 28 

