#    Name: 6aui_1_DTP
#    Modification time : Fri May 22 19:29:08 2020

@<TRIPOS>MOLECULE
6aui_1_DTP
   30    32     1     0     0
SMALL
NO_CHARGES


@<TRIPOS>ATOM
      1 PG        227.0070  140.9630  158.5250 P.3       1 DTP801      0.0000 
      2 O1G       227.4270  139.7860  157.6880 O.co2     1 DTP801      0.0000 
      3 O2G       227.5390  140.7930  159.9240 O.co2     1 DTP801      0.0000 
      4 O3G       227.4410  142.2740  157.9280 O.co2     1 DTP801      0.0000 
      5 PB        224.8170  141.7590  159.9440 P.3       1 DTP801      0.0000 
      6 O1B       225.6700  142.9780  160.1920 O.co2     1 DTP801      0.0000 
      7 O2B       224.8320  140.7880  161.0940 O.co2     1 DTP801      0.0000 
      8 O3B       225.4170  140.9900  158.6810 O.3       1 DTP801      0.0000 
      9 PA        223.3800  142.9720  158.0260 P.3       1 DTP801      0.0000 
     10 O1A       223.3170  141.9870  156.8930 O.co2     1 DTP801      0.0000 
     11 O2A       224.6920  143.6940  157.8780 O.co2     1 DTP801      0.0000 
     12 O3A       223.3760  142.2320  159.4440 O.3       1 DTP801      0.0000 
     13 O5'       222.1670  143.9970  157.8320 O.3       1 DTP801      0.0000 
     14 C5'       220.8560  143.5270  157.5590 C.3       1 DTP801      0.0000 
     15 C4'       219.8740  144.6550  157.2920 C.3       1 DTP801      0.0000 
     16 O4'       219.7450  145.4290  158.4740 O.3       1 DTP801      0.0000 
     17 C3'       220.3060  145.5600  156.1510 C.3       1 DTP801      0.0000 
     18 O3'       219.1810  145.9570  155.3650 O.3       1 DTP801      0.0000 
     19 C2'       220.9010  146.7660  156.8560 C.3       1 DTP801      0.0000 
     20 C1'       220.1590  146.7580  158.1810 C.3       1 DTP801      0.0000 
     21 N9        221.0700  147.2410  159.2460 N.pl3     1 DTP801      0.0000 
     22 C8        222.3410  146.8620  159.3960 C.2       1 DTP801      0.0000 
     23 N7        222.8710  147.4930  160.4610 N.2       1 DTP801      0.0000 
     24 C5        221.9100  148.2690  160.9740 C.ar      1 DTP801      0.0000 
     25 C6        221.8740  149.1310  162.0530 C.ar      1 DTP801      0.0000 
     26 N6        222.9790  149.3020  162.8160 N.pl3     1 DTP801      0.0000 
     27 N1        220.7330  149.7890  162.3200 N.ar      1 DTP801      0.0000 
     28 C2        219.6460  149.6160  161.5600 C.ar      1 DTP801      0.0000 
     29 N3        219.6600  148.7870  160.5170 N.ar      1 DTP801      0.0000 
     30 C4        220.7800  148.1090  160.2080 C.ar      1 DTP801      0.0000 
@<TRIPOS>BOND
     1    1    2 ar   
     2    1    3 ar   
     3    1    4 ar   
     4    1    8 1    
     5    5    6 ar   
     6    5    7 ar   
     7    5    8 1    
     8    5   12 1    
     9    9   10 ar   
    10    9   11 ar   
    11    9   12 1    
    12    9   13 1    
    13   13   14 1    
    14   14   15 1    
    15   15   16 1    
    16   15   17 1    
    17   16   20 1    
    18   17   18 1    
    19   17   19 1    
    20   19   20 1    
    21   20   21 1    
    22   21   22 1    
    23   21   30 1    
    24   22   23 2    
    25   23   24 1    
    26   24   25 ar   
    27   24   30 ar   
    28   25   26 1    
    29   25   27 ar   
    30   27   28 ar   
    31   28   29 ar   
    32   29   30 ar   
@<TRIPOS>SUBSTRUCTURE
     1 DTP801      1 GROUP   
@<TRIPOS>SET

