#    Name: 6aui_17_CDP
#    Modification time : Fri May 22 19:34:20 2020

@<TRIPOS>MOLECULE
6aui_17_CDP
   25    26     1     0     1
SMALL
NO_CHARGES


@<TRIPOS>ATOM
      1 O3B       166.0420  214.7550  142.9810 O.co2     1 CDP805      0.0000 
      2 PB        166.2490  214.9780  141.5090 P.3       1 CDP805      0.0000 
      3 O1B       165.1750  214.3130  140.6920 O.co2     1 CDP805      0.0000 
      4 O2B       166.4000  216.4350  141.1680 O.co2     1 CDP805      0.0000 
      5 O3A       167.6330  214.2840  141.1310 O.3       1 CDP805      0.0000 
      6 PA        167.8690  213.9320  139.5950 P.3       1 CDP805      0.0000 
      7 O1A       167.6020  215.1930  138.8210 O.co2     1 CDP805      0.0000 
      8 O2A       167.1380  212.6530  139.2870 O.co2     1 CDP805      0.0000 
      9 O5'       169.4400  213.6430  139.5560 O.3       1 CDP805      0.0000 
     10 C5'       170.2920  214.7200  139.2040 C.3       1 CDP805      0.0000 
     11 C4'       171.4060  214.8610  140.2260 C.3       1 CDP805      0.0000 
     12 O4'       170.8990  214.6470  141.5440 O.3       1 CDP805      0.0000 
     13 C3'       172.4760  213.8210  140.0080 C.3       1 CDP805      0.0000 
     14 O3'       173.5510  214.3440  139.2310 O.3       1 CDP805      0.0000 
     15 C2'       172.9510  213.5060  141.3980 C.3       1 CDP805      0.0000 
     16 O2'       174.0330  214.3850  141.6860 O.3       1 CDP805      0.0000 
     17 C1'       171.7930  213.8450  142.3130 C.3       1 CDP805      0.0000 
     18 N1        171.1430  212.6410  142.8370 N.am      1 CDP805      0.0000 
     19 C2        171.3790  212.2840  144.1700 C.2       1 CDP805      0.0000 
     20 O2        172.1300  212.9890  144.8680 O.2       1 CDP805      0.0000 
     21 N3        170.8080  211.1920  144.7040 N.2       1 CDP805      0.0000 
     22 C4        169.9970  210.4240  143.9620 C.2       1 CDP805      0.0000 
     23 N4        169.4280  209.3260  144.5080 N.pl3     1 CDP805      0.0000 
     24 C5        169.7460  210.7560  142.6430 C.2       1 CDP805      0.0000 
     25 C6        170.3350  211.8840  142.0980 C.2       1 CDP805      0.0000 
@<TRIPOS>BOND
     1    1    2 ar   
     2    2    3 ar   
     3    2    4 ar   
     4    2    5 1    
     5    5    6 1    
     6    6    7 ar   
     7    6    8 ar   
     8    6    9 1    
     9    9   10 1    
    10   10   11 1    
    11   11   12 1    
    12   11   13 1    
    13   12   17 1    
    14   13   14 1    
    15   13   15 1    
    16   15   16 1    
    17   15   17 1    
    18   17   18 1    
    19   18   19 am   
    20   18   25 1    
    21   19   20 2    
    22   19   21 1    
    23   21   22 2    
    24   22   23 1    
    25   22   24 1    
    26   24   25 2    
@<TRIPOS>SUBSTRUCTURE
     1 CDP805      1 GROUP   
@<TRIPOS>SET
ATOM$ORANGE STATIC     ATOMS   COLORGROUP SYSTEM 
18 10 10 11 11 13 13 15 15 17 17 19 19 22 22 24 24 25 \
25 

