#    Name: 6aui_14_CDP
#    Modification time : Fri May 22 19:33:37 2020

@<TRIPOS>MOLECULE
6aui_14_CDP
   25    26     1     0     1
SMALL
NO_CHARGES


@<TRIPOS>ATOM
      1 O3B       165.2140  100.1360  173.6010 O.co2     1 CDP805      0.0000 
      2 PB        166.3010   99.4200  172.8480 P.3       1 CDP805      0.0000 
      3 O1B       166.1750   99.6250  171.3650 O.co2     1 CDP805      0.0000 
      4 O2B       166.3790   97.9640  173.2180 O.co2     1 CDP805      0.0000 
      5 O3A       167.6950  100.0680  173.2750 O.3       1 CDP805      0.0000 
      6 PA        167.9290  100.3690  174.8210 P.3       1 CDP805      0.0000 
      7 O1A       167.1790  101.6260  175.1660 O.co2     1 CDP805      0.0000 
      8 O2A       167.6970   99.0790  175.5600 O.co2     1 CDP805      0.0000 
      9 O5'       169.4910  100.7030  174.8690 O.3       1 CDP805      0.0000 
     10 C5'       170.3710   99.6710  175.2780 C.3       1 CDP805      0.0000 
     11 C4'       171.4880   99.5030  174.2630 C.3       1 CDP805      0.0000 
     12 O4'       170.9850   99.7240  172.9460 O.3       1 CDP805      0.0000 
     13 C3'       172.5730  100.5290  174.4870 C.3       1 CDP805      0.0000 
     14 O3'       173.6460   99.9820  175.2520 O.3       1 CDP805      0.0000 
     15 C2'       173.0420  100.8590  173.0960 C.3       1 CDP805      0.0000 
     16 O2'       174.1260   99.9870  172.7920 O.3       1 CDP805      0.0000 
     17 C1'       171.8770  100.5320  172.1840 C.3       1 CDP805      0.0000 
     18 N1        171.2230  101.7390  171.6700 N.am      1 CDP805      0.0000 
     19 C2        171.3800  102.0530  170.3150 C.2       1 CDP805      0.0000 
     20 O2        172.0670  101.3100  169.5920 O.2       1 CDP805      0.0000 
     21 N3        170.8010  103.1440  169.7870 N.2       1 CDP805      0.0000 
     22 C4        170.0580  103.9530  170.5560 C.2       1 CDP805      0.0000 
     23 N4        169.4810  105.0510  170.0180 N.pl3     1 CDP805      0.0000 
     24 C5        169.8840  103.6640  171.8970 C.2       1 CDP805      0.0000 
     25 C6        170.4800  102.5360  172.4340 C.2       1 CDP805      0.0000 
@<TRIPOS>BOND
     1    1    2 ar   
     2    2    3 ar   
     3    2    4 ar   
     4    2    5 1    
     5    5    6 1    
     6    6    7 ar   
     7    6    8 ar   
     8    6    9 1    
     9    9   10 1    
    10   10   11 1    
    11   11   12 1    
    12   11   13 1    
    13   12   17 1    
    14   13   14 1    
    15   13   15 1    
    16   15   16 1    
    17   15   17 1    
    18   17   18 1    
    19   18   19 am   
    20   18   25 1    
    21   19   20 2    
    22   19   21 1    
    23   21   22 2    
    24   22   23 1    
    25   22   24 1    
    26   24   25 2    
@<TRIPOS>SUBSTRUCTURE
     1 CDP805      1 GROUP   
@<TRIPOS>SET
ATOM$ORANGE STATIC     ATOMS   COLORGROUP SYSTEM 
18 10 10 11 11 13 13 15 15 17 17 19 19 22 22 24 24 25 \
25 

