#    Name: 6aui_11_DTP
#    Modification time : Fri May 22 19:32:39 2020

@<TRIPOS>MOLECULE
6aui_11_DTP
   30    32     1     0     0
SMALL
NO_CHARGES


@<TRIPOS>ATOM
      1 PG        226.5580  172.8040  155.9280 P.3       1 DTP801      0.0000 
      2 O1G       227.0850  172.8540  154.5190 O.co2     1 DTP801      0.0000 
      3 O2G       226.7730  171.4500  156.5510 O.co2     1 DTP801      0.0000 
      4 O3G       227.1600  173.9320  156.7200 O.co2     1 DTP801      0.0000 
      5 PB        224.2350  172.3910  154.5690 P.3       1 DTP801      0.0000 
      6 O1B       224.4530  173.4360  153.5180 O.co2     1 DTP801      0.0000 
      7 O2B       224.8670  171.0740  154.2150 O.co2     1 DTP801      0.0000 
      8 O3B       224.9790  173.0110  155.8320 O.3       1 DTP801      0.0000 
      9 PA        222.6770  171.2410  156.3990 P.3       1 DTP801      0.0000 
     10 O1A       223.9110  170.3910  156.5440 O.co2     1 DTP801      0.0000 
     11 O2A       222.7980  172.1620  157.5750 O.co2     1 DTP801      0.0000 
     12 O3A       222.7440  172.0980  155.0530 O.3       1 DTP801      0.0000 
     13 O5'       221.4290  170.2460  156.4950 O.3       1 DTP801      0.0000 
     14 C5'       220.1910  170.6240  157.0740 C.3       1 DTP801      0.0000 
     15 C4'       219.4130  169.3890  157.4960 C.3       1 DTP801      0.0000 
     16 O4'       219.2260  168.5930  156.3390 O.3       1 DTP801      0.0000 
     17 C3'       220.1110  168.5540  158.5580 C.3       1 DTP801      0.0000 
     18 O3'       219.1460  168.0240  159.4680 O.3       1 DTP801      0.0000 
     19 C2'       220.7390  167.4030  157.7970 C.3       1 DTP801      0.0000 
     20 C1'       219.8130  167.3260  156.5940 C.3       1 DTP801      0.0000 
     21 N9        220.5690  166.8910  155.4010 N.pl3     1 DTP801      0.0000 
     22 C8        221.7800  167.3090  155.0200 C.2       1 DTP801      0.0000 
     23 N7        222.1260  166.6790  153.8790 N.2       1 DTP801      0.0000 
     24 C5        221.1060  165.8700  153.5620 C.ar      1 DTP801      0.0000 
     25 C6        220.8850  164.9830  152.5280 C.ar      1 DTP801      0.0000 
     26 N6        221.8220  164.8290  151.5660 N.pl3     1 DTP801      0.0000 
     27 N1        219.7230  164.3010  152.4820 N.ar      1 DTP801      0.0000 
     28 C2        218.7890  164.4500  153.4240 C.ar      1 DTP801      0.0000 
     29 N3        218.9880  165.2930  154.4350 N.ar      1 DTP801      0.0000 
     30 C4        220.1310  166.0070  154.5190 C.ar      1 DTP801      0.0000 
@<TRIPOS>BOND
     1    1    2 ar   
     2    1    3 ar   
     3    1    4 ar   
     4    1    8 1    
     5    5    6 ar   
     6    5    7 ar   
     7    5    8 1    
     8    5   12 1    
     9    9   10 ar   
    10    9   11 ar   
    11    9   12 1    
    12    9   13 1    
    13   13   14 1    
    14   14   15 1    
    15   15   16 1    
    16   15   17 1    
    17   16   20 1    
    18   17   18 1    
    19   17   19 1    
    20   19   20 1    
    21   20   21 1    
    22   21   22 1    
    23   21   30 1    
    24   22   23 2    
    25   23   24 1    
    26   24   25 ar   
    27   24   30 ar   
    28   25   26 1    
    29   25   27 ar   
    30   27   28 ar   
    31   28   29 ar   
    32   29   30 ar   
@<TRIPOS>SUBSTRUCTURE
     1 DTP801      1 GROUP   
@<TRIPOS>SET

