#    Name: 6aui_4_DTP
#    Modification time : Fri May 22 19:30:22 2020

@<TRIPOS>MOLECULE
6aui_4_DTP
   30    32     1     0     0
SMALL
NO_CHARGES


@<TRIPOS>ATOM
      1 PG        205.1570  109.8240  164.8390 P.3       1 DTP803      0.0000 
      2 O1G       206.2590  108.8020  164.9230 O.co2     1 DTP803      0.0000 
      3 O2G       203.8810  109.2090  165.3410 O.co2     1 DTP803      0.0000 
      4 O3G       205.4910  111.1000  165.5660 O.co2     1 DTP803      0.0000 
      5 PB        204.1260  109.0850  162.4330 P.3       1 DTP803      0.0000 
      6 O1B       204.3190  109.1820  160.9490 O.co2     1 DTP803      0.0000 
      7 O2B       204.3600  107.6870  162.9190 O.co2     1 DTP803      0.0000 
      8 O3B       204.9950  110.1210  163.2780 O.3       1 DTP803      0.0000 
      9 PA        201.4680  108.6230  162.8420 P.3       1 DTP803      0.0000 
     10 O1A       201.4310  107.7970  161.5900 O.co2     1 DTP803      0.0000 
     11 O2A       201.7210  107.8120  164.0820 O.co2     1 DTP803      0.0000 
     12 O3A       202.6750  109.6470  162.7580 O.3       1 DTP803      0.0000 
     13 O5'       200.2620  109.6440  163.0780 O.3       1 DTP803      0.0000 
     14 C5'       200.4200  110.4990  164.1980 C.3       1 DTP803      0.0000 
     15 C4'       199.2460  111.4290  164.4640 C.3       1 DTP803      0.0000 
     16 O4'       199.3160  112.5610  163.6180 O.3       1 DTP803      0.0000 
     17 C3'       197.8910  110.7700  164.3420 C.3       1 DTP803      0.0000 
     18 O3'       197.0300  111.3490  165.3120 O.3       1 DTP803      0.0000 
     19 C2'       197.4370  111.2390  162.9810 C.3       1 DTP803      0.0000 
     20 C1'       198.1150  112.5860  162.8830 C.3       1 DTP803      0.0000 
     21 N9        198.5090  112.8000  161.4920 N.pl3     1 DTP803      0.0000 
     22 C8        199.4380  112.0940  160.8500 C.2       1 DTP803      0.0000 
     23 N7        199.5410  112.5730  159.5960 N.2       1 DTP803      0.0000 
     24 C5        198.6660  113.5830  159.4810 C.ar      1 DTP803      0.0000 
     25 C6        198.3290  114.4420  158.4480 C.ar      1 DTP803      0.0000 
     26 N6        198.9440  114.3310  157.2530 N.pl3     1 DTP803      0.0000 
     27 N1        197.3860  115.3790  158.6490 N.ar      1 DTP803      0.0000 
     28 C2        196.7750  115.4910  159.8320 C.ar      1 DTP803      0.0000 
     29 N3        197.0830  114.6750  160.8420 N.ar      1 DTP803      0.0000 
     30 C4        198.0210  113.7230  160.6820 C.ar      1 DTP803      0.0000 
@<TRIPOS>BOND
     1    1    2 ar   
     2    1    3 ar   
     3    1    4 ar   
     4    1    8 1    
     5    5    6 ar   
     6    5    7 ar   
     7    5    8 1    
     8    5   12 1    
     9    9   10 ar   
    10    9   11 ar   
    11    9   12 1    
    12    9   13 1    
    13   13   14 1    
    14   14   15 1    
    15   15   16 1    
    16   15   17 1    
    17   16   20 1    
    18   17   18 1    
    19   17   19 1    
    20   19   20 1    
    21   20   21 1    
    22   21   22 1    
    23   21   30 1    
    24   22   23 2    
    25   23   24 1    
    26   24   25 ar   
    27   24   30 ar   
    28   25   26 1    
    29   25   27 ar   
    30   27   28 ar   
    31   28   29 ar   
    32   29   30 ar   
@<TRIPOS>SUBSTRUCTURE
     1 DTP803      1 GROUP   
@<TRIPOS>SET

