#    Name: 6aui_2_DTP
#    Modification time : Fri May 22 19:29:37 2020

@<TRIPOS>MOLECULE
6aui_2_DTP
   30    32     1     0     0
SMALL
NO_CHARGES


@<TRIPOS>ATOM
      1 PG        174.2600   92.1530  149.9460 P.3       1 DTP803      0.0000 
      2 O1G       173.0130   92.4070  149.1430 O.co2     1 DTP803      0.0000 
      3 O2G       175.3850   93.0110  149.4470 O.co2     1 DTP803      0.0000 
      4 O3G       174.6490   90.7060  149.8590 O.co2     1 DTP803      0.0000 
      5 PB        175.3510   92.7610  152.3700 P.3       1 DTP803      0.0000 
      6 O1B       176.4730   91.8860  151.9130 O.co2     1 DTP803      0.0000 
      7 O2B       175.1780   92.6080  153.8540 O.co2     1 DTP803      0.0000 
      8 O3B       174.0530   92.4050  151.5110 O.3       1 DTP803      0.0000 
      9 PA        177.0290   94.8520  151.7430 P.3       1 DTP803      0.0000 
     10 O1A       177.5820   94.2030  150.5100 O.co2     1 DTP803      0.0000 
     11 O2A       177.8750   94.5900  152.9550 O.co2     1 DTP803      0.0000 
     12 O3A       175.5630   94.3000  152.0110 O.3       1 DTP803      0.0000 
     13 O5'       176.7890   96.3970  151.4120 O.3       1 DTP803      0.0000 
     14 C5'       176.0240   96.6620  150.2490 C.3       1 DTP803      0.0000 
     15 C4'       175.6680   98.1290  150.0720 C.3       1 DTP803      0.0000 
     16 O4'       174.6760   98.5020  151.0120 O.3       1 DTP803      0.0000 
     17 C3'       176.8620   99.0550  150.1740 C.3       1 DTP803      0.0000 
     18 O3'       176.7110  100.1150  149.2350 O.3       1 DTP803      0.0000 
     19 C2'       176.7010   99.6400  151.5560 C.3       1 DTP803      0.0000 
     20 C1'       175.2000   99.5920  151.7430 C.3       1 DTP803      0.0000 
     21 N9        174.8920   99.3660  153.1600 N.pl3     1 DTP803      0.0000 
     22 C8        175.0730   98.2240  153.8230 C.2       1 DTP803      0.0000 
     23 N7        174.6690   98.4040  155.0960 N.2       1 DTP803      0.0000 
     24 C5        174.2350   99.6690  155.2060 C.ar      1 DTP803      0.0000 
     25 C6        173.7120  100.4170  156.2510 C.ar      1 DTP803      0.0000 
     26 N6        173.5570   99.8650  157.4730 N.pl3     1 DTP803      0.0000 
     27 N1        173.3610  101.6970  156.0350 N.ar      1 DTP803      0.0000 
     28 C2        173.5110  102.2510  154.8280 C.ar      1 DTP803      0.0000 
     29 N3        174.0130  101.5510  153.8090 N.ar      1 DTP803      0.0000 
     30 C4        174.3770  100.2670  153.9800 C.ar      1 DTP803      0.0000 
@<TRIPOS>BOND
     1    1    2 ar   
     2    1    3 ar   
     3    1    4 ar   
     4    1    8 1    
     5    5    6 ar   
     6    5    7 ar   
     7    5    8 1    
     8    5   12 1    
     9    9   10 ar   
    10    9   11 ar   
    11    9   12 1    
    12    9   13 1    
    13   13   14 1    
    14   14   15 1    
    15   15   16 1    
    16   15   17 1    
    17   16   20 1    
    18   17   18 1    
    19   17   19 1    
    20   19   20 1    
    21   20   21 1    
    22   21   22 1    
    23   21   30 1    
    24   22   23 2    
    25   23   24 1    
    26   24   25 ar   
    27   24   30 ar   
    28   25   26 1    
    29   25   27 ar   
    30   27   28 ar   
    31   28   29 ar   
    32   29   30 ar   
@<TRIPOS>SUBSTRUCTURE
     1 DTP803      1 GROUP   
@<TRIPOS>SET

