#    Name: 6aui_16_CDP_CAVITY_N1_12
#    Modification time : Fri May 22 19:34:07 2020

@<TRIPOS>MOLECULE
6aui_16_CDP_CAVITY_N1_12
   95     0     6     0     0
SMALL
NO_CHARGES


@<TRIPOS>ATOM
      1 OG        100.6600  172.6900  173.1900 O.3       1 SER1        0.0000 
      2 OG         99.2200  173.8000  174.2800 O.3       1 SER1        0.0000 
      3 OG        100.1300  173.7500  171.4300 O.3       1 SER1        0.0000 
      4 OG        100.7100  174.8100  173.1700 O.3       1 SER1        0.0000 
      5 OG         99.2800  175.9200  174.2600 O.3       1 SER1        0.0000 
      6 OG         99.7300  175.8900  172.8300 O.3       1 SER1        0.0000 
      7 OG        107.1800  172.5300  173.6900 O.3       1 SER1        0.0000 
      8 OG        101.8100  177.9700  173.4500 O.3       1 SER1        0.0000 
      9 OG        100.3700  179.0800  174.5500 O.3       1 SER1        0.0000 
     10 OG        100.8200  179.0500  173.1200 O.3       1 SER1        0.0000 
     11 OG        105.7200  176.7900  171.5700 O.3       1 SER1        0.0000 
     12 OG        102.8400  179.0100  173.7600 O.3       1 SER1        0.0000 
     13 OG        103.3000  178.9800  172.3300 O.3       1 SER1        0.0000 
     14 N          99.6200  171.6500  172.8800 N.am      2 ALA2        0.0000 
     15 N          99.1000  172.7100  171.1200 N.am      2 ALA2        0.0000 
     16 O          99.5500  172.6800  169.6900 O.2       2 ALA2        0.0000 
     17 N         101.6400  171.6100  173.5200 N.am      2 ALA2        0.0000 
     18 O         103.0100  171.5300  169.2400 O.2       2 ALA2        0.0000 
     19 O         103.4600  171.5000  167.8100 O.2       2 ALA2        0.0000 
     20 N         104.1200  171.5400  172.7400 N.am      2 ALA2        0.0000 
     21 N         105.4900  171.4500  168.4500 N.am      2 ALA2        0.0000 
     22 N         103.1400  172.6200  172.4100 N.am      2 ALA2        0.0000 
     23 N         104.5000  172.5400  168.1200 N.am      2 ALA2        0.0000 
     24 N         101.2400  173.7600  174.9300 N.am      2 ALA2        0.0000 
     25 N         101.7000  173.7300  173.5000 N.am      2 ALA2        0.0000 
     26 N         105.1600  172.5700  173.0500 N.am      2 ALA2        0.0000 
     27 N         103.7200  173.6800  174.1400 N.am      2 ALA2        0.0000 
     28 N         104.1700  173.6600  172.7200 N.am      2 ALA2        0.0000 
     29 N         102.7400  174.7700  173.8100 N.am      2 ALA2        0.0000 
     30 O          99.7900  178.0100  172.8100 O.2       2 ALA2        0.0000 
     31 N         105.7400  173.6400  174.7900 N.am      2 ALA2        0.0000 
     32 N         106.1900  173.6100  173.3600 N.am      2 ALA2        0.0000 
     33 O         103.3200  175.8300  175.5500 O.2       2 ALA2        0.0000 
     34 O         101.8800  176.9400  176.6400 O.2       2 ALA2        0.0000 
     35 O         102.3300  176.9200  175.2200 O.2       2 ALA2        0.0000 
     36 O         105.7900  175.7600  174.7700 O.2       2 ALA2        0.0000 
     37 O         104.8100  176.8400  174.4300 O.2       2 ALA2        0.0000 
     38 O         103.8300  177.9300  174.1000 O.2       2 ALA2        0.0000 
     39 O         104.2800  177.9000  172.6700 O.2       2 ALA2        0.0000 
     40 OD1       101.5700  172.6400  170.3300 O.co2     3 ASP3        0.0000 
     41 OD1       103.5900  172.5900  170.9800 O.co2     3 ASP3        0.0000 
     42 OD1       104.0500  172.5600  169.5500 O.co2     3 ASP3        0.0000 
     43 OD1       102.1500  173.7000  172.0700 O.co2     3 ASP3        0.0000 
     44 OD1       102.6100  173.6700  170.6400 O.co2     3 ASP3        0.0000 
     45 OD1       103.0600  173.6500  169.2100 O.co2     3 ASP3        0.0000 
     46 OD1       101.1700  174.7800  171.7400 O.co2     3 ASP3        0.0000 
     47 OD1       104.6300  173.6300  171.2900 O.co2     3 ASP3        0.0000 
     48 OD1       105.0800  173.6000  169.8600 O.co2     3 ASP3        0.0000 
     49 OD1       103.1900  174.7400  172.3800 O.co2     3 ASP3        0.0000 
     50 OD1       101.7500  175.8500  173.4800 O.co2     3 ASP3        0.0000 
     51 OD1       100.7700  176.9300  173.1400 O.co2     3 ASP3        0.0000 
     52 OD1       105.6700  174.6700  171.6000 O.co2     3 ASP3        0.0000 
     53 OD1       106.1200  174.6400  170.1700 O.co2     3 ASP3        0.0000 
     54 OD1       104.2300  175.7800  172.6900 O.co2     3 ASP3        0.0000 
     55 OD1       104.6800  175.7500  171.2600 O.co2     3 ASP3        0.0000 
     56 OD1       105.1400  175.7200  169.8300 O.co2     3 ASP3        0.0000 
     57 OD1       102.7900  176.8900  173.7900 O.co2     3 ASP3        0.0000 
     58 OD1       103.2400  176.8600  172.3600 O.co2     3 ASP3        0.0000 
     59 OD1       102.2600  177.9400  172.0200 O.co2     3 ASP3        0.0000 
     60 NZ        100.2100  172.7200  174.6200 N.4       4 LYS4        0.0000 
     61 CA        100.6100  170.5700  173.2100 C.3       5 GLY6        0.0000 
     62 CA        101.0600  170.5400  171.7800 C.3       5 GLY6        0.0000 
     63 CA        101.5200  170.5100  170.3600 C.3       5 GLY6        0.0000 
     64 CA        100.0800  171.6200  171.4500 C.3       5 GLY6        0.0000 
     65 CA        100.5300  171.6000  170.0200 C.3       5 GLY6        0.0000 
     66 CA        103.9900  170.4400  169.5700 C.3       5 GLY6        0.0000 
     67 CA        102.1000  171.5800  172.0900 C.3       5 GLY6        0.0000 
     68 CA        102.5500  171.5500  170.6700 C.3       5 GLY6        0.0000 
     69 CA        104.5700  171.5100  171.3100 C.3       5 GLY6        0.0000 
     70 CA        105.0300  171.4800  169.8800 C.3       5 GLY6        0.0000 
     71 CA        100.2600  174.8400  174.5900 C.3       5 GLY6        0.0000 
     72 CA         98.2900  177.0000  173.9300 C.3       5 GLY6        0.0000 
     73 CA        105.5400  173.5700  168.4300 C.3       5 GLY6        0.0000 
     74 CA        102.2800  174.7900  175.2400 C.3       5 GLY6        0.0000 
     75 CA        100.8400  175.9000  176.3300 C.3       5 GLY6        0.0000 
     76 CA         99.8600  176.9900  176.0000 C.3       5 GLY6        0.0000 
     77 CA        100.3100  176.9600  174.5700 C.3       5 GLY6        0.0000 
     78 CA         98.8700  178.0700  175.6700 C.3       5 GLY6        0.0000 
     79 CA         99.3300  178.0400  174.2400 C.3       5 GLY6        0.0000 
     80 CA        104.7600  174.7200  174.4500 C.3       5 GLY6        0.0000 
     81 CA        100.9000  178.0300  176.3100 C.3       5 GLY6        0.0000 
     82 CA        101.3500  178.0000  174.8800 C.3       5 GLY6        0.0000 
     83 CA         99.9100  179.1100  175.9800 C.3       5 GLY6        0.0000 
     84 CA        106.7800  174.6800  175.1000 C.3       5 GLY6        0.0000 
     85 CA        107.2300  174.6500  173.6700 C.3       5 GLY6        0.0000 
     86 CA        107.6900  174.6200  172.2400 C.3       5 GLY6        0.0000 
     87 CA        106.2500  175.7300  173.3400 C.3       5 GLY6        0.0000 
     88 CA        105.2600  176.8200  173.0000 C.3       5 GLY6        0.0000 
     89 CA        102.3900  179.0400  175.1900 C.3       5 GLY6        0.0000 
     90 DU        101.1200  172.6600  171.7600 H         6 CUB7        0.0000 
     91 DU        105.6100  172.5500  171.6200 H         6 CUB7        0.0000 
     92 DU        106.0700  172.5200  170.1900 H         6 CUB7        0.0000 
     93 DU        101.3000  175.8800  174.9100 H         6 CUB7        0.0000 
     94 DU        105.2100  174.7000  173.0300 H         6 CUB7        0.0000 
     95 DU        103.7700  175.8100  174.1200 H         6 CUB7        0.0000 
@<TRIPOS>BOND
@<TRIPOS>SUBSTRUCTURE
     1 SER1        1 GROUP   
     2 ALA2       14 GROUP   
     3 ASP3       40 GROUP   
     4 LYS4       60 GROUP   
     5 GLY6       61 GROUP   
     6 CUB7       90 GROUP   
@<TRIPOS>SET

