#    Name: 6aui_7_DTP
#    Modification time : Fri May 22 19:31:25 2020

@<TRIPOS>MOLECULE
6aui_7_DTP
   30    32     1     0     0
SMALL
NO_CHARGES


@<TRIPOS>ATOM
      1 PG        108.7530  209.5440  155.8870 P.3       1 DTP801      0.0000 
      2 O1G       108.3960  209.9310  154.4770 O.co2     1 DTP801      0.0000 
      3 O2G       109.7880  210.4690  156.4700 O.co2     1 DTP801      0.0000 
      4 O3G       107.5060  209.4580  156.7240 O.co2     1 DTP801      0.0000 
      5 PB        110.3880  207.7990  154.5650 P.3       1 DTP801      0.0000 
      6 O1B       109.4190  207.4260  153.4850 O.co2     1 DTP801      0.0000 
      7 O2B       111.1590  209.0420  154.2210 O.co2     1 DTP801      0.0000 
      8 O3B       109.4250  208.0990  155.7980 O.3       1 DTP801      0.0000 
      9 PA        112.1270  207.1010  156.4650 P.3       1 DTP801      0.0000 
     10 O1A       112.1960  208.6010  156.5650 O.co2     1 DTP801      0.0000 
     11 O2A       111.2400  206.7150  157.6130 O.co2     1 DTP801      0.0000 
     12 O3A       111.4280  206.7060  155.0840 O.3       1 DTP801      0.0000 
     13 O5'       113.6150  206.5370  156.6390 O.3       1 DTP801      0.0000 
     14 C5'       113.8730  205.2010  157.0340 C.3       1 DTP801      0.0000 
     15 C4'       115.3460  205.0110  157.3560 C.3       1 DTP801      0.0000 
     16 O4'       116.0840  205.2570  156.1710 O.3       1 DTP801      0.0000 
     17 C3'       115.8630  205.9320  158.4490 C.3       1 DTP801      0.0000 
     18 O3'       116.7920  205.2210  159.2680 O.3       1 DTP801      0.0000 
     19 C2'       116.5930  207.0350  157.7120 C.3       1 DTP801      0.0000 
     20 C1'       116.9940  206.3120  156.4390 C.3       1 DTP801      0.0000 
     21 N9        116.9820  207.2680  155.3120 N.pl3     1 DTP801      0.0000 
     22 C8        116.0200  208.1540  155.0410 C.2       1 DTP801      0.0000 
     23 N7        116.3630  208.8450  153.9360 N.2       1 DTP801      0.0000 
     24 C5        117.5460  208.3710  153.5300 C.ar      1 DTP801      0.0000 
     25 C6        118.3830  208.6870  152.4800 C.ar      1 DTP801      0.0000 
     26 N6        118.0300  209.6540  151.6070 N.pl3     1 DTP801      0.0000 
     27 N1        119.5360  208.0120  152.3290 N.ar      1 DTP801      0.0000 
     28 C2        119.8970  207.0530  153.1790 C.ar      1 DTP801      0.0000 
     29 N3        119.1050  206.7390  154.2030 N.ar      1 DTP801      0.0000 
     30 C4        117.9340  207.3810  154.3950 C.ar      1 DTP801      0.0000 
@<TRIPOS>BOND
     1    1    2 ar   
     2    1    3 ar   
     3    1    4 ar   
     4    1    8 1    
     5    5    6 ar   
     6    5    7 ar   
     7    5    8 1    
     8    5   12 1    
     9    9   10 ar   
    10    9   11 ar   
    11    9   12 1    
    12    9   13 1    
    13   13   14 1    
    14   14   15 1    
    15   15   16 1    
    16   15   17 1    
    17   16   20 1    
    18   17   18 1    
    19   17   19 1    
    20   19   20 1    
    21   20   21 1    
    22   21   22 1    
    23   21   30 1    
    24   22   23 2    
    25   23   24 1    
    26   24   25 ar   
    27   24   30 ar   
    28   25   26 1    
    29   25   27 ar   
    30   27   28 ar   
    31   28   29 ar   
    32   29   30 ar   
@<TRIPOS>SUBSTRUCTURE
     1 DTP801      1 GROUP   
@<TRIPOS>SET

