#    Name: 6aui_15_CDP
#    Modification time : Fri May 22 19:33:51 2020

@<TRIPOS>MOLECULE
6aui_15_CDP
   25    26     1     0     1
SMALL
NO_CHARGES


@<TRIPOS>ATOM
      1 O3B       102.9560  136.2490  143.0280 O.co2     1 CDP805      0.0000 
      2 PB        102.6960  136.2410  141.5480 P.3       1 CDP805      0.0000 
      3 O1B       103.8570  135.6650  140.7840 O.co2     1 CDP805      0.0000 
      4 O2B       101.4000  135.5640  141.1970 O.co2     1 CDP805      0.0000 
      5 O3A       102.5300  137.7670  141.1160 O.3       1 CDP805      0.0000 
      6 PA        102.7060  138.1180  139.5720 P.3       1 CDP805      0.0000 
      7 O1A       101.7310  137.2570  138.8150 O.co2     1 CDP805      0.0000 
      8 O2A       104.1790  138.1270  139.2690 O.co2     1 CDP805      0.0000 
      9 O5'       102.2160  139.6360  139.5050 O.3       1 CDP805      0.0000 
     10 C5'       100.8870  139.8960  139.0960 C.3       1 CDP805      0.0000 
     11 C4'       100.1830  140.7430  140.1410 C.3       1 CDP805      0.0000 
     12 O4'       100.6150  140.3710  141.4510 O.3       1 CDP805      0.0000 
     13 C3'       100.5350  142.1990  139.9760 C.3       1 CDP805      0.0000 
     14 O3'        99.5380  142.8780  139.2160 O.3       1 CDP805      0.0000 
     15 C2'       100.5470  142.7210  141.3840 C.3       1 CDP805      0.0000 
     16 O2'        99.2340  143.1880  141.6730 O.3       1 CDP805      0.0000 
     17 C1'       100.8400  141.5230  142.2600 C.3       1 CDP805      0.0000 
     18 N1        102.2050  141.5640  142.7900 N.am      1 CDP805      0.0000 
     19 C2        102.3940  141.9670  144.1170 C.2       1 CDP805      0.0000 
     20 O2        101.4070  142.2850  144.8050 O.2       1 CDP805      0.0000 
     21 N3        103.6240  142.0190  144.6530 N.2       1 CDP805      0.0000 
     22 C4        104.6940  141.6810  143.9200 C.2       1 CDP805      0.0000 
     23 N4        105.9280  141.7370  144.4680 N.pl3     1 CDP805      0.0000 
     24 C5        104.5330  141.2760  142.6070 C.2       1 CDP805      0.0000 
     25 C6        103.2630  141.2240  142.0600 C.2       1 CDP805      0.0000 
@<TRIPOS>BOND
     1    1    2 ar   
     2    2    3 ar   
     3    2    4 ar   
     4    2    5 1    
     5    5    6 1    
     6    6    7 ar   
     7    6    8 ar   
     8    6    9 1    
     9    9   10 1    
    10   10   11 1    
    11   11   12 1    
    12   11   13 1    
    13   12   17 1    
    14   13   14 1    
    15   13   15 1    
    16   15   16 1    
    17   15   17 1    
    18   17   18 1    
    19   18   19 am   
    20   18   25 1    
    21   19   20 2    
    22   19   21 1    
    23   21   22 2    
    24   22   23 1    
    25   22   24 1    
    26   24   25 2    
@<TRIPOS>SUBSTRUCTURE
     1 CDP805      1 GROUP   
@<TRIPOS>SET
ATOM$ORANGE STATIC     ATOMS   COLORGROUP SYSTEM 
18 10 10 11 11 13 13 15 15 17 17 19 19 22 22 24 24 25 \
25 

