#    Name: 6aui_12_DTP
#    Modification time : Fri May 22 19:33:00 2020

@<TRIPOS>MOLECULE
6aui_12_DTP
   30    32     1     0     0
SMALL
NO_CHARGES


@<TRIPOS>ATOM
      1 PG        173.9010  222.0620  164.9840 P.3       1 DTP803      0.0000 
      2 O1G       174.0040  223.5190  165.3380 O.co2     1 DTP803      0.0000 
      3 O2G       175.1340  221.3380  165.4540 O.co2     1 DTP803      0.0000 
      4 O3G       172.6750  221.4560  165.6180 O.co2     1 DTP803      0.0000 
      5 PB        175.1740  221.7250  162.5680 P.3       1 DTP803      0.0000 
      6 O1B       175.0370  221.8180  161.0770 O.co2     1 DTP803      0.0000 
      7 O2B       176.2270  222.6980  162.9940 O.co2     1 DTP803      0.0000 
      8 O3B       173.8260  221.9970  163.3840 O.3       1 DTP803      0.0000 
      9 PA        176.9590  219.6500  162.8220 P.3       1 DTP803      0.0000 
     10 O1A       177.5230  220.0960  161.5070 O.co2     1 DTP803      0.0000 
     11 O2A       177.6350  220.2870  164.0030 O.co2     1 DTP803      0.0000 
     12 O3A       175.4660  220.1890  162.8800 O.3       1 DTP803      0.0000 
     13 O5'       176.7680  218.0790  163.0660 O.3       1 DTP803      0.0000 
     14 C5'       176.0760  217.7430  164.2590 C.3       1 DTP803      0.0000 
     15 C4'       175.8990  216.2570  164.5120 C.3       1 DTP803      0.0000 
     16 O4'       174.8640  215.7660  163.6800 O.3       1 DTP803      0.0000 
     17 C3'       177.1640  215.4460  164.3290 C.3       1 DTP803      0.0000 
     18 O3'       177.2030  214.4190  165.3140 O.3       1 DTP803      0.0000 
     19 C2'       176.9180  214.8040  162.9860 C.3       1 DTP803      0.0000 
     20 C1'       175.4100  214.7030  162.9340 C.3       1 DTP803      0.0000 
     21 N9        174.9600  214.8460  161.5430 N.pl3     1 DTP803      0.0000 
     22 C8        175.0840  215.9380  160.7900 C.2       1 DTP803      0.0000 
     23 N7        174.5530  215.6810  159.5780 N.2       1 DTP803      0.0000 
     24 C5        174.0990  214.4190  159.5960 C.ar      1 DTP803      0.0000 
     25 C6        173.4660  213.6130  158.6630 C.ar      1 DTP803      0.0000 
     26 N6        173.1940  214.0890  157.4300 N.pl3     1 DTP803      0.0000 
     27 N1        173.1230  212.3550  159.0000 N.ar      1 DTP803      0.0000 
     28 C2        173.3890  211.8770  160.2190 C.ar      1 DTP803      0.0000 
     29 N3        173.9990  212.6350  161.1320 N.ar      1 DTP803      0.0000 
     30 C4        174.3570  213.9010  160.8390 C.ar      1 DTP803      0.0000 
@<TRIPOS>BOND
     1    1    2 ar   
     2    1    3 ar   
     3    1    4 ar   
     4    1    8 1    
     5    5    6 ar   
     6    5    7 ar   
     7    5    8 1    
     8    5   12 1    
     9    9   10 ar   
    10    9   11 ar   
    11    9   12 1    
    12    9   13 1    
    13   13   14 1    
    14   14   15 1    
    15   15   16 1    
    16   15   17 1    
    17   16   20 1    
    18   17   18 1    
    19   17   19 1    
    20   19   20 1    
    21   20   21 1    
    22   21   22 1    
    23   21   30 1    
    24   22   23 2    
    25   23   24 1    
    26   24   25 ar   
    27   24   30 ar   
    28   25   26 1    
    29   25   27 ar   
    30   27   28 ar   
    31   28   29 ar   
    32   29   30 ar   
@<TRIPOS>SUBSTRUCTURE
     1 DTP803      1 GROUP   
@<TRIPOS>SET

