#    Name: 6aui_13_CDP
#    Modification time : Fri May 22 19:33:20 2020

@<TRIPOS>MOLECULE
6aui_13_CDP
   25    26     1     0     1
SMALL
NO_CHARGES


@<TRIPOS>ATOM
      1 O3B       202.5590  120.8110  143.0130 O.co2     1 CDP805      0.0000 
      2 PB        202.6450  120.5660  141.5320 P.3       1 CDP805      0.0000 
      3 O1B       202.5720  121.8490  140.7480 O.co2     1 CDP805      0.0000 
      4 O2B       203.8490  119.7420  141.1650 O.co2     1 CDP805      0.0000 
      5 O3A       201.3740  119.6850  141.1370 O.3       1 CDP805      0.0000 
      6 PA        200.9830  119.6020  139.5940 P.3       1 CDP805      0.0000 
      7 O1A       202.2190  119.1840  138.8440 O.co2     1 CDP805      0.0000 
      8 O2A       200.2230  120.8540  139.2500 O.co2     1 CDP805      0.0000 
      9 O5'       199.9340  118.3970  139.5550 O.3       1 CDP805      0.0000 
     10 C5'       200.3900  117.1180  139.1550 C.3       1 CDP805      0.0000 
     11 C4'       199.9730  116.0810  140.1830 C.3       1 CDP805      0.0000 
     12 O4'       200.0520  116.6390  141.4960 O.3       1 CDP805      0.0000 
     13 C3'       198.5370  115.6670  139.9860 C.3       1 CDP805      0.0000 
     14 O3'       198.4450  114.4680  139.2200 O.3       1 CDP805      0.0000 
     15 C2'       198.0400  115.4240  141.3820 C.3       1 CDP805      0.0000 
     16 O2'       198.2610  114.0490  141.6790 O.3       1 CDP805      0.0000 
     17 C1'       198.9220  116.2640  142.2790 C.3       1 CDP805      0.0000 
     18 N1        198.2090  117.4330  142.7990 N.am      1 CDP805      0.0000 
     19 C2        197.7690  117.4010  144.1270 C.2       1 CDP805      0.0000 
     20 O2        197.9890  116.3880  144.8140 O.2       1 CDP805      0.0000 
     21 N3        197.1130  118.4430  144.6630 N.2       1 CDP805      0.0000 
     22 C4        196.8710  119.5380  143.9260 C.2       1 CDP805      0.0000 
     23 N4        196.2090  120.5810  144.4740 N.pl3     1 CDP805      0.0000 
     24 C5        197.2990  119.5950  142.6120 C.2       1 CDP805      0.0000 
     25 C6        197.9760  118.5180  142.0650 C.2       1 CDP805      0.0000 
@<TRIPOS>BOND
     1    1    2 ar   
     2    2    3 ar   
     3    2    4 ar   
     4    2    5 1    
     5    5    6 1    
     6    6    7 ar   
     7    6    8 ar   
     8    6    9 1    
     9    9   10 1    
    10   10   11 1    
    11   11   12 1    
    12   11   13 1    
    13   12   17 1    
    14   13   14 1    
    15   13   15 1    
    16   15   16 1    
    17   15   17 1    
    18   17   18 1    
    19   18   19 am   
    20   18   25 1    
    21   19   20 2    
    22   19   21 1    
    23   21   22 2    
    24   22   23 1    
    25   22   24 1    
    26   24   25 2    
@<TRIPOS>SUBSTRUCTURE
     1 CDP805      1 GROUP   
@<TRIPOS>SET
ATOM$ORANGE STATIC     ATOMS   COLORGROUP SYSTEM 
18 10 10 11 11 13 13 15 15 17 17 19 19 22 22 24 24 25 \
25 

