#    Name: 6aui_18_CDP
#    Modification time : Fri May 22 19:34:34 2020

@<TRIPOS>MOLECULE
6aui_18_CDP
   25    26     1     0     1
SMALL
NO_CHARGES


@<TRIPOS>ATOM
      1 O3B       202.5470  192.6160  173.5760 O.co2     1 CDP805      0.0000 
      2 PB        202.6510  193.9190  172.8300 P.3       1 CDP805      0.0000 
      3 O1B       202.5390  193.7240  171.3430 O.co2     1 CDP805      0.0000 
      4 O2B       203.8850  194.6890  173.2110 O.co2     1 CDP805      0.0000 
      5 O3A       201.4100  194.8210  173.2660 O.3       1 CDP805      0.0000 
      6 PA        201.0480  194.8820  174.8180 P.3       1 CDP805      0.0000 
      7 O1A       200.3240  193.6110  175.1710 O.co2     1 CDP805      0.0000 
      8 O2A       202.2880  195.3250  175.5470 O.co2     1 CDP805      0.0000 
      9 O5'       199.9800  196.0680  174.8780 O.3       1 CDP805      0.0000 
     10 C5'       200.4330  197.3530  175.2640 C.3       1 CDP805      0.0000 
     11 C4'       200.0060  198.3770  174.2290 C.3       1 CDP805      0.0000 
     12 O4'       200.0510  197.7920  172.9270 O.3       1 CDP805      0.0000 
     13 C3'       198.5770  198.8040  174.4550 C.3       1 CDP805      0.0000 
     14 O3'       198.5110  200.0230  175.1920 O.3       1 CDP805      0.0000 
     15 C2'       198.0420  199.0090  173.0660 C.3       1 CDP805      0.0000 
     16 O2'       198.2460  200.3780  172.7350 O.3       1 CDP805      0.0000 
     17 C1'       198.9030  198.1480  172.1640 C.3       1 CDP805      0.0000 
     18 N1        198.1860  196.9670  171.6770 N.am      1 CDP805      0.0000 
     19 C2        197.8220  196.9200  170.3260 C.2       1 CDP805      0.0000 
     20 O2        198.1090  197.8780  169.5880 O.2       1 CDP805      0.0000 
     21 N3        197.1660  195.8610  169.8220 N.2       1 CDP805      0.0000 
     22 C4        196.8520  194.8250  170.6130 C.2       1 CDP805      0.0000 
     23 N4        196.1900  193.7640  170.1000 N.pl3     1 CDP805      0.0000 
     24 C5        197.2040  194.8450  171.9510 C.2       1 CDP805      0.0000 
     25 C6        197.8830  195.9380  172.4620 C.2       1 CDP805      0.0000 
@<TRIPOS>BOND
     1    1    2 ar   
     2    2    3 ar   
     3    2    4 ar   
     4    2    5 1    
     5    5    6 1    
     6    6    7 ar   
     7    6    8 ar   
     8    6    9 1    
     9    9   10 1    
    10   10   11 1    
    11   11   12 1    
    12   11   13 1    
    13   12   17 1    
    14   13   14 1    
    15   13   15 1    
    16   15   16 1    
    17   15   17 1    
    18   17   18 1    
    19   18   19 am   
    20   18   25 1    
    21   19   20 2    
    22   19   21 1    
    23   21   22 2    
    24   22   23 1    
    25   22   24 1    
    26   24   25 2    
@<TRIPOS>SUBSTRUCTURE
     1 CDP805      1 GROUP   
@<TRIPOS>SET
ATOM$ORANGE STATIC     ATOMS   COLORGROUP SYSTEM 
18 10 10 11 11 13 13 15 15 17 17 19 19 22 22 24 24 25 \
25 

