#    Name: 6aui_6_DTP
#    Modification time : Fri May 22 19:31:07 2020

@<TRIPOS>MOLECULE
6aui_6_DTP
   30    32     1     0     0
SMALL
NO_CHARGES


@<TRIPOS>ATOM
      1 PG         92.2210  174.9620  149.8200 P.3       1 DTP803      0.0000 
      2 O1G        93.1600  175.8820  149.0850 O.co2     1 DTP803      0.0000 
      3 O2G        92.4070  173.5590  149.3220 O.co2     1 DTP803      0.0000 
      4 O3G        90.7760  175.3480  149.6630 O.co2     1 DTP803      0.0000 
      5 PB         92.1280  173.7510  152.2640 P.3       1 DTP803      0.0000 
      6 O1B        90.8360  173.2070  151.7410 O.co2     1 DTP803      0.0000 
      7 O2B        92.0400  174.0040  153.7420 O.co2     1 DTP803      0.0000 
      8 O3B        92.5080  175.0300  151.3910 O.3       1 DTP803      0.0000 
      9 PA         93.2080  171.2800  151.7280 P.3       1 DTP803      0.0000 
     10 O1A        92.3730  171.1080  150.4960 O.co2     1 DTP803      0.0000 
     11 O2A        92.5390  170.6660  152.9210 O.co2     1 DTP803      0.0000 
     12 O3A        93.4000  172.8390  151.9650 O.3       1 DTP803      0.0000 
     13 O5'        94.6550  170.6950  151.3880 O.3       1 DTP803      0.0000 
     14 C5'        95.2370  171.2000  150.1980 C.3       1 DTP803      0.0000 
     15 C4'        96.6520  170.7050  149.9500 C.3       1 DTP803      0.0000 
     16 O4'        97.5410  171.3570  150.8420 O.3       1 DTP803      0.0000 
     17 C3'        96.7940  169.2000  150.0780 C.3       1 DTP803      0.0000 
     18 O3'        97.6970  168.7080  149.0930 O.3       1 DTP803      0.0000 
     19 C2'        97.4420  169.0600  151.4370 C.3       1 DTP803      0.0000 
     20 C1'        98.2040  170.3580  151.5880 C.3       1 DTP803      0.0000 
     21 N9         98.1850  170.7920  152.9950 N.pl3     1 DTP803      0.0000 
     22 C8         97.1220  171.2910  153.6270 C.2       1 DTP803      0.0000 
     23 N7         97.4720  171.5910  154.8940 N.2       1 DTP803      0.0000 
     24 C5         98.7670  171.2760  155.0350 C.ar      1 DTP803      0.0000 
     25 C6         99.6620  171.3600  156.0910 C.ar      1 DTP803      0.0000 
     26 N6         99.2580  171.8440  157.2840 N.pl3     1 DTP803      0.0000 
     27 N1        100.9310  170.9530  155.9120 N.ar      1 DTP803      0.0000 
     28 C2        101.3330  170.4730  154.7320 C.ar      1 DTP803      0.0000 
     29 N3        100.4900  170.3820  153.7020 N.ar      1 DTP803      0.0000 
     30 C4         99.2100  170.7780  153.8340 C.ar      1 DTP803      0.0000 
@<TRIPOS>BOND
     1    1    2 ar   
     2    1    3 ar   
     3    1    4 ar   
     4    1    8 1    
     5    5    6 ar   
     6    5    7 ar   
     7    5    8 1    
     8    5   12 1    
     9    9   10 ar   
    10    9   11 ar   
    11    9   12 1    
    12    9   13 1    
    13   13   14 1    
    14   14   15 1    
    15   15   16 1    
    16   15   17 1    
    17   16   20 1    
    18   17   18 1    
    19   17   19 1    
    20   19   20 1    
    21   20   21 1    
    22   21   22 1    
    23   21   30 1    
    24   22   23 2    
    25   23   24 1    
    26   24   25 ar   
    27   24   30 ar   
    28   25   26 1    
    29   25   27 ar   
    30   27   28 ar   
    31   28   29 ar   
    32   29   30 ar   
@<TRIPOS>SUBSTRUCTURE
     1 DTP803      1 GROUP   
@<TRIPOS>SET

