#    Name: 6aui_10_DTP
#    Modification time : Fri May 22 19:32:26 2020

@<TRIPOS>MOLECULE
6aui_10_DTP
   30    32     1     0     0
SMALL
NO_CHARGES


@<TRIPOS>ATOM
      1 PG        205.0070  204.5770  149.9600 P.3       1 DTP803      0.0000 
      2 O1G       205.4100  203.3600  149.1690 O.co2     1 DTP803      0.0000 
      3 O2G       203.7100  205.1230  149.4400 O.co2     1 DTP803      0.0000 
      4 O3G       206.0510  205.6570  149.9420 O.co2     1 DTP803      0.0000 
      5 PB        203.9120  205.2000  152.3750 P.3       1 DTP803      0.0000 
      6 O1B       204.0910  206.6040  151.8950 O.co2     1 DTP803      0.0000 
      7 O2B       204.1420  205.1360  153.8570 O.co2     1 DTP803      0.0000 
      8 O3B       204.8430  204.2350  151.5120 O.3       1 DTP803      0.0000 
      9 PA        201.2730  205.5700  151.7450 P.3       1 DTP803      0.0000 
     10 O1A       201.5620  206.3770  150.5150 O.co2     1 DTP803      0.0000 
     11 O2A       201.0720  206.4400  152.9520 O.co2     1 DTP803      0.0000 
     12 O3A       202.4880  204.5840  152.0160 O.3       1 DTP803      0.0000 
     13 O5'       200.0510  204.5950  151.4180 O.3       1 DTP803      0.0000 
     14 C5'       200.2020  203.8000  150.2560 C.3       1 DTP803      0.0000 
     15 C4'       199.1150  202.7520  150.0970 C.3       1 DTP803      0.0000 
     16 O4'       199.2980  201.7090  151.0420 O.3       1 DTP803      0.0000 
     17 C3'       197.7140  203.3150  150.2120 C.3       1 DTP803      0.0000 
     18 O3'       196.8680  202.6690  149.2670 O.3       1 DTP803      0.0000 
     19 C2'       197.2990  202.8720  151.5950 C.3       1 DTP803      0.0000 
     20 C1'       198.0980  201.6000  151.7790 C.3       1 DTP803      0.0000 
     21 N9        198.4570  201.4420  153.1940 N.pl3     1 DTP803      0.0000 
     22 C8        199.3620  202.1700  153.8470 C.2       1 DTP803      0.0000 
     23 N7        199.4240  201.7310  155.1190 N.2       1 DTP803      0.0000 
     24 C5        198.5480  200.7220  155.2400 C.ar      1 DTP803      0.0000 
     25 C6        198.1760  199.8970  156.2920 C.ar      1 DTP803      0.0000 
     26 N6        198.7490  200.0460  157.5040 N.pl3     1 DTP803      0.0000 
     27 N1        197.2410  198.9510  156.0890 N.ar      1 DTP803      0.0000 
     28 C2        196.6720  198.8010  154.8890 C.ar      1 DTP803      0.0000 
     29 N3        197.0130  199.5850  153.8640 N.ar      1 DTP803      0.0000 
     30 C4        197.9440  200.5450  154.0210 C.ar      1 DTP803      0.0000 
@<TRIPOS>BOND
     1    1    2 ar   
     2    1    3 ar   
     3    1    4 ar   
     4    1    8 1    
     5    5    6 ar   
     6    5    7 ar   
     7    5    8 1    
     8    5   12 1    
     9    9   10 ar   
    10    9   11 ar   
    11    9   12 1    
    12    9   13 1    
    13   13   14 1    
    14   14   15 1    
    15   15   16 1    
    16   15   17 1    
    17   16   20 1    
    18   17   18 1    
    19   17   19 1    
    20   19   20 1    
    21   20   21 1    
    22   21   22 1    
    23   21   30 1    
    24   22   23 2    
    25   23   24 1    
    26   24   25 ar   
    27   24   30 ar   
    28   25   26 1    
    29   25   27 ar   
    30   27   28 ar   
    31   28   29 ar   
    32   29   30 ar   
@<TRIPOS>SUBSTRUCTURE
     1 DTP803      1 GROUP   
@<TRIPOS>SET

