#    Name: 6aui_16_CDP
#    Modification time : Fri May 22 19:34:06 2020

@<TRIPOS>MOLECULE
6aui_16_CDP
   25    26     1     0     1
SMALL
NO_CHARGES


@<TRIPOS>ATOM
      1 O3B       103.7360  178.7780  173.5730 O.co2     1 CDP805      0.0000 
      2 PB        102.5620  178.1830  172.8440 P.3       1 CDP805      0.0000 
      3 O1B       102.7860  178.1650  171.3590 O.co2     1 CDP805      0.0000 
      4 O2B       101.2630  178.8390  173.2260 O.co2     1 CDP805      0.0000 
      5 O3A       102.4420  176.6560  173.2890 O.3       1 CDP805      0.0000 
      6 PA        102.5880  176.3150  174.8380 P.3       1 CDP805      0.0000 
      7 O1A       104.0510  176.3580  175.1800 O.co2     1 CDP805      0.0000 
      8 O2A       101.5710  177.1460  175.5750 O.co2     1 CDP805      0.0000 
      9 O5'       102.1310  174.7850  174.8930 O.3       1 CDP805      0.0000 
     10 C5'       100.8140  174.4900  175.3210 C.3       1 CDP805      0.0000 
     11 C4'       100.1020  173.6430  174.2810 C.3       1 CDP805      0.0000 
     12 O4'       100.5360  174.0160  172.9730 O.3       1 CDP805      0.0000 
     13 C3'       100.4480  172.1840  174.4480 C.3       1 CDP805      0.0000 
     14 O3'        99.4490  171.5040  175.2050 O.3       1 CDP805      0.0000 
     15 C2'       100.4710  171.6640  173.0380 C.3       1 CDP805      0.0000 
     16 O2'        99.1580  171.2030  172.7390 O.3       1 CDP805      0.0000 
     17 C1'       100.7710  172.8640  172.1660 C.3       1 CDP805      0.0000 
     18 N1        102.1400  172.8320  171.6420 N.am      1 CDP805      0.0000 
     19 C2        102.3340  172.4960  170.2960 C.2       1 CDP805      0.0000 
     20 O2        101.3490  172.2290  169.5860 O.2       1 CDP805      0.0000 
     21 N3        103.5680  172.4560  169.7670 N.2       1 CDP805      0.0000 
     22 C4        104.6370  172.7410  170.5240 C.2       1 CDP805      0.0000 
     23 N4        105.8740  172.6960  169.9830 N.pl3     1 CDP805      0.0000 
     24 C5        104.4720  173.0790  171.8540 C.2       1 CDP805      0.0000 
     25 C6        103.1980  173.1210  172.3930 C.2       1 CDP805      0.0000 
@<TRIPOS>BOND
     1    1    2 ar   
     2    2    3 ar   
     3    2    4 ar   
     4    2    5 1    
     5    5    6 1    
     6    6    7 ar   
     7    6    8 ar   
     8    6    9 1    
     9    9   10 1    
    10   10   11 1    
    11   11   12 1    
    12   11   13 1    
    13   12   17 1    
    14   13   14 1    
    15   13   15 1    
    16   15   16 1    
    17   15   17 1    
    18   17   18 1    
    19   18   19 am   
    20   18   25 1    
    21   19   20 2    
    22   19   21 1    
    23   21   22 2    
    24   22   23 1    
    25   22   24 1    
    26   24   25 2    
@<TRIPOS>SUBSTRUCTURE
     1 CDP805      1 GROUP   
@<TRIPOS>SET
ATOM$ORANGE STATIC     ATOMS   COLORGROUP SYSTEM 
18 10 10 11 11 13 13 15 15 17 17 19 19 22 22 24 24 25 \
25 

