#    Name: 6aui_8_DTP
#    Modification time : Fri May 22 19:31:51 2020

@<TRIPOS>MOLECULE
6aui_8_DTP
   30    32     1     0     0
SMALL
NO_CHARGES


@<TRIPOS>ATOM
      1 PG         92.4350  139.3470  164.6330 P.3       1 DTP803      0.0000 
      2 O1G        91.0450  138.8120  164.8260 O.co2     1 DTP803      0.0000 
      3 O2G        92.5180  140.7480  165.1670 O.co2     1 DTP803      0.0000 
      4 O3G        93.4320  138.4670  165.3390 O.co2     1 DTP803      0.0000 
      5 PB         92.3100  140.6700  162.2310 P.3       1 DTP803      0.0000 
      6 O1B        92.3200  140.4990  160.7390 O.co2     1 DTP803      0.0000 
      7 O2B        90.9630  141.1520  162.6590 O.co2     1 DTP803      0.0000 
      8 O3B        92.6830  139.3510  163.0510 O.3       1 DTP803      0.0000 
      9 PA         93.2600  143.2040  162.7440 P.3       1 DTP803      0.0000 
     10 O1A        92.5790  143.6860  161.4970 O.co2     1 DTP803      0.0000 
     11 O2A        92.4050  143.4180  163.9610 O.co2     1 DTP803      0.0000 
     12 O3A        93.5110  141.6380  162.6310 O.3       1 DTP803      0.0000 
     13 O5'        94.7240  143.7940  163.0140 O.3       1 DTP803      0.0000 
     14 C5'        95.3470  143.3290  164.1990 C.3       1 DTP803      0.0000 
     15 C4'        96.7630  143.8290  164.4170 C.3       1 DTP803      0.0000 
     16 O4'        97.6330  143.1350  163.5440 O.3       1 DTP803      0.0000 
     17 C3'        96.9290  145.3240  164.2600 C.3       1 DTP803      0.0000 
     18 O3'        97.8770  145.7830  165.2180 O.3       1 DTP803      0.0000 
     19 C2'        97.5580  145.4230  162.8910 C.3       1 DTP803      0.0000 
     20 C1'        98.3120  144.1140  162.7900 C.3       1 DTP803      0.0000 
     21 N9         98.3280  143.6560  161.3950 N.pl3     1 DTP803      0.0000 
     22 C8         97.2840  143.1740  160.7220 C.2       1 DTP803      0.0000 
     23 N7         97.6900  142.8550  159.4770 N.2       1 DTP803      0.0000 
     24 C5         98.9970  143.1420  159.3960 C.ar      1 DTP803      0.0000 
     25 C6         99.9420  143.0300  158.3890 C.ar      1 DTP803      0.0000 
     26 N6         99.5890  142.5420  157.1830 N.pl3     1 DTP803      0.0000 
     27 N1        101.2100  143.4130  158.6260 N.ar      1 DTP803      0.0000 
     28 C2        101.5650  143.8960  159.8210 C.ar      1 DTP803      0.0000 
     29 N3        100.6720  144.0140  160.8040 N.ar      1 DTP803      0.0000 
     30 C4         99.3920  143.6430  160.6100 C.ar      1 DTP803      0.0000 
@<TRIPOS>BOND
     1    1    2 ar   
     2    1    3 ar   
     3    1    4 ar   
     4    1    8 1    
     5    5    6 ar   
     6    5    7 ar   
     7    5    8 1    
     8    5   12 1    
     9    9   10 ar   
    10    9   11 ar   
    11    9   12 1    
    12    9   13 1    
    13   13   14 1    
    14   14   15 1    
    15   15   16 1    
    16   15   17 1    
    17   16   20 1    
    18   17   18 1    
    19   17   19 1    
    20   19   20 1    
    21   20   21 1    
    22   21   22 1    
    23   21   30 1    
    24   22   23 2    
    25   23   24 1    
    26   24   25 ar   
    27   24   30 ar   
    28   25   26 1    
    29   25   27 ar   
    30   27   28 ar   
    31   28   29 ar   
    32   29   30 ar   
@<TRIPOS>SUBSTRUCTURE
     1 DTP803      1 GROUP   
@<TRIPOS>SET

