#    Name: 6aui_5_DTP
#    Modification time : Fri May 22 19:30:38 2020

@<TRIPOS>MOLECULE
6aui_5_DTP
   30    32     1     0     0
SMALL
NO_CHARGES


@<TRIPOS>ATOM
      1 PG        108.7880  104.9110  158.5480 P.3       1 DTP801      0.0000 
      2 O1G       107.5660  104.9470  157.6730 O.co2     1 DTP801      0.0000 
      3 O2G       108.3940  104.5960  159.9660 O.co2     1 DTP801      0.0000 
      4 O3G       109.7960  103.9370  157.9970 O.co2     1 DTP801      0.0000 
      5 PB        110.4630  106.6080  159.8870 P.3       1 DTP801      0.0000 
      6 O1B       111.1860  105.3290  160.2200 O.co2     1 DTP801      0.0000 
      7 O2B       109.6440  107.1460  161.0230 O.co2     1 DTP801      0.0000 
      8 O3B       109.4580  106.3570  158.6730 O.3       1 DTP801      0.0000 
      9 PA        112.1650  107.2590  157.9200 P.3       1 DTP801      0.0000 
     10 O1A       111.2690  107.6570  156.7820 O.co2     1 DTP801      0.0000 
     11 O2A       112.2010  105.7560  157.8650 O.co2     1 DTP801      0.0000 
     12 O3A       111.5210  107.6580  159.3240 O.3       1 DTP801      0.0000 
     13 O5'       113.6530  107.8360  157.7980 O.3       1 DTP801      0.0000 
     14 C5'       113.9300  109.2090  157.5640 C.3       1 DTP801      0.0000 
     15 C4'       115.4010  109.3980  157.2050 C.3       1 DTP801      0.0000 
     16 O4'       116.2010  109.1190  158.3430 O.3       1 DTP801      0.0000 
     17 C3'       115.8770  108.5130  156.0620 C.3       1 DTP801      0.0000 
     18 O3'       116.7680  109.2580  155.2310 O.3       1 DTP801      0.0000 
     19 C2'       116.6300  107.3750  156.7360 C.3       1 DTP801      0.0000 
     20 C1'       117.0850  108.0530  158.0190 C.3       1 DTP801      0.0000 
     21 N9        117.0550  107.0980  159.1490 N.pl3     1 DTP801      0.0000 
     22 C8        116.0920  106.2040  159.3870 C.2       1 DTP801      0.0000 
     23 N7        116.3860  105.5200  160.5090 N.2       1 DTP801      0.0000 
     24 C5        117.5430  106.0110  160.9690 C.ar      1 DTP801      0.0000 
     25 C6        118.3240  105.7110  162.0680 C.ar      1 DTP801      0.0000 
     26 N6        117.9330  104.7350  162.9160 N.pl3     1 DTP801      0.0000 
     27 N1        119.4690  106.3900  162.2710 N.ar      1 DTP801      0.0000 
     28 C2        119.8510  107.3560  161.4300 C.ar      1 DTP801      0.0000 
     29 N3        119.1110  107.6650  160.3630 N.ar      1 DTP801      0.0000 
     30 C4        117.9590  107.0050  160.1160 C.ar      1 DTP801      0.0000 
@<TRIPOS>BOND
     1    1    2 ar   
     2    1    3 ar   
     3    1    4 ar   
     4    1    8 1    
     5    5    6 ar   
     6    5    7 ar   
     7    5    8 1    
     8    5   12 1    
     9    9   10 ar   
    10    9   11 ar   
    11    9   12 1    
    12    9   13 1    
    13   13   14 1    
    14   14   15 1    
    15   15   16 1    
    16   15   17 1    
    17   16   20 1    
    18   17   18 1    
    19   17   19 1    
    20   19   20 1    
    21   20   21 1    
    22   21   22 1    
    23   21   30 1    
    24   22   23 2    
    25   23   24 1    
    26   24   25 ar   
    27   24   30 ar   
    28   25   26 1    
    29   25   27 ar   
    30   27   28 ar   
    31   28   29 ar   
    32   29   30 ar   
@<TRIPOS>SUBSTRUCTURE
     1 DTP801      1 GROUP   
@<TRIPOS>SET

