#    Name: 6aui_9_DTP
#    Modification time : Fri May 22 19:32:04 2020

@<TRIPOS>MOLECULE
6aui_9_DTP
   30    32     1     0     0
SMALL
NO_CHARGES


@<TRIPOS>ATOM
      1 PG        136.3930  225.8300  158.5290 P.3       1 DTP801      0.0000 
      2 O1G       137.1830  226.7680  157.6560 O.co2     1 DTP801      0.0000 
      3 O2G       136.2710  226.4080  159.9140 O.co2     1 DTP801      0.0000 
      4 O3G       135.0440  225.5370  157.9290 O.co2     1 DTP801      0.0000 
      5 PB        136.7770  223.5440  159.9760 P.3       1 DTP801      0.0000 
      6 O1B       135.3000  223.7070  160.2190 O.co2     1 DTP801      0.0000 
      7 O2B       137.6210  224.0280  161.1210 O.co2     1 DTP801      0.0000 
      8 O3B       137.1720  224.4470  158.7210 O.3       1 DTP801      0.0000 
      9 PA        136.4520  221.6990  158.0590 P.3       1 DTP801      0.0000 
     10 O1A       137.3650  222.1300  156.9470 O.co2     1 DTP801      0.0000 
     11 O2A       135.1760  222.4830  157.9140 O.co2     1 DTP801      0.0000 
     12 O3A       137.0670  222.0530  159.4890 O.3       1 DTP801      0.0000 
     13 O5'       136.1650  220.1370  157.8710 O.3       1 DTP801      0.0000 
     14 C5'       137.2280  219.2330  157.6040 C.3       1 DTP801      0.0000 
     15 C4'       136.7200  217.8200  157.3310 C.3       1 DTP801      0.0000 
     16 O4'       136.1020  217.3030  158.5020 O.3       1 DTP801      0.0000 
     17 C3'       135.7200  217.7500  156.1880 C.3       1 DTP801      0.0000 
     18 O3'       135.9390  216.5660  155.4220 O.3       1 DTP801      0.0000 
     19 C2'       134.3720  217.6580  156.8820 C.3       1 DTP801      0.0000 
     20 C1'       134.7460  216.9990  158.1990 C.3       1 DTP801      0.0000 
     21 N9        133.9030  217.5530  159.2810 N.pl3     1 DTP801      0.0000 
     22 C8        133.6600  218.8510  159.4790 C.2       1 DTP801      0.0000 
     23 N7        132.8650  218.9980  160.5560 N.2       1 DTP801      0.0000 
     24 C5        132.6230  217.7700  161.0270 C.ar      1 DTP801      0.0000 
     25 C6        131.8840  217.3040  162.0970 C.ar      1 DTP801      0.0000 
     26 N6        131.2320  218.1820  162.8930 N.pl3     1 DTP801      0.0000 
     27 N1        131.8250  215.9780  162.3160 N.ar      1 DTP801      0.0000 
     28 C2        132.4740  215.1180  161.5260 C.ar      1 DTP801      0.0000 
     29 N3        133.1940  215.5490  160.4910 N.ar      1 DTP801      0.0000 
     30 C4        133.2780  216.8650  160.2260 C.ar      1 DTP801      0.0000 
@<TRIPOS>BOND
     1    1    2 ar   
     2    1    3 ar   
     3    1    4 ar   
     4    1    8 1    
     5    5    6 ar   
     6    5    7 ar   
     7    5    8 1    
     8    5   12 1    
     9    9   10 ar   
    10    9   11 ar   
    11    9   12 1    
    12    9   13 1    
    13   13   14 1    
    14   14   15 1    
    15   15   16 1    
    16   15   17 1    
    17   16   20 1    
    18   17   18 1    
    19   17   19 1    
    20   19   20 1    
    21   20   21 1    
    22   21   22 1    
    23   21   30 1    
    24   22   23 2    
    25   23   24 1    
    26   24   25 ar   
    27   24   30 ar   
    28   25   26 1    
    29   25   27 ar   
    30   27   28 ar   
    31   28   29 ar   
    32   29   30 ar   
@<TRIPOS>SUBSTRUCTURE
     1 DTP801      1 GROUP   
@<TRIPOS>SET

