#    Name: 6aui_3_DTP
#    Modification time : Fri May 22 19:29:54 2020

@<TRIPOS>MOLECULE
6aui_3_DTP
   30    32     1     0     0
SMALL
NO_CHARGES


@<TRIPOS>ATOM
      1 PG        136.2390   89.0390  155.8550 P.3       1 DTP801      0.0000 
      2 O1G       136.0550   88.5270  154.4530 O.co2     1 DTP801      0.0000 
      3 O2G       134.9210   89.4320  156.4670 O.co2     1 DTP801      0.0000 
      4 O3G       136.9960   88.0080  156.6460 O.co2     1 DTP801      0.0000 
      5 PB        136.8520   91.3310  154.5040 P.3       1 DTP801      0.0000 
      6 O1B       137.6680   90.7030  153.4130 O.co2     1 DTP801      0.0000 
      7 O2B       135.3850   91.3010  154.1790 O.co2     1 DTP801      0.0000 
      8 O3B       137.1090   90.3740  155.7500 O.3       1 DTP801      0.0000 
      9 PA        136.5460   93.1860  156.4190 P.3       1 DTP801      0.0000 
     10 O1A       135.2340   92.4580  156.5230 O.co2     1 DTP801      0.0000 
     11 O2A       137.3870   92.6990  157.5650 O.co2     1 DTP801      0.0000 
     12 O3A       137.2320   92.7920  155.0280 O.3       1 DTP801      0.0000 
     13 O5'       136.2730   94.7480  156.6380 O.3       1 DTP801      0.0000 
     14 C5'       137.3180   95.6320  157.0130 C.3       1 DTP801      0.0000 
     15 C4'       136.8170   97.0490  157.2240 C.3       1 DTP801      0.0000 
     16 O4'       136.2450   97.4890  156.0020 O.3       1 DTP801      0.0000 
     17 C3'       135.7760   97.1580  158.3230 C.3       1 DTP801      0.0000 
     18 O3'       135.9540   98.3830  159.0330 O.3       1 DTP801      0.0000 
     19 C2'       134.4560   97.2100  157.5890 C.3       1 DTP801      0.0000 
     20 C1'       134.8860   97.8000  156.2580 C.3       1 DTP801      0.0000 
     21 N9        134.0360   97.2510  155.1840 N.pl3     1 DTP801      0.0000 
     22 C8        133.7540   95.9650  154.9790 C.2       1 DTP801      0.0000 
     23 N7        132.9450   95.8680  153.9050 N.2       1 DTP801      0.0000 
     24 C5        132.7360   97.1070  153.4490 C.ar      1 DTP801      0.0000 
     25 C6        132.0070   97.6220  152.3980 C.ar      1 DTP801      0.0000 
     26 N6        131.3190   96.7940  151.5850 N.pl3     1 DTP801      0.0000 
     27 N1        131.9980   98.9510  152.2060 N.ar      1 DTP801      0.0000 
     28 C2        132.6760   99.7750  153.0040 C.ar      1 DTP801      0.0000 
     29 N3        133.3850   99.2970  154.0230 N.ar      1 DTP801      0.0000 
     30 C4        133.4230   97.9730  154.2580 C.ar      1 DTP801      0.0000 
@<TRIPOS>BOND
     1    1    2 ar   
     2    1    3 ar   
     3    1    4 ar   
     4    1    8 1    
     5    5    6 ar   
     6    5    7 ar   
     7    5    8 1    
     8    5   12 1    
     9    9   10 ar   
    10    9   11 ar   
    11    9   12 1    
    12    9   13 1    
    13   13   14 1    
    14   14   15 1    
    15   15   16 1    
    16   15   17 1    
    17   16   20 1    
    18   17   18 1    
    19   17   19 1    
    20   19   20 1    
    21   20   21 1    
    22   21   22 1    
    23   21   30 1    
    24   22   23 2    
    25   23   24 1    
    26   24   25 ar   
    27   24   30 ar   
    28   25   26 1    
    29   25   27 ar   
    30   27   28 ar   
    31   28   29 ar   
    32   29   30 ar   
@<TRIPOS>SUBSTRUCTURE
     1 DTP801      1 GROUP   
@<TRIPOS>SET

