#    Name: 6b0u_1_PRO_ALA_LYS_LYS
#    Modification time : Fri May 22 19:31:29 2020

@<TRIPOS>MOLECULE
6b0u_1_PRO_ALA_LYS_LYS
   30    30     4     0     0
SMALL
NO_CHARGES


@<TRIPOS>ATOM
      1 N          47.7420  -19.1180   91.5010 N.am      1 PRO5        0.0000 
      2 CA         48.9210  -19.0420   90.6550 C.3       1 PRO5        0.0000 
      3 C          48.7450  -19.2320   89.1310 C.2       1 PRO5        0.0000 
      4 O          49.7170  -19.0090   88.4070 O.2       1 PRO5        0.0000 
      5 CB         49.8150  -20.1340   91.2540 C.3       1 PRO5        0.0000 
      6 CG         49.4680  -20.1260   92.7210 C.3       1 PRO5        0.0000 
      7 CD         48.1380  -19.4220   92.8890 C.3       1 PRO5        0.0000 
      8 N          47.5580  -19.6200   88.6440 N.am      2 ALA6        0.0000 
      9 CA         47.3460  -19.8200   87.1910 C.3       2 ALA6        0.0000 
     10 C          45.8740  -19.8620   86.7260 C.2       2 ALA6        0.0000 
     11 O          44.9520  -20.0250   87.5300 O.2       2 ALA6        0.0000 
     12 CB         48.0740  -21.0760   86.7170 C.3       2 ALA6        0.0000 
     13 N          45.7040  -19.7090   85.4070 N.am      3 LYS7        0.0000 
     14 CA         44.4170  -19.7960   84.6670 C.3       3 LYS7        0.0000 
     15 C          43.2030  -19.0080   85.2420 C.2       3 LYS7        0.0000 
     16 O          43.0800  -17.7970   84.9950 O.2       3 LYS7        0.0000 
     17 CB         44.0840  -21.2740   84.3350 C.3       3 LYS7        0.0000 
     18 CG         44.4540  -21.7020   82.9180 C.3       3 LYS7        0.0000 
     19 CD         43.3520  -21.3490   81.9210 C.3       3 LYS7        0.0000 
     20 CE         43.8460  -21.3950   80.4850 C.3       3 LYS7        0.0000 
     21 NZ         42.8430  -21.9690   79.5480 N.4       3 LYS7        0.0000 
     22 N          42.3280  -19.6820   85.9930 N.am      4 LYS8        0.0000 
     23 CA         41.0740  -19.0910   86.4570 C.3       4 LYS8        0.0000 
     24 C          41.3100  -18.4050   87.8000 C.2       4 LYS8        0.0000 
     25 O          40.3700  -18.0880   88.5260 O.2       4 LYS8        0.0000 
     26 CB         39.9690  -20.1580   86.5500 C.3       4 LYS8        0.0000 
     27 CG         40.1110  -21.1760   87.6860 C.3       4 LYS8        0.0000 
     28 CD         39.5790  -22.5590   87.3130 C.3       4 LYS8        0.0000 
     29 CE         38.0540  -22.6240   87.2430 C.3       4 LYS8        0.0000 
     30 NZ         37.4300  -23.0280   88.5330 N.4       4 LYS8        0.0000 
@<TRIPOS>BOND
     1    1    2 1    
     2    1    7 1    
     3    2    3 1    
     4    2    5 1    
     5    3    4 2    
     6    3    8 am   
     7    5    6 1    
     8    6    7 1    
     9    8    9 1    
    10    9   10 1    
    11    9   12 1    
    12   10   11 2    
    13   10   13 am   
    14   13   14 1    
    15   14   15 1    
    16   14   17 1    
    17   15   16 2    
    18   15   22 am   
    19   17   18 1    
    20   18   19 1    
    21   19   20 1    
    22   20   21 1    
    23   22   23 1    
    24   23   24 1    
    25   23   26 1    
    26   24   25 2    
    27   26   27 1    
    28   27   28 1    
    29   28   29 1    
    30   29   30 1    
@<TRIPOS>SUBSTRUCTURE
     1 PRO5        1 RESIDUE 
     2 ALA6        8 RESIDUE 
     3 LYS7       13 RESIDUE 
     4 LYS8       22 RESIDUE 
@<TRIPOS>SET

