#    Name: 6b0u_6_COA_CAVITY_N1_8
#    Modification time : Fri May 22 19:32:01 2020

@<TRIPOS>MOLECULE
6b0u_6_COA_CAVITY_N1_8
   52     0     6     0     0
SMALL
NO_CHARGES


@<TRIPOS>ATOM
      1 O          73.3900    8.6100   92.9100 O.2       1 ALA2        0.0000 
      2 N          72.6000    6.7700   96.6500 N.am      1 ALA2        0.0000 
      3 N          74.0200    9.7800   93.6200 N.am      1 ALA2        0.0000 
      4 N          73.2300    7.9400   97.3600 N.am      1 ALA2        0.0000 
      5 O          72.1000    7.9700   98.3300 O.2       1 ALA2        0.0000 
      6 N          68.9600   11.0700   99.2000 N.am      1 ALA2        0.0000 
      7 N          69.7000   10.1300  100.1000 N.am      1 ALA2        0.0000 
      8 N          68.5600   10.1500  101.0700 N.am      1 ALA2        0.0000 
      9 N          67.4300   10.1800  102.0500 N.am      1 ALA2        0.0000 
     10 O          71.5900    9.1600  100.0200 O.2       1 ALA2        0.0000 
     11 N          70.3300   11.2900  100.8000 N.am      1 ALA2        0.0000 
     12 N          69.2000   11.3200  101.7800 N.am      1 ALA2        0.0000 
     13 N          70.2200   13.4000  100.6100 N.am      1 ALA2        0.0000 
     14 OD1        72.3700   10.9900   96.2700 O.co2     2 ASP3        0.0000 
     15 OD1        74.2600   10.0200   96.1900 O.co2     2 ASP3        0.0000 
     16 OD1        73.1200   10.0500   97.1700 O.co2     2 ASP3        0.0000 
     17 NZ         68.5900    4.0100   92.0500 N.4       3 LYS4        0.0000 
     18 NZ         69.9700    4.2300   93.6500 N.4       3 LYS4        0.0000 
     19 NZ         71.7400    5.3600   93.3700 N.4       3 LYS4        0.0000 
     20 NZ         69.4600    5.4200   95.3300 N.4       3 LYS4        0.0000 
     21 NZ         72.3700    6.5300   94.0800 N.4       3 LYS4        0.0000 
     22 NZ         71.2300    6.5600   95.0500 N.4       3 LYS4        0.0000 
     23 NZ         70.0900    6.5800   96.0300 N.4       3 LYS4        0.0000 
     24 NZ         71.9700    5.6100   95.9500 N.4       3 LYS4        0.0000 
     25 NZ         72.2500    8.6400   93.8900 N.4       3 LYS4        0.0000 
     26 NZ         71.1100    8.6600   94.8600 N.4       3 LYS4        0.0000 
     27 NZ         69.9700    8.6900   95.8400 N.4       3 LYS4        0.0000 
     28 NZ         71.8600    7.7200   95.7600 N.4       3 LYS4        0.0000 
     29 NZ         70.4900   11.9600   96.3500 N.4       3 LYS4        0.0000 
     30 NZ         71.2300   11.0200   97.2500 N.4       3 LYS4        0.0000 
     31 NZ         70.1000   11.0500   98.2300 N.4       3 LYS4        0.0000 
     32 NZ         71.4700   11.2700   99.8200 N.4       3 LYS4        0.0000 
     33 CZ         73.0000    7.6900   94.7800 C.ar      4 PHE5        0.0000 
     34 CA         71.3400    4.4500   95.2400 C.3       5 GLY6        0.0000 
     35 CA         72.7600    7.4500   92.2100 C.3       5 GLY6        0.0000 
     36 CA         72.8800    9.8000   94.5900 C.3       5 GLY6        0.0000 
     37 CA         71.7400    9.8300   95.5700 C.3       5 GLY6        0.0000 
     38 CA         70.6000    9.8600   96.5400 C.3       5 GLY6        0.0000 
     39 CA         67.1900    9.9300   99.4700 C.3       5 GLY6        0.0000 
     40 CA         70.9600    7.9900   99.3100 C.3       5 GLY6        0.0000 
     41 CA         71.9800   10.0700   98.1400 C.3       5 GLY6        0.0000 
     42 CA         72.7300    9.1300   99.0400 C.3       5 GLY6        0.0000 
     43 CA         72.6100   11.2400   98.8500 C.3       5 GLY6        0.0000 
     44 DU         70.8400    5.6400   96.9300 H         6 CUB7        0.0000 
     45 DU         70.7200    7.7500   96.7400 H         6 CUB7        0.0000 
     46 DU         71.4700    6.8000   97.6300 H         6 CUB7        0.0000 
     47 DU         69.4700    9.8800   97.5200 H         6 CUB7        0.0000 
     48 DU         73.6300    8.8600   95.4900 H         6 CUB7        0.0000 
     49 DU         72.4900    8.8800   96.4600 H         6 CUB7        0.0000 
     50 DU         71.3500    8.9100   97.4400 H         6 CUB7        0.0000 
     51 DU         70.8400   10.1000   99.1200 H         6 CUB7        0.0000 
     52 DU         70.4500    9.1800  100.9900 H         6 CUB7        0.0000 
@<TRIPOS>BOND
@<TRIPOS>SUBSTRUCTURE
     1 ALA2        1 GROUP   
     2 ASP3       14 GROUP   
     3 LYS4       17 GROUP   
     4 PHE5       33 GROUP   
     5 GLY6       34 GROUP   
     6 CUB7       44 GROUP   
@<TRIPOS>SET

