#    Name: 6b0u_4_COA
#    Modification time : Fri May 22 19:31:47 2020

@<TRIPOS>MOLECULE
6b0u_4_COA
   21    21     1     0     1
SMALL
NO_CHARGES


@<TRIPOS>ATOM
      1 C1B        45.7710   32.7270  120.3570 C.3       1 COA501      0.0000 
      2 C2B        45.5820   33.9470  119.4660 C.3       1 COA501      0.0000 
      3 O2B        46.3400   33.7870  118.2580 O.3       1 COA501      0.0000 
      4 C3B        46.0210   35.1380  120.3080 C.3       1 COA501      0.0000 
      5 O3B        47.0970   35.8580  119.7130 O.3       1 COA501      0.0000 
      6 P3B        46.8220   37.0210  118.6380 P.3       1 COA501      0.0000 
      7 O7A        46.0620   36.3310  117.5270 O.co2     1 COA501      0.0000 
      8 O8A        46.0200   38.0490  119.4000 O.co2     1 COA501      0.0000 
      9 O9A        48.2150   37.4650  118.2600 O.co2     1 COA501      0.0000 
     10 C4B        46.4630   34.5460  121.6500 C.3       1 COA501      0.0000 
     11 O4B        45.9520   33.2070  121.6930 O.3       1 COA501      0.0000 
     12 C5B        46.0510   35.3410  122.8970 C.3       1 COA501      0.0000 
     13 O5B        44.7830   35.9870  122.7560 O.3       1 COA501      0.0000 
     14 P1A        43.5120   35.6840  123.7020 P.3       1 COA501      0.0000 
     15 O1A        42.2970   36.2540  123.0070 O.co2     1 COA501      0.0000 
     16 O2A        43.8400   36.1300  125.1080 O.co2     1 COA501      0.0000 
     17 O3A        43.3980   34.0750  123.6700 O.3       1 COA501      0.0000 
     18 P2A        41.9670   33.3310  123.7200 P.3       1 COA501      0.0000 
     19 O4A        41.5140   33.0680  122.3080 O.co2     1 COA501      0.0000 
     20 O5A        41.0530   34.0780  124.6670 O.co2     1 COA501      0.0000 
     21 O6A        42.3470   31.9090  124.3660 O.3       1 COA501      0.0000 
@<TRIPOS>BOND
     1    1    2 1    
     2    1   11 1    
     3    2    3 1    
     4    2    4 1    
     5    4    5 1    
     6    4   10 1    
     7    5    6 1    
     8    6    7 ar   
     9    6    8 ar   
    10    6    9 ar   
    11   10   11 1    
    12   10   12 1    
    13   12   13 1    
    14   13   14 1    
    15   14   15 ar   
    16   14   16 ar   
    17   14   17 1    
    18   17   18 1    
    19   18   19 ar   
    20   18   20 ar   
    21   18   21 1    
@<TRIPOS>SUBSTRUCTURE
     1 COA501      1 GROUP   
@<TRIPOS>SET
ATOM$ORANGE STATIC     ATOMS   COLORGROUP SYSTEM 
10 1 1 2 2 4 4 10 10 12 12 

