#    Name: 6b0u_6_COA_CAVITY_N1_6
#    Modification time : Fri May 22 19:32:01 2020

@<TRIPOS>MOLECULE
6b0u_6_COA_CAVITY_N1_6
   15     0     5     0     0
SMALL
NO_CHARGES


@<TRIPOS>ATOM
      1 N          68.9600   11.0700   99.2000 N.am      1 ALA2        0.0000 
      2 OD1        72.3700   10.9900   96.2700 O.co2     2 ASP3        0.0000 
      3 NZ         70.0900    6.5800   96.0300 N.4       3 LYS4        0.0000 
      4 NZ         72.2500    8.6400   93.8900 N.4       3 LYS4        0.0000 
      5 NZ         71.1100    8.6600   94.8600 N.4       3 LYS4        0.0000 
      6 NZ         69.9700    8.6900   95.8400 N.4       3 LYS4        0.0000 
      7 NZ         70.4900   11.9600   96.3500 N.4       3 LYS4        0.0000 
      8 NZ         71.2300   11.0200   97.2500 N.4       3 LYS4        0.0000 
      9 NZ         70.1000   11.0500   98.2300 N.4       3 LYS4        0.0000 
     10 CA         71.7400    9.8300   95.5700 C.3       4 GLY6        0.0000 
     11 CA         70.6000    9.8600   96.5400 C.3       4 GLY6        0.0000 
     12 CA         67.1900    9.9300   99.4700 C.3       4 GLY6        0.0000 
     13 DU         70.7200    7.7500   96.7400 H         5 CUB7        0.0000 
     14 DU         69.4700    9.8800   97.5200 H         5 CUB7        0.0000 
     15 DU         71.3500    8.9100   97.4400 H         5 CUB7        0.0000 
@<TRIPOS>BOND
@<TRIPOS>SUBSTRUCTURE
     1 ALA2        1 GROUP   
     2 ASP3        2 GROUP   
     3 LYS4        3 GROUP   
     4 GLY6       10 GROUP   
     5 CUB7       13 GROUP   
@<TRIPOS>SET

