#    Name: 6b0u_4_COA_CAVITY_N1_4
#    Modification time : Fri May 22 19:31:48 2020

@<TRIPOS>MOLECULE
6b0u_4_COA_CAVITY_N1_4
   61     0     5     0     0
SMALL
NO_CHARGES


@<TRIPOS>ATOM
      1 O          40.7100   33.0300  123.3100 O.2       1 ALA2        0.0000 
      2 O          42.4800   34.1700  123.0300 O.2       1 ALA2        0.0000 
      3 O          41.3500   34.1900  124.0100 O.2       1 ALA2        0.0000 
      4 O          41.6200   37.2200  121.9500 O.2       1 ALA2        0.0000 
      5 O          42.3700   36.2800  122.8400 O.2       1 ALA2        0.0000 
      6 O          43.1100   35.3300  123.7400 O.2       1 ALA2        0.0000 
      7 O          41.9800   35.3600  124.7100 O.2       1 ALA2        0.0000 
      8 O          45.6300   35.5300  124.3600 O.2       1 ALA2        0.0000 
      9 OD1        42.0800   28.7800  122.7100 O.co2     2 ASP3        0.0000 
     10 OD1        46.1300   29.8700  120.4900 O.co2     2 ASP3        0.0000 
     11 OD1        44.9900   29.9000  121.4600 O.co2     2 ASP3        0.0000 
     12 OD1        42.7100   29.9500  123.4100 O.co2     2 ASP3        0.0000 
     13 OD1        41.8500   33.0000  122.3300 O.co2     2 ASP3        0.0000 
     14 OD1        46.0100   31.9800  120.2900 O.co2     2 ASP3        0.0000 
     15 OD1        42.6000   32.0600  123.2200 O.co2     2 ASP3        0.0000 
     16 OD1        45.6200   31.0600  122.1700 O.co2     2 ASP3        0.0000 
     17 OD1        44.4800   31.0900  123.1400 O.co2     2 ASP3        0.0000 
     18 OD1        42.8800   35.0900  121.1600 O.co2     2 ASP3        0.0000 
     19 OD1        44.7600   34.1200  121.0800 O.co2     2 ASP3        0.0000 
     20 OD1        43.6200   34.1400  122.0600 O.co2     2 ASP3        0.0000 
     21 OD1        46.6500   33.1500  121.0000 O.co2     2 ASP3        0.0000 
     22 OD1        45.5100   33.1700  121.9800 O.co2     2 ASP3        0.0000 
     23 OD1        44.3700   33.2000  122.9500 O.co2     2 ASP3        0.0000 
     24 OD1        47.3900   32.2000  121.8900 O.co2     2 ASP3        0.0000 
     25 OD1        47.2800   34.3100  121.7000 O.co2     2 ASP3        0.0000 
     26 OD1        48.0200   33.3700  122.6000 O.co2     2 ASP3        0.0000 
     27 OD1        47.1600   36.4200  121.5100 O.co2     2 ASP3        0.0000 
     28 OD1        46.0200   36.4500  122.4900 O.co2     2 ASP3        0.0000 
     29 OD1        45.9100   38.5600  122.3000 O.co2     2 ASP3        0.0000 
     30 OD1        44.7700   38.5800  123.2800 O.co2     2 ASP3        0.0000 
     31 CZ         46.7700   35.5000  123.3800 C.ar      3 PHE5        0.0000 
     32 CA         40.8300   30.9200  123.5000 C.3       4 GLY6        0.0000 
     33 CA         41.5800   29.9700  124.3900 C.3       4 GLY6        0.0000 
     34 CA         44.6000   28.9800  123.3300 C.3       4 GLY6        0.0000 
     35 CA         43.4600   29.0000  124.3100 C.3       4 GLY6        0.0000 
     36 CA         42.3200   29.0300  125.2900 C.3       4 GLY6        0.0000 
     37 CA         41.4600   32.0800  124.2000 C.3       4 GLY6        0.0000 
     38 CA         46.7600   31.0400  121.1900 C.3       4 GLY6        0.0000 
     39 CA         43.3500   31.1100  124.1200 C.3       4 GLY6        0.0000 
     40 CA         42.2100   31.1400  125.0900 C.3       4 GLY6        0.0000 
     41 CA         46.3700   30.1200  123.0600 C.3       4 GLY6        0.0000 
     42 CA         45.2300   30.1400  124.0400 C.3       4 GLY6        0.0000 
     43 CA         44.8400   29.2200  125.9100 C.3       4 GLY6        0.0000 
     44 CA         43.7000   29.2500  126.8800 C.3       4 GLY6        0.0000 
     45 CA         42.1300   36.0300  120.2700 C.3       4 GLY6        0.0000 
     46 CA         41.7400   35.1100  122.1400 C.3       4 GLY6        0.0000 
     47 CA         43.2300   33.2200  123.9300 C.3       4 GLY6        0.0000 
     48 CA         42.0900   33.2500  124.9000 C.3       4 GLY6        0.0000 
     49 CA         46.2500   32.2300  122.8700 C.3       4 GLY6        0.0000 
     50 CA         47.0000   31.2800  123.7700 C.3       4 GLY6        0.0000 
     51 CA         45.0000   34.3600  123.6600 C.3       4 GLY6        0.0000 
     52 CA         43.8600   34.3900  124.6300 C.3       4 GLY6        0.0000 
     53 CA         46.8800   33.3900  123.5700 C.3       4 GLY6        0.0000 
     54 CA         44.1400   37.4200  122.5700 C.3       4 GLY6        0.0000 
     55 CA         44.8800   36.4700  123.4700 C.3       4 GLY6        0.0000 
     56 CA         43.7400   36.5000  124.4400 C.3       4 GLY6        0.0000 
     57 DU         43.5100   36.2500  121.8700 H         5 CUB7        0.0000 
     58 DU         46.5300   35.2600  120.8100 H         5 CUB7        0.0000 
     59 DU         45.3900   35.2800  121.7900 H         5 CUB7        0.0000 
     60 DU         44.2500   35.3100  122.7600 H         5 CUB7        0.0000 
     61 DU         46.1400   34.3400  122.6800 H         5 CUB7        0.0000 
@<TRIPOS>BOND
@<TRIPOS>SUBSTRUCTURE
     1 ALA2        1 GROUP   
     2 ASP3        9 GROUP   
     3 PHE5       31 GROUP   
     4 GLY6       32 GROUP   
     5 CUB7       57 GROUP   
@<TRIPOS>SET

