#    Name: 6b0u_5_COA
#    Modification time : Fri May 22 19:31:55 2020

@<TRIPOS>MOLECULE
6b0u_5_COA
   24    23     1     0     1
SMALL
NO_CHARGES


@<TRIPOS>ATOM
      1 C1B        77.1830  -11.7760  112.4010 C.3       1 COA501      0.0000 
      2 C2B        77.1210  -13.0670  113.2060 C.3       1 COA501      0.0000 
      3 O2B        76.2670  -12.8840  114.3440 O.3       1 COA501      0.0000 
      4 C3B        78.5590  -13.4310  113.5800 C.3       1 COA501      0.0000 
      5 O3B        78.7340  -13.6740  114.9880 O.3       1 COA501      0.0000 
      6 P3B        80.0340  -14.4010  115.6360 P.3       1 COA501      0.0000 
      7 O7A        80.1360  -15.7350  114.9270 O.co2     1 COA501      0.0000 
      8 O8A        81.1860  -13.4620  115.3640 O.co2     1 COA501      0.0000 
      9 O9A        79.7010  -14.5120  117.1060 O.co2     1 COA501      0.0000 
     10 C4B        79.4120  -12.2440  113.1130 C.3       1 COA501      0.0000 
     11 O4B        78.5640  -11.4080  112.3050 O.3       1 COA501      0.0000 
     12 C5B        80.7180  -12.5690  112.3540 C.3       1 COA501      0.0000 
     13 O5B        81.0400  -13.9650  112.2610 O.3       1 COA501      0.0000 
     14 P1A        81.0390  -14.7950  110.8700 P.3       1 COA501      0.0000 
     15 O1A        82.2880  -14.4460  110.0990 O.co2     1 COA501      0.0000 
     16 O2A        80.7400  -16.2440  111.1810 O.co2     1 COA501      0.0000 
     17 O3A        79.7730  -14.1740  110.0940 O.3       1 COA501      0.0000 
     18 P2A        78.9850  -14.9760  108.9420 P.3       1 COA501      0.0000 
     19 O4A        78.4990  -13.7860  107.9780 O.co2     1 COA501      0.0000 
     20 O5A        79.9600  -15.8570  108.1860 O.co2     1 COA501      0.0000 
     21 O6A        77.7330  -15.5540  109.5580 O.3       1 COA501      0.0000 
     22 C3P        80.4500   -5.5370  107.5330 Du        1 COA501      0.0000 
     23 C2P        81.5060   -5.5150  108.6440 Du        1 COA501      0.0000 
     24 S1P        83.1650   -5.0530  108.0130 Du        1 COA501      0.0000 
@<TRIPOS>BOND
     1    1    2 1    
     2    1   11 1    
     3    2    3 1    
     4    2    4 1    
     5    4    5 1    
     6    4   10 1    
     7    5    6 1    
     8    6    7 ar   
     9    6    8 ar   
    10    6    9 ar   
    11   10   11 1    
    12   10   12 1    
    13   12   13 1    
    14   13   14 1    
    15   14   15 ar   
    16   14   16 ar   
    17   14   17 1    
    18   17   18 1    
    19   18   19 ar   
    20   18   20 ar   
    21   18   21 1    
    22   22   23 du   
    23   23   24 du   
@<TRIPOS>SUBSTRUCTURE
     1 COA501      1 GROUP   
@<TRIPOS>SET
ATOM$ORANGE STATIC     ATOMS   COLORGROUP SYSTEM 
10 1 1 2 2 4 4 10 10 12 12 

