#    Name: 6b0u_3_COA
#    Modification time : Fri May 22 19:31:42 2020

@<TRIPOS>MOLECULE
6b0u_3_COA
   35    36     1     0     1
SMALL
NO_CHARGES


@<TRIPOS>ATOM
      1 N1A        27.9080  -18.8580   92.5560 N.ar      1 COA502      0.0000 
      2 C2A        27.0520  -19.3670   93.4790 C.ar      1 COA502      0.0000 
      3 N3A        25.9630  -20.1020   93.1510 N.ar      1 COA502      0.0000 
      4 C4A        25.6590  -20.3780   91.8510 C.ar      1 COA502      0.0000 
      5 C5A        26.5590  -19.8530   90.8030 C.ar      1 COA502      0.0000 
      6 C6A        27.7310  -19.0540   91.2230 C.ar      1 COA502      0.0000 
      7 N6A        28.5730  -18.5550   90.2820 N.pl3     1 COA502      0.0000 
      8 N7A        26.0680  -20.2350   89.6200 N.2       1 COA502      0.0000 
      9 C8A        24.9550  -20.9490   89.8830 C.2       1 COA502      0.0000 
     10 N9A        24.6940  -21.0360   91.1910 N.pl3     1 COA502      0.0000 
     11 C1B        23.5280  -21.8010   91.7160 C.3       1 COA502      0.0000 
     12 C2B        22.1760  -21.2540   91.2620 C.3       1 COA502      0.0000 
     13 O2B        21.3410  -20.9480   92.3900 O.3       1 COA502      0.0000 
     14 C3B        21.5770  -22.3180   90.3390 C.3       1 COA502      0.0000 
     15 O3B        20.2520  -22.7380   90.7330 O.3       1 COA502      0.0000 
     16 P3B        19.8350  -23.8180   91.8680 P.3       1 COA502      0.0000 
     17 O7A        18.5060  -23.2990   92.3600 O.co2     1 COA502      0.0000 
     18 O8A        19.7470  -25.1400   91.1370 O.co2     1 COA502      0.0000 
     19 O9A        20.9430  -23.7460   92.8940 O.co2     1 COA502      0.0000 
     20 C4B        22.6070  -23.4660   90.2550 C.3       1 COA502      0.0000 
     21 O4B        23.6460  -23.1310   91.1830 O.3       1 COA502      0.0000 
     22 C5B        23.1990  -23.7750   88.8640 C.3       1 COA502      0.0000 
     23 O5B        22.4120  -23.2160   87.8050 O.3       1 COA502      0.0000 
     24 P1A        22.8460  -22.2120   86.6050 P.3       1 COA502      0.0000 
     25 O1A        21.7320  -21.1950   86.4810 O.co2     1 COA502      0.0000 
     26 O2A        23.2090  -23.0940   85.4370 O.co2     1 COA502      0.0000 
     27 O3A        24.1920  -21.4060   86.9830 O.3       1 COA502      0.0000 
     28 P2A        24.4980  -19.8900   86.4980 P.3       1 COA502      0.0000 
     29 O4A        23.6890  -18.9800   87.3710 O.3       1 COA502      0.0000 
     30 O5A        25.9880  -19.6660   86.4590 O.co2     1 COA502      0.0000 
     31 O6A        23.9110  -19.7940   84.9960 O.co2     1 COA502      0.0000 
     32 N4P        55.0940  -17.7440   90.2820 Du        1 COA502      0.0000 
     33 C3P        56.5070  -17.4130   90.3920 Du        1 COA502      0.0000 
     34 C2P        57.4090  -18.6120   90.0870 Du        1 COA502      0.0000 
     35 S1P        59.0760  -18.0210   89.6340 Du        1 COA502      0.0000 
@<TRIPOS>BOND
     1    1    2 ar   
     2    1    6 ar   
     3    2    3 ar   
     4    3    4 ar   
     5    4    5 ar   
     6    4   10 1    
     7    5    6 ar   
     8    5    8 1    
     9    6    7 1    
    10    8    9 2    
    11    9   10 1    
    12   10   11 1    
    13   11   12 1    
    14   11   21 1    
    15   12   13 1    
    16   12   14 1    
    17   14   15 1    
    18   14   20 1    
    19   15   16 1    
    20   16   17 ar   
    21   16   18 ar   
    22   16   19 ar   
    23   20   21 1    
    24   20   22 1    
    25   22   23 1    
    26   23   24 1    
    27   24   25 ar   
    28   24   26 ar   
    29   24   27 1    
    30   27   28 1    
    31   28   29 1    
    32   28   30 ar   
    33   28   31 ar   
    34   32   33 du   
    35   33   34 du   
    36   34   35 du   
@<TRIPOS>SUBSTRUCTURE
     1 COA502      1 GROUP   
@<TRIPOS>SET
ATOM$ORANGE STATIC     ATOMS   COLORGROUP SYSTEM 
20 2 2 4 4 5 5 6 6 9 9 11 11 12 12 14 14 20 \
20 22 22 

