#    Name: 6b0u_3_COA_CAVITY_N1_4
#    Modification time : Fri May 22 19:31:43 2020

@<TRIPOS>MOLECULE
6b0u_3_COA_CAVITY_N1_4
   74     0     5     0     0
SMALL
NO_CHARGES


@<TRIPOS>ATOM
      1 O          22.9500  -21.4800   85.5800 O.2       1 ALA2        0.0000 
      2 O          21.8100  -21.4500   86.5600 O.2       1 ALA2        0.0000 
      3 O          20.6700  -21.4200   87.5400 O.2       1 ALA2        0.0000 
      4 O          24.7200  -20.3400   85.3100 O.2       1 ALA2        0.0000 
      5 O          23.5800  -20.3100   86.2900 O.2       1 ALA2        0.0000 
      6 OD1        21.5300  -24.4800   88.6200 O.co2     2 ASP3        0.0000 
      7 OD1        22.9100  -24.2600   90.2200 O.co2     2 ASP3        0.0000 
      8 OD1        23.1900  -21.2300   88.1600 O.co2     2 ASP3        0.0000 
      9 OD1        22.0500  -21.2100   89.1400 O.co2     2 ASP3        0.0000 
     10 OD1        24.6800  -23.1200   89.9500 O.co2     2 ASP3        0.0000 
     11 OD1        23.5400  -23.0900   90.9300 O.co2     2 ASP3        0.0000 
     12 OD1        24.2100  -19.1500   86.9900 O.co2     2 ASP3        0.0000 
     13 OD1        24.9600  -20.0900   87.8900 O.co2     2 ASP3        0.0000 
     14 OD1        23.8200  -20.0700   88.8600 O.co2     2 ASP3        0.0000 
     15 OD1        24.5600  -21.0100   89.7600 O.co2     2 ASP3        0.0000 
     16 OD1        23.4200  -20.9900   90.7400 O.co2     2 ASP3        0.0000 
     17 OD1        25.3100  -21.9600   90.6500 O.co2     2 ASP3        0.0000 
     18 OD1        25.9800  -18.0100   86.7200 O.co2     2 ASP3        0.0000 
     19 OD1        26.7200  -18.9500   87.6200 O.co2     2 ASP3        0.0000 
     20 OD1        26.3300  -19.8700   89.4900 O.co2     2 ASP3        0.0000 
     21 OD1        25.1900  -19.8500   90.4600 O.co2     2 ASP3        0.0000 
     22 OD1        24.0600  -19.8200   91.4400 O.co2     2 ASP3        0.0000 
     23 OD1        25.9400  -20.7900   91.3600 O.co2     2 ASP3        0.0000 
     24 OD1        26.6900  -21.7400   92.2500 O.co2     2 ASP3        0.0000 
     25 OD1        25.5500  -21.7100   93.2300 O.co2     2 ASP3        0.0000 
     26 OD1        28.4900  -17.8100   87.3400 O.co2     2 ASP3        0.0000 
     27 OD1        28.1000  -18.7300   89.2200 O.co2     2 ASP3        0.0000 
     28 OD1        26.5700  -19.6300   92.0600 O.co2     2 ASP3        0.0000 
     29 OD1        27.2400  -15.6800   88.1300 O.co2     2 ASP3        0.0000 
     30 OD1        29.1200  -16.6500   88.0500 O.co2     2 ASP3        0.0000 
     31 OD1        27.9900  -16.6200   89.0300 O.co2     2 ASP3        0.0000 
     32 OD1        28.7300  -17.5700   89.9200 O.co2     2 ASP3        0.0000 
     33 OD1        27.5900  -17.5400   90.9000 O.co2     2 ASP3        0.0000 
     34 NZ         31.2500  -17.3700   90.5400 N.4       3 LYS4        0.0000 
     35 NZ         30.1100  -17.3500   91.5200 N.4       3 LYS4        0.0000 
     36 CA         21.9300  -23.5600   86.7500 C.3       4 GLY6        0.0000 
     37 CA         23.7000  -22.4200   86.4800 C.3       4 GLY6        0.0000 
     38 CA         24.4400  -23.3700   87.3700 C.3       4 GLY6        0.0000 
     39 CA         22.4400  -20.2900   87.2700 C.3       4 GLY6        0.0000 
     40 CA         21.3000  -20.2600   88.2400 C.3       4 GLY6        0.0000 
     41 CA         24.3300  -21.2600   87.1800 C.3       4 GLY6        0.0000 
     42 CA         25.0700  -22.2000   88.0800 C.3       4 GLY6        0.0000 
     43 CA         25.3500  -19.1700   86.0200 C.3       4 GLY6        0.0000 
     44 CA         27.2300  -20.1400   85.9400 C.3       4 GLY6        0.0000 
     45 CA         26.0900  -20.1200   86.9100 C.3       4 GLY6        0.0000 
     46 CA         25.7000  -21.0400   88.7800 C.3       4 GLY6        0.0000 
     47 CA         27.8600  -18.9800   86.6400 C.3       4 GLY6        0.0000 
     48 CA         29.7500  -19.9500   86.5600 C.3       4 GLY6        0.0000 
     49 CA         28.6100  -19.9200   87.5300 C.3       4 GLY6        0.0000 
     50 CA         27.4700  -19.9000   88.5100 C.3       4 GLY6        0.0000 
     51 CA         29.3600  -20.8700   88.4300 C.3       4 GLY6        0.0000 
     52 CA         28.2200  -20.8400   89.4100 C.3       4 GLY6        0.0000 
     53 CA         27.0800  -20.8200   90.3800 C.3       4 GLY6        0.0000 
     54 CA         27.7500  -16.8700   86.4500 C.3       4 GLY6        0.0000 
     55 CA         29.9900  -19.7000   89.1300 C.3       4 GLY6        0.0000 
     56 CA         28.8500  -19.6800   90.1100 C.3       4 GLY6        0.0000 
     57 CA         27.7100  -19.6500   91.0900 C.3       4 GLY6        0.0000 
     58 CA         27.3200  -20.5700   92.9600 C.3       4 GLY6        0.0000 
     59 CA         31.7500  -18.5600   88.8600 C.3       4 GLY6        0.0000 
     60 CA         30.6200  -18.5400   89.8400 C.3       4 GLY6        0.0000 
     61 CA         29.4800  -18.5100   90.8100 C.3       4 GLY6        0.0000 
     62 CA         28.3400  -18.4900   91.7900 C.3       4 GLY6        0.0000 
     63 DU         22.5600  -22.4000   87.4600 H         5 CUB7        0.0000 
     64 DU         21.4200  -22.3700   88.4300 H         5 CUB7        0.0000 
     65 DU         23.3000  -23.3400   88.3500 H         5 CUB7        0.0000 
     66 DU         22.1600  -23.3100   89.3300 H         5 CUB7        0.0000 
     67 DU         23.9300  -22.1800   89.0500 H         5 CUB7        0.0000 
     68 DU         22.7900  -22.1500   90.0300 H         5 CUB7        0.0000 
     69 DU         30.3800  -18.7800   87.2600 H         5 CUB7        0.0000 
     70 DU         29.2400  -18.7600   88.2400 H         5 CUB7        0.0000 
     71 DU         31.1200  -19.7300   88.1600 H         5 CUB7        0.0000 
     72 DU         31.0100  -17.6200   87.9700 H         5 CUB7        0.0000 
     73 DU         29.8700  -17.5900   88.9400 H         5 CUB7        0.0000 
     74 DU         30.5000  -16.4300   89.6500 H         5 CUB7        0.0000 
@<TRIPOS>BOND
@<TRIPOS>SUBSTRUCTURE
     1 ALA2        1 GROUP   
     2 ASP3        6 GROUP   
     3 LYS4       34 GROUP   
     4 GLY6       36 GROUP   
     5 CUB7       63 GROUP   
@<TRIPOS>SET

