#    Name: 6b0u_2_ALA_LYS_LYS
#    Modification time : Fri May 22 19:31:36 2020

@<TRIPOS>MOLECULE
6b0u_2_ALA_LYS_LYS
   23    22     3     0     0
SMALL
NO_CHARGES


@<TRIPOS>ATOM
      1 N          50.5830   13.3500  135.4180 N.4       1 ALA6        0.0000 
      2 CA         50.4040   14.7000  134.7960 C.3       1 ALA6        0.0000 
      3 C          49.1520   15.4070  135.3170 C.2       1 ALA6        0.0000 
      4 O          48.1270   14.7620  135.5440 O.2       1 ALA6        0.0000 
      5 CB         50.3320   14.5740  133.2790 C.3       1 ALA6        0.0000 
      6 N          49.2480   16.7260  135.5090 N.am      2 LYS7        0.0000 
      7 CA         48.0730   17.5820  135.7430 C.3       2 LYS7        0.0000 
      8 C          47.6140   18.1300  134.3710 C.2       2 LYS7        0.0000 
      9 O          47.9250   17.5110  133.3450 O.2       2 LYS7        0.0000 
     10 CB         48.3910   18.6940  136.7610 C.3       2 LYS7        0.0000 
     11 CG         47.2460   18.9850  137.7280 C.3       2 LYS7        0.0000 
     12 CD         47.2730   20.4010  138.2880 C.3       2 LYS7        0.0000 
     13 CE         46.0090   20.6910  139.0900 C.3       2 LYS7        0.0000 
     14 NZ         46.0440   21.9960  139.8090 N.4       2 LYS7        0.0000 
     15 N          46.8720   19.2470  134.3400 N.am      3 LYS8        0.0000 
     16 CA         46.2980   19.8090  133.0990 C.3       3 LYS8        0.0000 
     17 C          45.3270   18.8390  132.4130 C.2       3 LYS8        0.0000 
     18 O          44.8670   17.8570  133.0050 O.2       3 LYS8        0.0000 
     19 CB         47.3840   20.2430  132.0920 C.3       3 LYS8        0.0000 
     20 CG         48.2840   21.3820  132.5510 C.3       3 LYS8        0.0000 
     21 CD         47.6960   22.7540  132.2310 C.3       3 LYS8        0.0000 
     22 CE         47.9420   23.1930  130.7950 C.3       3 LYS8        0.0000 
     23 NZ         49.2940   23.7900  130.6160 N.4       3 LYS8        0.0000 
@<TRIPOS>BOND
     1    1    2 1    
     2    2    3 1    
     3    2    5 1    
     4    3    4 2    
     5    3    6 am   
     6    6    7 1    
     7    7    8 1    
     8    7   10 1    
     9    8    9 2    
    10    8   15 am   
    11   10   11 1    
    12   11   12 1    
    13   12   13 1    
    14   13   14 1    
    15   15   16 1    
    16   16   17 1    
    17   16   19 1    
    18   17   18 2    
    19   19   20 1    
    20   20   21 1    
    21   21   22 1    
    22   22   23 1    
@<TRIPOS>SUBSTRUCTURE
     1 ALA6        1 RESIDUE 
     2 LYS7        6 RESIDUE 
     3 LYS8       15 RESIDUE 
@<TRIPOS>SET

