#    Name: 6ojx_1_ATP_CAVITY_N1_12
#    Modification time : Fri May 22 19:32:31 2020

@<TRIPOS>MOLECULE
6ojx_1_ATP_CAVITY_N1_12
   70     0     5     0     0
SMALL
NO_CHARGES


@<TRIPOS>ATOM
      1 OG        154.6600   84.6100  -10.7600 O.3       1 SER1        0.0000 
      2 OG        154.0600   85.8500  -10.1700 O.3       1 SER1        0.0000 
      3 OG        156.0400   85.1400  -10.4600 O.3       1 SER1        0.0000 
      4 OG        156.0800   85.7900  -11.8100 O.3       1 SER1        0.0000 
      5 OG        155.4400   86.3800   -9.8700 O.3       1 SER1        0.0000 
      6 OG        157.4500   86.3200  -11.5100 O.3       1 SER1        0.0000 
      7 OG        156.8500   87.5600  -10.9200 O.3       1 SER1        0.0000 
      8 OG        156.8900   88.2200  -12.2700 O.3       1 SER1        0.0000 
      9 OG        161.1600   80.5700  -10.8800 O.3       1 SER1        0.0000 
     10 N         151.2000   82.8200   -6.7200 N.am      2 ALA2        0.0000 
     11 N         158.0100   84.4200  -10.7500 N.am      2 ALA2        0.0000 
     12 O         157.3700   85.0000   -8.8200 O.2       2 ALA2        0.0000 
     13 N         160.5500   81.8100  -10.2900 N.am      2 ALA2        0.0000 
     14 N         159.9900   83.7100  -11.0500 N.am      2 ALA2        0.0000 
     15 N         159.3900   84.9500  -10.4600 N.am      2 ALA2        0.0000 
     16 N         161.9300   82.3300   -9.9900 N.am      2 ALA2        0.0000 
     17 O         159.5900   88.6100  -10.3300 O.2       2 ALA2        0.0000 
     18 N         163.8600   80.9600   -8.9400 N.am      2 ALA2        0.0000 
     19 N         163.9000   81.6200  -10.2800 N.am      2 ALA2        0.0000 
     20 N         165.2800   82.1400   -9.9900 N.am      2 ALA2        0.0000 
     21 OD1       155.8700   82.1300  -11.9300 O.co2     3 ASP3        0.0000 
     22 OD1       155.2300   82.7100  -10.0000 O.co2     3 ASP3        0.0000 
     23 OD1       157.2400   82.6500  -11.6400 O.co2     3 ASP3        0.0000 
     24 OD1       156.6400   83.8900  -11.0500 O.co2     3 ASP3        0.0000 
     25 OD1       158.6200   83.1800  -11.3400 O.co2     3 ASP3        0.0000 
     26 OD1       158.6500   83.8400  -12.6900 O.co2     3 ASP3        0.0000 
     27 OD1       158.0500   85.0800  -12.1000 O.co2     3 ASP3        0.0000 
     28 OD1       157.4900   86.9800  -12.8600 O.co2     3 ASP3        0.0000 
     29 OD1       160.5900   82.4700  -11.6300 O.co2     3 ASP3        0.0000 
     30 OD1       158.8200   86.8500  -11.2100 O.co2     3 ASP3        0.0000 
     31 OD1       158.8600   87.5100  -12.5600 O.co2     3 ASP3        0.0000 
     32 OD1       163.1700   80.5100  -12.5200 O.co2     3 ASP3        0.0000 
     33 OD1       162.4900   80.4300   -9.2300 O.co2     3 ASP3        0.0000 
     34 OD1       162.5700   81.7500  -11.9300 O.co2     3 ASP3        0.0000 
     35 OD1       161.9700   82.9900  -11.3400 O.co2     3 ASP3        0.0000 
     36 OD1       165.1100   79.1400  -11.4600 O.co2     3 ASP3        0.0000 
     37 OD1       164.5100   80.3800  -10.8700 O.co2     3 ASP3        0.0000 
     38 OD1       164.5400   81.0400  -12.2200 O.co2     3 ASP3        0.0000 
     39 CA        152.5700   83.3500   -6.4200 C.3       4 GLY6        0.0000 
     40 CA        152.0100   85.2500   -7.1800 C.3       4 GLY6        0.0000 
     41 CA        155.9100   82.7900  -13.2800 C.3       4 GLY6        0.0000 
     42 CA        154.5900   83.2900   -8.0600 C.3       4 GLY6        0.0000 
     43 CA        154.6300   83.9500   -9.4100 C.3       4 GLY6        0.0000 
     44 CA        153.9900   84.5300   -7.4700 C.3       4 GLY6        0.0000 
     45 CA        153.3800   85.7700   -6.8800 C.3       4 GLY6        0.0000 
     46 CA        153.4200   86.4300   -8.2300 C.3       4 GLY6        0.0000 
     47 CA        157.2800   83.3100  -12.9900 C.3       4 GLY6        0.0000 
     48 CA        156.6000   83.2400   -9.7000 C.3       4 GLY6        0.0000 
     49 CA        156.6800   84.5500  -12.4000 C.3       4 GLY6        0.0000 
     50 CA        156.7200   85.2100  -13.7400 C.3       4 GLY6        0.0000 
     51 CA        156.0000   84.4800   -9.1100 C.3       4 GLY6        0.0000 
     52 CA        155.3600   85.0600   -7.1800 C.3       4 GLY6        0.0000 
     53 CA        155.4000   85.7200   -8.5200 C.3       4 GLY6        0.0000 
     54 CA        159.2200   81.9400  -11.9300 C.3       4 GLY6        0.0000 
     55 CA        157.9800   83.7600   -9.4100 C.3       4 GLY6        0.0000 
     56 CA        158.0900   85.7400  -13.4500 C.3       4 GLY6        0.0000 
     57 CA        157.4100   85.6600  -10.1600 C.3       4 GLY6        0.0000 
     58 CA        158.2200   88.0900  -10.6200 C.3       4 GLY6        0.0000 
     59 CA        158.2600   88.7500  -11.9700 C.3       4 GLY6        0.0000 
     60 CA        163.0900   79.1900   -9.8200 C.3       4 GLY6        0.0000 
     61 CA        163.1300   79.8500  -11.1700 C.3       4 GLY6        0.0000 
     62 CA        160.2000   87.3700  -10.9200 C.3       4 GLY6        0.0000 
     63 CA        165.3100   82.8000  -11.3300 C.3       4 GLY6        0.0000 
     64 DU        153.2100   82.7700   -8.3600 H         5 CUB7        0.0000 
     65 DU        152.6100   84.0100   -7.7700 H         5 CUB7        0.0000 
     66 DU        155.2700   83.3700  -11.3400 H         5 CUB7        0.0000 
     67 DU        155.3100   84.0300  -12.6900 H         5 CUB7        0.0000 
     68 DU        154.0200   85.1900   -8.8200 H         5 CUB7        0.0000 
     69 DU        162.5300   81.0900  -10.5800 H         5 CUB7        0.0000 
     70 DU        164.4700   79.7200   -9.5300 H         5 CUB7        0.0000 
@<TRIPOS>BOND
@<TRIPOS>SUBSTRUCTURE
     1 SER1        1 GROUP   
     2 ALA2       10 GROUP   
     3 ASP3       21 GROUP   
     4 GLY6       39 GROUP   
     5 CUB7       64 GROUP   
@<TRIPOS>SET

