#    Name: 6ojx_1_ATP
#    Modification time : Fri May 22 19:32:30 2020

@<TRIPOS>MOLECULE
6ojx_1_ATP
   31    33     1     0     1
SMALL
NO_CHARGES


@<TRIPOS>ATOM
      1 PG        162.9910   88.3770  -11.8780 P.3       1 ATP406      0.0000 
      2 O1G       162.7780   89.7660  -12.3880 O.co2     1 ATP406      0.0000 
      3 O2G       163.9590   88.4080  -10.7030 O.co2     1 ATP406      0.0000 
      4 O3G       163.5420   87.5240  -12.9600 O.co2     1 ATP406      0.0000 
      5 PB        160.4640   88.5130  -10.2610 P.3       1 ATP406      0.0000 
      6 O1B       160.1940   89.9200  -10.7330 O.co2     1 ATP406      0.0000 
      7 O2B       161.1120   88.5650   -8.8630 O.co2     1 ATP406      0.0000 
      8 O3B       161.5000   87.7330  -11.3730 O.3       1 ATP406      0.0000 
      9 PA        158.0320   87.4770  -11.4840 P.3       1 ATP406      0.0000 
     10 O1A       158.7530   87.6360  -12.7150 O.co2     1 ATP406      0.0000 
     11 O2A       156.9870   88.5090  -11.3970 O.co2     1 ATP406      0.0000 
     12 O3A       159.0380   87.6420  -10.2060 O.3       1 ATP406      0.0000 
     13 O5'       157.3610   85.9950  -11.4470 O.3       1 ATP406      0.0000 
     14 C5'       158.1990   84.8610  -11.3870 C.3       1 ATP406      0.0000 
     15 C4'       157.3310   83.5820  -11.3530 C.3       1 ATP406      0.0000 
     16 O4'       156.7730   83.4510  -10.1720 O.3       1 ATP406      0.0000 
     17 C3'       156.1680   83.6980  -12.3760 C.3       1 ATP406      0.0000 
     18 O3'       155.9630   82.4790  -13.0150 O.3       1 ATP406      0.0000 
     19 C2'       154.9490   84.0550  -11.5380 C.3       1 ATP406      0.0000 
     20 O2'       153.7080   83.5060  -12.1560 O.3       1 ATP406      0.0000 
     21 C1'       155.1800   83.4880  -10.3600 C.3       1 ATP406      0.0000 
     22 N9        154.5900   84.3110   -9.3110 N.pl3     1 ATP406      0.0000 
     23 C8        154.7090   85.6300   -9.2060 C.2       1 ATP406      0.0000 
     24 N7        154.0210   86.0250   -8.0980 N.2       1 ATP406      0.0000 
     25 C5        153.4880   84.9460   -7.5350 C.ar      1 ATP406      0.0000 
     26 C6        152.7060   84.7880   -6.4050 C.ar      1 ATP406      0.0000 
     27 N6        152.2060   85.7890   -5.4480 N.pl3     1 ATP406      0.0000 
     28 N1        152.2980   83.5930   -6.0510 N.ar      1 ATP406      0.0000 
     29 C2        152.6440   82.4990   -6.7970 C.ar      1 ATP406      0.0000 
     30 N3        153.4140   82.6490   -7.9110 N.ar      1 ATP406      0.0000 
     31 C4        153.8310   83.8710   -8.2740 C.ar      1 ATP406      0.0000 
@<TRIPOS>BOND
     1    1    2 ar   
     2    1    3 ar   
     3    1    4 ar   
     4    1    8 1    
     5    5    6 ar   
     6    5    7 ar   
     7    5    8 1    
     8    5   12 1    
     9    9   10 ar   
    10    9   11 ar   
    11    9   12 1    
    12    9   13 1    
    13   13   14 1    
    14   14   15 1    
    15   15   16 1    
    16   15   17 1    
    17   16   21 1    
    18   17   18 1    
    19   17   19 1    
    20   19   20 1    
    21   19   21 1    
    22   21   22 1    
    23   22   23 1    
    24   22   31 1    
    25   23   24 2    
    26   24   25 1    
    27   25   26 ar   
    28   25   31 ar   
    29   26   27 1    
    30   26   28 ar   
    31   28   29 ar   
    32   29   30 ar   
    33   30   31 ar   
@<TRIPOS>SUBSTRUCTURE
     1 ATP406      1 GROUP   
@<TRIPOS>SET
ATOM$ORANGE STATIC     ATOMS   COLORGROUP SYSTEM 
20 14 14 15 15 17 17 19 19 21 21 23 23 25 25 26 26 29 \
29 31 31 

