#    Name: 6d2i_2_35R
#    Modification time : Fri May 22 19:23:47 2020

@<TRIPOS>MOLECULE
6d2i_2_35R
   28    32     1     0     0
SMALL
NO_CHARGES


@<TRIPOS>ATOM
      1 O1         14.9290   14.1480  126.7710           1 35R901      0.0000 
      2 C2         15.6540   13.2120  126.8840           1 35R901      0.0000 
      3 N3         16.6320   12.8980  125.8390           1 35R901      0.0000 
      4 C4         17.5080   11.7330  126.0150           1 35R901      0.0000 
      5 C5         18.9090   11.8580  125.3930           1 35R901      0.0000 
      6 C6         18.7420   11.9540  126.9100           1 35R901      0.0000 
      7 N7         15.6010   12.3370  128.0580           1 35R901      0.0000 
      8 C8         14.6800   12.5220  129.1830           1 35R901      0.0000 
      9 C9         13.5920   13.3540  129.2650           1 35R901      0.0000 
     10 N10        13.0090   13.1770  130.5380           1 35R901      0.0000 
     11 N12        13.7700   12.2170  131.2370           1 35R901      0.0000 
     12 C13        14.7790   11.7970  130.4110           1 35R901      0.0000 
     13 C14        15.8900   10.7780  130.7430           1 35R901      0.0000 
     14 N15        16.9920   10.5310  129.9670           1 35R901      0.0000 
     15 C16        17.7420    9.4700  130.8010           1 35R901      0.0000 
     16 C17        18.9320    8.7470  130.6440           1 35R901      0.0000 
     17 C18        19.3150    7.8300  131.6600           1 35R901      0.0000 
     18 C19        18.5170    7.6160  132.8120           1 35R901      0.0000 
     19 C20        18.9380    6.6190  133.9360           1 35R901      0.0000 
     20 N21        19.1190    5.2310  133.5110           1 35R901      0.0000 
     21 C23        18.9600    4.3840  134.6720           1 35R901      0.0000 
     22 C24        19.0650    2.9130  134.3370           1 35R901      0.0000 
     23 O25        19.2630    2.6720  132.9880           1 35R901      0.0000 
     24 C26        18.2610    3.2840  132.2030           1 35R901      0.0000 
     25 C27        18.1370    4.8310  132.4870           1 35R901      0.0000 
     26 C28        17.3400    8.3560  132.9520           1 35R901      0.0000 
     27 C29        16.9530    9.2530  131.9800           1 35R901      0.0000 
     28 N30        15.9770   10.0540  131.7890           1 35R901      0.0000 
@<TRIPOS>BOND
     1    1    2 du   
     2    2    3 du   
     3    2    7 du   
     4    3    4 du   
     5    4    5 du   
     6    4    6 du   
     7    5    6 du   
     8    7    8 du   
     9    8    9 du   
    10    8   12 du   
    11    9   10 du   
    12   10   11 du   
    13   11   12 du   
    14   12   13 du   
    15   13   14 du   
    16   13   28 du   
    17   14   15 du   
    18   15   16 du   
    19   15   27 du   
    20   16   17 du   
    21   17   18 du   
    22   18   19 du   
    23   18   26 du   
    24   19   20 du   
    25   20   21 du   
    26   20   25 du   
    27   21   22 du   
    28   22   23 du   
    29   23   24 du   
    30   24   25 du   
    31   26   27 du   
    32   27   28 du   
@<TRIPOS>SUBSTRUCTURE
     1 35R901      1 GROUP   
@<TRIPOS>SET

