#    Name: 6d2i_1_35R
#    Modification time : Fri May 22 19:23:43 2020

@<TRIPOS>MOLECULE
6d2i_1_35R
   28    32     1     0     0
SMALL
NO_CHARGES


@<TRIPOS>ATOM
      1 O1        -15.3450    6.5900  155.6050           1 35R901      0.0000 
      2 C2        -16.0370    7.5130  155.8950           1 35R901      0.0000 
      3 N3        -17.2010    7.8590  155.0760           1 35R901      0.0000 
      4 C4        -18.0250    9.0080  155.4730           1 35R901      0.0000 
      5 C5        -19.5120    8.9380  155.0900           1 35R901      0.0000 
      6 C6        -19.0940    8.7210  156.5450           1 35R901      0.0000 
      7 N7        -15.7600    8.3410  157.0730           1 35R901      0.0000 
      8 C8        -14.6390    8.1280  157.9960           1 35R901      0.0000 
      9 C9        -13.5400    7.3250  157.8240           1 35R901      0.0000 
     10 N10       -12.7290    7.4510  158.9720           1 35R901      0.0000 
     11 N12       -13.3610    8.3510  159.8570           1 35R901      0.0000 
     12 C13       -14.5220    8.7770  159.2670           1 35R901      0.0000 
     13 C14       -15.5600    9.7610  159.8520           1 35R901      0.0000 
     14 N15       -16.8000   10.0030  159.3230           1 35R901      0.0000 
     15 C16       -17.3770   11.0400  160.3110           1 35R901      0.0000 
     16 C17       -18.5850   11.7410  160.4160           1 35R901      0.0000 
     17 C18       -18.7620   12.6390  161.5030           1 35R901      0.0000 
     18 C19       -17.7430   12.8520  162.4650           1 35R901      0.0000 
     19 C20       -17.9280   13.8260  163.6700           1 35R901      0.0000 
     20 N21       -18.2570   15.2080  163.3220           1 35R901      0.0000 
     21 C23       -17.9020   16.0400  164.4500           1 35R901      0.0000 
     22 C24       -18.1340   17.5110  164.1850           1 35R901      0.0000 
     23 O25       -18.6190   17.7640  162.9130           1 35R901      0.0000 
     24 C26       -17.7750   17.2180  161.9220           1 35R901      0.0000 
     25 C27       -17.5270   15.6740  162.1280           1 35R901      0.0000 
     26 C28       -16.5520   12.1350  162.3450           1 35R901      0.0000 
     27 C29       -16.3620   11.2570  161.3020           1 35R901      0.0000 
     28 N30       -15.4350   10.4770  160.9000           1 35R901      0.0000 
@<TRIPOS>BOND
     1    1    2 du   
     2    2    3 du   
     3    2    7 du   
     4    3    4 du   
     5    4    5 du   
     6    4    6 du   
     7    5    6 du   
     8    7    8 du   
     9    8    9 du   
    10    8   12 du   
    11    9   10 du   
    12   10   11 du   
    13   11   12 du   
    14   12   13 du   
    15   13   14 du   
    16   13   28 du   
    17   14   15 du   
    18   15   16 du   
    19   15   27 du   
    20   16   17 du   
    21   17   18 du   
    22   18   19 du   
    23   18   26 du   
    24   19   20 du   
    25   20   21 du   
    26   20   25 du   
    27   21   22 du   
    28   22   23 du   
    29   23   24 du   
    30   24   25 du   
    31   26   27 du   
    32   27   28 du   
@<TRIPOS>SUBSTRUCTURE
     1 35R901      1 GROUP   
@<TRIPOS>SET

