#    Name: 6nea_2_HLO_CAVITY_N1_6
#    Modification time : Fri May 22 19:24:39 2020

@<TRIPOS>MOLECULE
6nea_2_HLO_CAVITY_N1_6
   94     0     6     0     0
SMALL
NO_CHARGES


@<TRIPOS>ATOM
      1 OG        -74.4400   51.9900  351.5500 O.3       1 SER1        0.0000 
      2 OG        -74.0600   50.5900  351.1500 O.3       1 SER1        0.0000 
      3 OG        -73.6800   49.2000  350.7400 O.3       1 SER1        0.0000 
      4 OG        -72.4600   49.0300  352.4700 O.3       1 SER1        0.0000 
      5 OG        -69.5900   49.6300  353.1100 O.3       1 SER1        0.0000 
      6 OG        -69.2100   48.2400  352.7100 O.3       1 SER1        0.0000 
      7 OG        -69.3800   50.1000  351.7000 O.3       1 SER1        0.0000 
      8 OG        -69.0000   48.7100  351.3000 O.3       1 SER1        0.0000 
      9 OG        -67.4000   47.1500  352.6300 O.3       1 SER1        0.0000 
     10 OG        -67.1800   47.6100  351.2200 O.3       1 SER1        0.0000 
     11 OG        -67.3400   49.4700  350.2100 O.3       1 SER1        0.0000 
     12 OG        -66.1800   46.9800  354.3600 O.3       1 SER1        0.0000 
     13 OG        -65.9600   47.4500  352.9500 O.3       1 SER1        0.0000 
     14 OG        -65.7500   47.9100  351.5400 O.3       1 SER1        0.0000 
     15 OG        -64.7500   47.2800  354.6800 O.3       1 SER1        0.0000 
     16 OG        -64.3600   45.8900  354.2700 O.3       1 SER1        0.0000 
     17 OG        -64.5300   47.7500  353.2700 O.3       1 SER1        0.0000 
     18 OG        -64.3100   48.2100  351.8600 O.3       1 SER1        0.0000 
     19 OG        -63.4800   49.4400  353.9900 O.3       1 SER1        0.0000 
     20 OG        -63.0900   48.0500  353.5900 O.3       1 SER1        0.0000 
     21 OG        -61.4400   48.8100  352.5000 O.3       1 SER1        0.0000 
     22 N         -77.2400   55.4000  353.8500 N.am      2 ALA2        0.0000 
     23 N         -76.8600   54.0100  353.4400 N.am      2 ALA2        0.0000 
     24 N         -76.6400   54.4700  352.0300 N.am      2 ALA2        0.0000 
     25 N         -75.2100   54.7700  352.3500 N.am      2 ALA2        0.0000 
     26 N         -73.0800   48.2700  348.9300 N.am      2 ALA2        0.0000 
     27 O         -72.0300   49.9700  349.6500 O.2       2 ALA2        0.0000 
     28 N         -71.6500   48.5700  349.2500 N.am      2 ALA2        0.0000 
     29 N         -71.2700   47.1800  348.8500 N.am      2 ALA2        0.0000 
     30 O         -71.8100   50.4300  348.2500 O.2       2 ALA2        0.0000 
     31 O         -70.9800   51.6600  350.3800 O.2       2 ALA2        0.0000 
     32 O         -70.5900   50.2700  349.9700 O.2       2 ALA2        0.0000 
     33 O         -70.0000   49.3400  348.1600 O.2       2 ALA2        0.0000 
     34 O         -68.5600   49.6400  348.4800 O.2       2 ALA2        0.0000 
     35 O         -66.7500   48.5500  348.4000 O.2       2 ALA2        0.0000 
     36 NZ        -70.6500   47.9400  352.3900 N.4       3 LYS4        0.0000 
     37 CZ        -76.0400   53.5500  350.2200 C.ar      4 PHE5        0.0000 
     38 CZ        -75.4200   54.3100  353.7600 C.ar      4 PHE5        0.0000 
     39 CZ        -73.5200   47.3400  351.7500 C.ar      4 PHE5        0.0000 
     40 CZ        -74.8300   53.3800  351.9500 C.ar      4 PHE5        0.0000 
     41 CZ        -73.3000   47.8100  350.3400 C.ar      4 PHE5        0.0000 
     42 CZ        -72.9200   46.4100  349.9400 C.ar      4 PHE5        0.0000 
     43 CZ        -73.8500   51.0600  349.7400 C.ar      4 PHE5        0.0000 
     44 CZ        -73.6300   51.5300  348.3300 C.ar      4 PHE5        0.0000 
     45 CZ        -73.2500   50.1300  347.9200 C.ar      4 PHE5        0.0000 
     46 CZ        -72.0800   47.6400  352.0700 C.ar      4 PHE5        0.0000 
     47 CZ        -73.0100   52.2900  351.8700 C.ar      4 PHE5        0.0000 
     48 CZ        -72.6300   50.8900  351.4700 C.ar      4 PHE5        0.0000 
     49 CZ        -71.8600   48.1100  350.6600 C.ar      4 PHE5        0.0000 
     50 CZ        -72.4100   51.3600  350.0600 C.ar      4 PHE5        0.0000 
     51 CZ        -71.0300   49.3300  352.7900 C.ar      4 PHE5        0.0000 
     52 CZ        -71.5800   52.5900  352.1900 C.ar      4 PHE5        0.0000 
     53 CZ        -71.1900   51.1900  351.7900 C.ar      4 PHE5        0.0000 
     54 CZ        -70.4300   48.4100  350.9800 C.ar      4 PHE5        0.0000 
     55 CZ        -69.9800   51.0300  353.5200 C.ar      4 PHE5        0.0000 
     56 CZ        -68.8300   46.8500  352.3100 C.ar      4 PHE5        0.0000 
     57 CZ        -69.7600   51.4900  352.1100 C.ar      4 PHE5        0.0000 
     58 CZ        -68.6100   47.3100  350.9000 C.ar      4 PHE5        0.0000 
     59 CZ        -69.1600   50.5700  350.3000 C.ar      4 PHE5        0.0000 
     60 CZ        -67.6100   46.6800  354.0400 C.ar      4 PHE5        0.0000 
     61 CZ        -67.0200   45.7500  352.2300 C.ar      4 PHE5        0.0000 
     62 CZ        -66.8000   46.2200  350.8200 C.ar      4 PHE5        0.0000 
     63 CZ        -66.9600   48.0800  349.8100 C.ar      4 PHE5        0.0000 
     64 CZ        -66.5800   46.6900  349.4100 C.ar      4 PHE5        0.0000 
     65 CZ        -65.8000   45.5900  353.9500 C.ar      4 PHE5        0.0000 
     66 CZ        -65.5800   46.0500  352.5500 C.ar      4 PHE5        0.0000 
     67 CZ        -65.3600   46.5200  351.1400 C.ar      4 PHE5        0.0000 
     68 CZ        -65.9100   49.7700  350.5300 C.ar      4 PHE5        0.0000 
     69 CZ        -65.5300   48.3800  350.1300 C.ar      4 PHE5        0.0000 
     70 CZ        -64.1500   46.3500  352.8700 C.ar      4 PHE5        0.0000 
     71 CZ        -63.7700   44.9600  352.4600 C.ar      4 PHE5        0.0000 
     72 CZ        -63.1500   45.7200  356.0000 C.ar      4 PHE5        0.0000 
     73 CZ        -62.5500   44.7900  354.1900 C.ar      4 PHE5        0.0000 
     74 CZ        -62.7100   46.6500  353.1900 C.ar      4 PHE5        0.0000 
     75 CZ        -62.3300   45.2600  352.7800 C.ar      4 PHE5        0.0000 
     76 CZ        -63.2600   49.9100  352.5800 C.ar      4 PHE5        0.0000 
     77 CZ        -62.8800   48.5100  352.1800 C.ar      4 PHE5        0.0000 
     78 CZ        -61.1100   45.0900  354.5100 C.ar      4 PHE5        0.0000 
     79 CZ        -61.2800   46.9500  353.5100 C.ar      4 PHE5        0.0000 
     80 CZ        -61.0600   47.4200  352.1000 C.ar      4 PHE5        0.0000 
     81 CA        -74.2300   52.4500  350.1400 C.3       5 GLY6        0.0000 
     82 CA        -73.3900   53.6800  352.2700 C.3       5 GLY6        0.0000 
     83 CA        -69.8300   47.4800  349.1700 C.3       5 GLY6        0.0000 
     84 CA        -68.4000   47.7800  349.4900 C.3       5 GLY6        0.0000 
     85 CA        -68.1800   48.2500  348.0800 C.3       5 GLY6        0.0000 
     86 CA        -61.6600   48.3500  353.9100 C.3       5 GLY6        0.0000 
     87 DU        -74.3500   46.1100  349.6200 H         6 CUB7        0.0000 
     88 DU        -73.4600   49.6700  349.3300 H         6 CUB7        0.0000 
     89 DU        -72.2500   49.5000  351.0600 H         6 CUB7        0.0000 
     90 DU        -70.8100   49.8000  351.3800 H         6 CUB7        0.0000 
     91 DU        -70.2100   48.8700  349.5700 H         6 CUB7        0.0000 
     92 DU        -68.7800   49.1700  349.8900 H         6 CUB7        0.0000 
     93 DU        -63.3100   47.5800  355.0000 H         6 CUB7        0.0000 
     94 DU        -62.9300   46.1900  354.6000 H         6 CUB7        0.0000 
@<TRIPOS>BOND
@<TRIPOS>SUBSTRUCTURE
     1 SER1        1 GROUP   
     2 ALA2       22 GROUP   
     3 LYS4       36 GROUP   
     4 PHE5       37 GROUP   
     5 GLY6       81 GROUP   
     6 CUB7       87 GROUP   
@<TRIPOS>SET

