#    Name: 6nea_2_HLO
#    Modification time : Fri May 22 19:24:38 2020

@<TRIPOS>MOLECULE
6nea_2_HLO
   24    25     1     0     0
SMALL
NO_CHARGES


@<TRIPOS>ATOM
      1 O3        -74.0800   54.5130  352.4500 O.2       1 HLO605      0.0000 
      2 C14       -72.9630   54.6530  352.8270 C.2       1 HLO605      0.0000 
      3 N4        -72.6040   55.7890  353.6600 N.am      1 HLO605      0.0000 
      4 C11       -71.9150   53.6030  352.4820 C.ar      1 HLO605      0.0000 
      5 C10       -72.3110   52.4820  351.8360 C.ar      1 HLO605      0.0000 
      6 C9        -71.3840   51.5070  351.5230 C.ar      1 HLO605      0.0000 
      7 N3        -70.0900   51.6780  351.8650 N.pl3     1 HLO605      0.0000 
      8 C13       -69.6820   52.7890  352.5160 C.ar      1 HLO605      0.0000 
      9 C12       -70.6120   53.7660  352.8340 C.ar      1 HLO605      0.0000 
     10 C8        -69.1630   50.6270  351.5230 C.3       1 HLO605      0.0000 
     11 O2        -69.8720   49.4350  351.6940 O.3       1 HLO605      0.0000 
     12 C7        -69.5130   48.4360  350.7890 C.3       1 HLO605      0.0000 
     13 N2        -68.3010   47.8550  351.3190 N.pl3     1 HLO605      0.0000 
     14 C2        -67.1040   47.8170  350.6630 C.ar      1 HLO605      0.0000 
     15 C1        -66.7550   48.3690  349.2650 C.2       1 HLO605      0.0000 
     16 N1        -67.4150   48.6140  348.2170 N.2       1 HLO605      0.0000 
     17 O1        -68.7920   48.4550  347.9910 O.3       1 HLO605      0.0000 
     18 C3        -66.0330   47.2420  351.3310 C.ar      1 HLO605      0.0000 
     19 C4        -66.1600   46.7240  352.5740 C.ar      1 HLO605      0.0000 
     20 C5        -67.3490   46.7650  353.2110 C.ar      1 HLO605      0.0000 
     21 C6        -68.4230   47.3440  352.5660 C.ar      1 HLO605      0.0000 
     22 C22       -64.9450   46.1050  353.2540 C.2       1 HLO605      0.0000 
     23 N5        -63.9010   45.9170  352.5940 N.2       1 HLO605      0.0000 
     24 O4        -62.7760   45.3480  353.2080 O.3       1 HLO605      0.0000 
@<TRIPOS>BOND
     1    1    2 2    
     2    2    3 am   
     3    2    4 1    
     4    4    5 ar   
     5    4    9 ar   
     6    5    6 ar   
     7    6    7 ar   
     8    7    8 ar   
     9    7   10 1    
    10    8    9 ar   
    11   10   11 1    
    12   11   12 1    
    13   12   13 1    
    14   13   14 ar   
    15   13   21 ar   
    16   14   15 1    
    17   14   18 ar   
    18   15   16 2    
    19   16   17 1    
    20   18   19 ar   
    21   19   20 ar   
    22   19   22 1    
    23   20   21 ar   
    24   22   23 2    
    25   23   24 1    
@<TRIPOS>SUBSTRUCTURE
     1 HLO605      1 GROUP   
@<TRIPOS>SET

