#    Name: 6iwl_5_NAD
#    Modification time : Fri May 22 19:31:23 2020

@<TRIPOS>MOLECULE
6iwl_5_NAD
   44    48     1     0     1
SMALL
NO_CHARGES


@<TRIPOS>ATOM
      1 PA         24.6170    8.9180   40.3630 P.3       1 NAD301      0.0000 
      2 O1A        24.5090   10.0880   39.4080 O.co2     1 NAD301      0.0000 
      3 O2A        24.9460    9.1650   41.8540 O.co2     1 NAD301      0.0000 
      4 O5B        25.6020    7.8630   39.5800 O.3       1 NAD301      0.0000 
      5 C5B        26.9920    8.1130   39.3260 C.3       1 NAD301      0.0000 
      6 C4B        27.8990    8.1120   40.5850 C.3       1 NAD301      0.0000 
      7 O4B        29.2420    7.9080   40.1450 O.3       1 NAD301      0.0000 
      8 C3B        27.9640    9.3980   41.4540 C.3       1 NAD301      0.0000 
      9 O3B        28.1690    9.0590   42.8310 O.3       1 NAD301      0.0000 
     10 C2B        29.2190   10.1200   40.9970 C.3       1 NAD301      0.0000 
     11 O2B        29.8100   11.0580   41.9120 O.3       1 NAD301      0.0000 
     12 C1B        30.1090    8.9030   40.7340 C.3       1 NAD301      0.0000 
     13 N9A        31.1810    9.3410   39.8420 N.pl3     1 NAD301      0.0000 
     14 C8A        30.9990   10.1110   38.7450 C.2       1 NAD301      0.0000 
     15 N7A        32.1750   10.3790   38.1330 N.2       1 NAD301      0.0000 
     16 C5A        33.1380    9.7680   38.8500 C.ar      1 NAD301      0.0000 
     17 C6A        34.6060    9.6720   38.7180 C.ar      1 NAD301      0.0000 
     18 N6A        35.2570   10.2990   37.6780 N.pl3     1 NAD301      0.0000 
     19 N1A        35.2410    8.9340   39.6510 N.ar      1 NAD301      0.0000 
     20 C2A        34.5820    8.3110   40.6820 C.ar      1 NAD301      0.0000 
     21 N3A        33.2390    8.3590   40.8820 N.ar      1 NAD301      0.0000 
     22 C4A        32.4800    9.0750   39.9940 C.ar      1 NAD301      0.0000 
     23 O3         23.1730    8.1810   40.3420 O.3       1 NAD301      0.0000 
     24 PN         22.8300    6.7640   41.0640 P.3       1 NAD301      0.0000 
     25 O1N        21.3480    6.6060   40.8780 O.co2     1 NAD301      0.0000 
     26 O2N        23.5340    6.5760   42.4340 O.co2     1 NAD301      0.0000 
     27 O5D        23.4780    5.7250   39.9910 O.3       1 NAD301      0.0000 
     28 C5D        24.2920    4.5790   40.3330 C.3       1 NAD301      0.0000 
     29 C4D        24.3660    3.6490   39.1350 C.3       1 NAD301      0.0000 
     30 O4D        23.0520    3.1520   38.8800 O.3       1 NAD301      0.0000 
     31 C3D        24.7920    4.4450   37.9010 C.3       1 NAD301      0.0000 
     32 O3D        26.0530    4.0350   37.3340 O.3       1 NAD301      0.0000 
     33 C2D        23.6300    4.3180   36.9320 C.3       1 NAD301      0.0000 
     34 O2D        24.1600    4.1640   35.6130 O.3       1 NAD301      0.0000 
     35 C1D        22.7650    3.1720   37.4740 C.3       1 NAD301      0.0000 
     36 N1N        21.3050    3.2140   37.2110 N.pl3     1 NAD301      0.0000 
     37 C2N        20.4870    4.2280   37.6410 C.ar      1 NAD301      0.0000 
     38 C3N        19.0670    4.2940   37.3930 C.ar      1 NAD301      0.0000 
     39 C7N        18.2070    5.4950   37.8970 C.2       1 NAD301      0.0000 
     40 O7N        17.0880    5.8500   37.4300 O.2       1 NAD301      0.0000 
     41 N7N        18.7310    6.2160   38.9060 N.am      1 NAD301      0.0000 
     42 C4N        18.5150    3.1960   36.6860 C.ar      1 NAD301      0.0000 
     43 C5N        19.3960    2.1660   36.2660 C.ar      1 NAD301      0.0000 
     44 C6N        20.7860    2.1790   36.5180 C.ar      1 NAD301      0.0000 
@<TRIPOS>BOND
     1    1    2 ar   
     2    1    3 ar   
     3    1    4 1    
     4    1   23 1    
     5    4    5 1    
     6    5    6 1    
     7    6    7 1    
     8    6    8 1    
     9    7   12 1    
    10    8    9 1    
    11    8   10 1    
    12   10   11 1    
    13   10   12 1    
    14   12   13 1    
    15   13   14 1    
    16   13   22 1    
    17   14   15 2    
    18   15   16 1    
    19   16   17 ar   
    20   16   22 ar   
    21   17   18 1    
    22   17   19 ar   
    23   19   20 ar   
    24   20   21 ar   
    25   21   22 ar   
    26   23   24 1    
    27   24   25 ar   
    28   24   26 ar   
    29   24   27 1    
    30   27   28 1    
    31   28   29 1    
    32   29   30 1    
    33   29   31 1    
    34   30   35 1    
    35   31   32 1    
    36   31   33 1    
    37   33   34 1    
    38   33   35 1    
    39   35   36 1    
    40   36   37 ar   
    41   36   44 ar   
    42   37   38 ar   
    43   38   39 1    
    44   38   42 ar   
    45   39   40 2    
    46   39   41 am   
    47   42   43 ar   
    48   43   44 ar   
@<TRIPOS>SUBSTRUCTURE
     1 NAD301      1 GROUP   
@<TRIPOS>SET
ATOM$ORANGE STATIC     ATOMS   COLORGROUP SYSTEM 
42 5 5 6 6 8 8 10 10 12 12 14 14 16 16 17 17 20 \
20 22 22 28 28 29 29 31 31 33 33 35 35 37 37 38 38 39 \
39 42 42 43 43 44 44 

