#    Name: 6bxm_1_SAM
#    Modification time : Fri May 22 19:36:07 2020

@<TRIPOS>MOLECULE
6bxm_1_SAM
   27    29     1     0     0
SMALL
NO_CHARGES


@<TRIPOS>ATOM
      1 N          25.4830   14.8420  101.5410 N.4       1 SAM402      0.0000 
      2 CA         24.4700   15.3140  102.4710 C.3       1 SAM402      0.0000 
      3 C          24.4750   14.4970  103.7540 C.2       1 SAM402      0.0000 
      4 O          23.5020   13.8330  104.1230 O.co2     1 SAM402      0.0000 
      5 OXT        25.4780   14.5090  104.4580 O.co2     1 SAM402      0.0000 
      6 CB         23.1160   15.2750  101.7910 C.3       1 SAM402      0.0000 
      7 CG         23.0410   14.0850  100.8690 C.3       1 SAM402      0.0000 
      8 SD         22.3020   14.4510   99.2510 S.3       1 SAM402      0.0000 
      9 CE         20.7940   15.3140   99.7670 C.3       1 SAM402      0.0000 
     10 C5'        21.6920   12.7530   99.0530 C.3       1 SAM402      0.0000 
     11 C4'        21.1230   12.4750   97.6700 C.3       1 SAM402      0.0000 
     12 O4'        22.0840   12.6570   96.6370 O.3       1 SAM402      0.0000 
     13 C3'        20.6350   11.0430   97.5760 C.3       1 SAM402      0.0000 
     14 O3'        19.2850   10.9870   97.9710 O.3       1 SAM402      0.0000 
     15 C2'        20.7920   10.7440   96.0990 C.3       1 SAM402      0.0000 
     16 O2'        19.5340   10.9460   95.5010 O.3       1 SAM402      0.0000 
     17 C1'        21.8040   11.7620   95.5780 C.3       1 SAM402      0.0000 
     18 N9         23.0460   11.0540   95.2210 N.pl3     1 SAM402      0.0000 
     19 C8         24.1420   10.8490   96.0200 C.2       1 SAM402      0.0000 
     20 N7         25.0450   10.1310   95.3080 N.2       1 SAM402      0.0000 
     21 C5         24.5390    9.8670   94.0840 C.ar      1 SAM402      0.0000 
     22 C6         25.0240    9.1780   92.9740 C.ar      1 SAM402      0.0000 
     23 N6         26.2100    8.6080   92.9890 N.pl3     1 SAM402      0.0000 
     24 N1         24.2530    9.0780   91.8430 N.ar      1 SAM402      0.0000 
     25 C2         23.0120    9.6700   91.7990 C.ar      1 SAM402      0.0000 
     26 N3         22.5300   10.3430   92.9010 N.ar      1 SAM402      0.0000 
     27 C4         23.2840   10.4400   94.0210 C.ar      1 SAM402      0.0000 
@<TRIPOS>BOND
     1    1    2 1    
     2    2    3 1    
     3    2    6 1    
     4    3    4 ar   
     5    3    5 ar   
     6    6    7 1    
     7    7    8 1    
     8    8    9 1    
     9    8   10 1    
    10   10   11 1    
    11   11   12 1    
    12   11   13 1    
    13   12   17 1    
    14   13   14 1    
    15   13   15 1    
    16   15   16 1    
    17   15   17 1    
    18   17   18 1    
    19   18   19 1    
    20   18   27 1    
    21   19   20 2    
    22   20   21 1    
    23   21   22 ar   
    24   21   27 ar   
    25   22   23 1    
    26   22   24 ar   
    27   24   25 ar   
    28   25   26 ar   
    29   26   27 ar   
@<TRIPOS>SUBSTRUCTURE
     1 SAM402      1 GROUP   
@<TRIPOS>SET

