#    Name: 6bxm_1_SAM_CAVITY_N1_8
#    Modification time : Fri May 22 19:36:08 2020

@<TRIPOS>MOLECULE
6bxm_1_SAM_CAVITY_N1_8
   83     0     7     0     0
SMALL
NO_CHARGES


@<TRIPOS>ATOM
      1 OG         23.9500   15.2500  103.5500 O.3       1 SER1        0.0000 
      2 OG         24.2000   13.8700  104.0900 O.3       1 SER1        0.0000 
      3 N          24.7800   11.1900   96.9500 N.am      2 ALA2        0.0000 
      4 N          23.3100   11.0300   97.2100 N.am      2 ALA2        0.0000 
      5 N          21.8400   10.8600   97.4700 N.am      2 ALA2        0.0000 
      6 O          20.3700   10.6900   97.7200 O.2       2 ALA2        0.0000 
      7 N          26.4200   11.9300   98.0700 N.am      2 ALA2        0.0000 
      8 N          24.9500   11.7600   98.3200 N.am      2 ALA2        0.0000 
      9 N          23.4900   11.5900   98.5800 N.am      2 ALA2        0.0000 
     10 O          26.6700   10.5500   98.6000 O.2       2 ALA2        0.0000 
     11 N          23.1600   14.9200   98.8900 N.am      2 ALA2        0.0000 
     12 N          24.8800   13.7100   99.1700 N.am      2 ALA2        0.0000 
     13 N          23.4100   13.5400   99.4200 N.am      2 ALA2        0.0000 
     14 N          26.6000   12.4900   99.4400 N.am      2 ALA2        0.0000 
     15 N          25.1300   12.3300   99.7000 N.am      2 ALA2        0.0000 
     16 N          23.6600   12.1600   99.9600 N.am      2 ALA2        0.0000 
     17 N          26.8500   11.1200   99.9800 N.am      2 ALA2        0.0000 
     18 N          25.3800   10.9500  100.2400 N.am      2 ALA2        0.0000 
     19 N          27.1000    9.7400  100.5200 N.am      2 ALA2        0.0000 
     20 N          23.3400   15.4900  100.2600 N.am      2 ALA2        0.0000 
     21 N          26.5300   14.4400  100.2800 N.am      2 ALA2        0.0000 
     22 N          25.0600   14.2800  100.5400 N.am      2 ALA2        0.0000 
     23 N          23.5900   14.1100  100.8000 N.am      2 ALA2        0.0000 
     24 N          28.2500   13.2300  100.5600 N.am      2 ALA2        0.0000 
     25 N          26.7800   13.0600  100.8200 N.am      2 ALA2        0.0000 
     26 N          28.5000   11.8500  101.1000 N.am      2 ALA2        0.0000 
     27 N          27.0300   11.6800  101.3600 N.am      2 ALA2        0.0000 
     28 N          25.5600   11.5200  101.6100 N.am      2 ALA2        0.0000 
     29 N          27.2800   10.3100  101.8900 N.am      2 ALA2        0.0000 
     30 N          25.8100   10.1400  102.1500 N.am      2 ALA2        0.0000 
     31 N          24.9900   16.2200  101.3800 N.am      2 ALA2        0.0000 
     32 N          26.7100   15.0100  101.6600 N.am      2 ALA2        0.0000 
     33 N          25.2400   14.8400  101.9200 N.am      2 ALA2        0.0000 
     34 N          28.6800   12.4200  102.4700 N.am      2 ALA2        0.0000 
     35 N          27.2100   12.2500  102.7300 N.am      2 ALA2        0.0000 
     36 O          25.7400   12.0900  102.9900 O.2       2 ALA2        0.0000 
     37 O          25.6700   14.0300  103.8300 O.2       2 ALA2        0.0000 
     38 OD1        20.4800   13.2100   99.9400 O.co2     3 ASP3        0.0000 
     39 OD1        20.6600   13.7800  101.3200 O.co2     3 ASP3        0.0000 
     40 OD1        23.7700   14.6800  102.1800 O.co2     3 ASP3        0.0000 
     41 OD1        22.3000   14.5100  102.4400 O.co2     3 ASP3        0.0000 
     42 NZ         19.7700   10.9400   94.4300 N.4       4 LYS4        0.0000 
     43 NZ         19.9400   11.5000   95.8100 N.4       4 LYS4        0.0000 
     44 NZ         18.4800   11.3400   96.0700 N.4       4 LYS4        0.0000 
     45 NZ         20.1900   10.1300   96.3500 N.4       4 LYS4        0.0000 
     46 NZ         18.6500   11.9100   97.4500 N.4       4 LYS4        0.0000 
     47 NZ         20.3000   12.6400   98.5600 N.4       4 LYS4        0.0000 
     48 CZ         22.7000   11.2700   93.9200 C.ar      5 PHE5        0.0000 
     49 CZ         21.2300   11.1000   94.1800 C.ar      5 PHE5        0.0000 
     50 CZ         21.1600   13.0500   95.0200 C.ar      5 PHE5        0.0000 
     51 CZ         22.8800   11.8400   95.2900 C.ar      5 PHE5        0.0000 
     52 CZ         21.4100   11.6700   95.5500 C.ar      5 PHE5        0.0000 
     53 CA         21.4800    9.7200   94.7100 C.3       6 GLY6        0.0000 
     54 CA         23.1300   10.4600   95.8300 C.3       6 GLY6        0.0000 
     55 CA         21.6600   10.2900   96.0900 C.3       6 GLY6        0.0000 
     56 CA         23.0600   12.4000   96.6700 C.3       6 GLY6        0.0000 
     57 CA         18.9000   10.5300   97.9800 C.3       6 GLY6        0.0000 
     58 CA         22.9900   14.3500   97.5100 C.3       6 GLY6        0.0000 
     59 CA         24.7000   13.1400   97.7900 C.3       6 GLY6        0.0000 
     60 CA         23.2400   12.9700   98.0500 C.3       6 GLY6        0.0000 
     61 CA         22.0200   11.4300   98.8400 C.3       6 GLY6        0.0000 
     62 CA         20.5500   11.2600   99.1000 C.3       6 GLY6        0.0000 
     63 CA         21.9500   13.3800   99.6800 C.3       6 GLY6        0.0000 
     64 CA         22.2000   12.0000  100.2200 C.3       6 GLY6        0.0000 
     65 CA         28.5700    9.9000  100.2600 C.3       6 GLY6        0.0000 
     66 CA         22.1200   13.9400  101.0600 C.3       6 GLY6        0.0000 
     67 CA         23.8400   12.7300  101.3400 C.3       6 GLY6        0.0000 
     68 CA         24.0900   11.3500  101.8700 C.3       6 GLY6        0.0000 
     69 CA         28.4300   13.8000  101.9400 C.3       6 GLY6        0.0000 
     70 CA         26.9600   13.6300  102.2000 C.3       6 GLY6        0.0000 
     71 CA         24.0200   13.3000  102.7100 C.3       6 GLY6        0.0000 
     72 CA         24.2700   11.9200  103.2500 C.3       6 GLY6        0.0000 
     73 DU         19.6900   12.8800   95.2700 H         7 CUB7        0.0000 
     74 DU         21.5900   12.2400   96.9300 H         7 CUB7        0.0000 
     75 DU         20.1200   12.0700   97.1900 H         7 CUB7        0.0000 
     76 DU         21.7700   12.8100   98.3100 H         7 CUB7        0.0000 
     77 DU         21.7000   14.7500   99.1500 H         7 CUB7        0.0000 
     78 DU         21.8700   15.3200  100.5200 H         7 CUB7        0.0000 
     79 DU         25.3100   12.9000  101.0800 H         7 CUB7        0.0000 
     80 DU         23.2700   17.4300  101.1000 H         7 CUB7        0.0000 
     81 DU         23.5200   16.0600  101.6400 H         7 CUB7        0.0000 
     82 DU         25.4900   13.4700  102.4600 H         7 CUB7        0.0000 
     83 DU         23.7000   16.6200  103.0200 H         7 CUB7        0.0000 
@<TRIPOS>BOND
@<TRIPOS>SUBSTRUCTURE
     1 SER1        1 GROUP   
     2 ALA2        3 GROUP   
     3 ASP3       38 GROUP   
     4 LYS4       42 GROUP   
     5 PHE5       48 GROUP   
     6 GLY6       53 GROUP   
     7 CUB7       73 GROUP   
@<TRIPOS>SET

