#    Name: 6meb_2_NAD
#    Modification time : Fri May 22 19:37:42 2020

@<TRIPOS>MOLECULE
6meb_2_NAD
   44    48     1     0     1
SMALL
NO_CHARGES


@<TRIPOS>ATOM
      1 PA         34.0080   28.7840   18.3350 P.3       1 NAD500      0.0000 
      2 O1A        35.3770   28.2570   18.4330 O.co2     1 NAD500      0.0000 
      3 O2A        33.6420   29.3380   16.9790 O.co2     1 NAD500      0.0000 
      4 O5B        33.7340   30.0030   19.3690 O.3       1 NAD500      0.0000 
      5 C5B        33.4380   29.8340   20.7700 C.3       1 NAD500      0.0000 
      6 C4B        33.6370   31.1820   21.4180 C.3       1 NAD500      0.0000 
      7 O4B        34.9040   31.2060   22.1130 O.3       1 NAD500      0.0000 
      8 C3B        33.6750   32.3810   20.4700 C.3       1 NAD500      0.0000 
      9 O3B        33.2010   33.5290   21.1580 O.3       1 NAD500      0.0000 
     10 C2B        35.1700   32.5190   20.1830 C.3       1 NAD500      0.0000 
     11 O2B        35.5050   33.8350   19.7580 O.3       1 NAD500      0.0000 
     12 C1B        35.7200   32.2330   21.5770 C.3       1 NAD500      0.0000 
     13 N9A        37.1060   31.7850   21.6540 N.pl3     1 NAD500      0.0000 
     14 C8A        37.9720   31.4240   20.6550 C.2       1 NAD500      0.0000 
     15 N7A        39.1630   31.0740   21.0820 N.2       1 NAD500      0.0000 
     16 C5A        39.0740   31.2210   22.4590 C.ar      1 NAD500      0.0000 
     17 C6A        40.0020   31.0160   23.5010 C.ar      1 NAD500      0.0000 
     18 N6A        41.2560   30.6000   23.3070 N.pl3     1 NAD500      0.0000 
     19 N1A        39.5870   31.2430   24.7670 N.ar      1 NAD500      0.0000 
     20 C2A        38.3280   31.6450   24.9680 C.ar      1 NAD500      0.0000 
     21 N3A        37.3690   31.8720   24.0690 N.ar      1 NAD500      0.0000 
     22 C4A        37.8100   31.6470   22.8250 C.ar      1 NAD500      0.0000 
     23 O3         32.8700   27.7380   18.7130 O.3       1 NAD500      0.0000 
     24 PN         31.4630   27.3020   18.0970 P.3       1 NAD500      0.0000 
     25 O1N        30.7280   26.5770   19.1610 O.co2     1 NAD500      0.0000 
     26 O2N        30.8320   28.4730   17.4530 O.co2     1 NAD500      0.0000 
     27 O5D        31.8250   26.2000   16.9670 O.3       1 NAD500      0.0000 
     28 C5D        33.0520   26.0800   16.1980 C.3       1 NAD500      0.0000 
     29 C4D        33.1050   24.7260   15.5220 C.3       1 NAD500      0.0000 
     30 O4D        32.7640   24.8730   14.1230 O.3       1 NAD500      0.0000 
     31 C3D        34.4430   23.9760   15.5850 C.3       1 NAD500      0.0000 
     32 O3D        34.2760   22.6640   16.1000 O.3       1 NAD500      0.0000 
     33 C2D        34.9090   23.9010   14.1280 C.3       1 NAD500      0.0000 
     34 O2D        35.4740   22.6510   13.7550 O.3       1 NAD500      0.0000 
     35 C1D        33.6170   24.0850   13.3390 C.3       1 NAD500      0.0000 
     36 N1N        34.0720   24.9230   12.0830 N.pl3     1 NAD500      0.0000 
     37 C2N        34.9740   25.8880   12.3330 C.ar      1 NAD500      0.0000 
     38 C3N        35.6600   26.4860   11.2920 C.ar      1 NAD500      0.0000 
     39 C7N        36.6230   27.6050   11.5830 C.2       1 NAD500      0.0000 
     40 O7N        36.7500   28.0170   12.7540 O.2       1 NAD500      0.0000 
     41 N7N        37.2780   28.1460   10.5560 N.am      1 NAD500      0.0000 
     42 C4N        35.3690   26.0920    9.9920 C.ar      1 NAD500      0.0000 
     43 C5N        34.3810   25.1570    9.7600 C.ar      1 NAD500      0.0000 
     44 C6N        33.7280   24.5770   10.8300 C.ar      1 NAD500      0.0000 
@<TRIPOS>BOND
     1    1    2 ar   
     2    1    3 ar   
     3    1    4 1    
     4    1   23 1    
     5    4    5 1    
     6    5    6 1    
     7    6    7 1    
     8    6    8 1    
     9    7   12 1    
    10    8    9 1    
    11    8   10 1    
    12   10   11 1    
    13   10   12 1    
    14   12   13 1    
    15   13   14 1    
    16   13   22 1    
    17   14   15 2    
    18   15   16 1    
    19   16   17 ar   
    20   16   22 ar   
    21   17   18 1    
    22   17   19 ar   
    23   19   20 ar   
    24   20   21 ar   
    25   21   22 ar   
    26   23   24 1    
    27   24   25 ar   
    28   24   26 ar   
    29   24   27 1    
    30   27   28 1    
    31   28   29 1    
    32   29   30 1    
    33   29   31 1    
    34   30   35 1    
    35   31   32 1    
    36   31   33 1    
    37   33   34 1    
    38   33   35 1    
    39   35   36 1    
    40   36   37 ar   
    41   36   44 ar   
    42   37   38 ar   
    43   38   39 1    
    44   38   42 ar   
    45   39   40 2    
    46   39   41 am   
    47   42   43 ar   
    48   43   44 ar   
@<TRIPOS>SUBSTRUCTURE
     1 NAD500      1 GROUP   
@<TRIPOS>SET
ATOM$ORANGE STATIC     ATOMS   COLORGROUP SYSTEM 
42 5 5 6 6 8 8 10 10 12 12 14 14 16 16 17 17 20 \
20 22 22 28 28 29 29 31 31 33 33 35 35 37 37 38 38 39 \
39 42 42 43 43 44 44 

