#    Name: 6oez_2_FAD_CAVITY_N1_4
#    Modification time : Fri May 22 19:36:36 2020

@<TRIPOS>MOLECULE
6oez_2_FAD_CAVITY_N1_4
   60     0     7     0     0
SMALL
NO_CHARGES


@<TRIPOS>ATOM
      1 OG          3.5400  -24.0800  -41.4700 O.3       1 SER1        0.0000 
      2 OG          9.3500  -27.0000  -45.5100 O.3       1 SER1        0.0000 
      3 N           0.8300  -27.3700  -43.5400 N.am      2 ALA2        0.0000 
      4 N           1.2000  -25.4400  -42.7400 N.am      2 ALA2        0.0000 
      5 N           2.0100  -26.6900  -42.9000 N.am      2 ALA2        0.0000 
      6 N           2.3700  -24.7600  -42.1100 N.am      2 ALA2        0.0000 
      7 O           1.9100  -25.2300  -40.7600 O.2       2 ALA2        0.0000 
      8 N           3.6400  -25.5400  -43.6100 N.am      2 ALA2        0.0000 
      9 N           3.1800  -26.0100  -42.2600 N.am      2 ALA2        0.0000 
     10 O           4.9100  -26.3200  -45.1200 O.2       2 ALA2        0.0000 
     11 O           3.0800  -24.5500  -40.1200 O.2       2 ALA2        0.0000 
     12 N           4.8200  -24.8600  -42.9700 N.am      2 ALA2        0.0000 
     13 N           4.3600  -25.3300  -41.6200 N.am      2 ALA2        0.0000 
     14 N           3.8900  -25.8000  -40.2800 N.am      2 ALA2        0.0000 
     15 N           4.7000  -27.0500  -40.4400 N.am      2 ALA2        0.0000 
     16 N           5.5300  -24.6500  -40.9900 N.am      2 ALA2        0.0000 
     17 N           5.8800  -26.3700  -39.8000 N.am      2 ALA2        0.0000 
     18 N           8.5400  -25.7500  -45.3500 N.am      2 ALA2        0.0000 
     19 OD1         3.2800  -27.4700  -44.4100 O.co2     3 ASP3        0.0000 
     20 OD1         7.5200  -25.2200  -40.5100 O.co2     3 ASP3        0.0000 
     21 OD1         9.2500  -25.5400  -43.3600 O.co2     3 ASP3        0.0000 
     22 OD1         8.7900  -26.0000  -42.0100 O.co2     3 ASP3        0.0000 
     23 OD1         7.8700  -26.9400  -39.3200 O.co2     3 ASP3        0.0000 
     24 NZ          6.7000  -23.9700  -40.3500 N.4       4 LYS4        0.0000 
     25 NZ          7.0500  -25.6900  -39.1600 N.4       4 LYS4        0.0000 
     26 CZ          2.8200  -27.9400  -43.0600 C.ar      5 PHE5        0.0000 
     27 CZ          4.4500  -26.7900  -43.7700 C.ar      5 PHE5        0.0000 
     28 CZ          3.9900  -27.2600  -42.4200 C.ar      5 PHE5        0.0000 
     29 CZ          3.5300  -27.7300  -41.0700 C.ar      5 PHE5        0.0000 
     30 CZ          5.7200  -27.5700  -45.2800 C.ar      5 PHE5        0.0000 
     31 CZ          6.5400  -28.8300  -45.4300 C.ar      5 PHE5        0.0000 
     32 CZ          5.6300  -26.1100  -43.1300 C.ar      5 PHE5        0.0000 
     33 CZ          5.1700  -26.5800  -41.7800 C.ar      5 PHE5        0.0000 
     34 CZ          6.4400  -27.3600  -43.2900 C.ar      5 PHE5        0.0000 
     35 CZ          8.6300  -27.2100  -47.4900 C.ar      5 PHE5        0.0000 
     36 CZ          7.1500  -27.1500  -41.3000 C.ar      5 PHE5        0.0000 
     37 CZ          6.6900  -27.6200  -39.9500 C.ar      5 PHE5        0.0000 
     38 CA          2.4700  -26.2200  -44.2500 C.3       6 GLY6        0.0000 
     39 CA          1.5400  -27.1600  -41.5500 C.3       6 GLY6        0.0000 
     40 CA          2.3600  -28.4100  -41.7100 C.3       6 GLY6        0.0000 
     41 CA          2.7200  -26.4800  -40.9200 C.3       6 GLY6        0.0000 
     42 CA          6.1900  -27.1100  -46.6200 C.3       6 GLY6        0.0000 
     43 CA          7.0000  -28.3600  -46.7800 C.3       6 GLY6        0.0000 
     44 CA          6.0900  -25.6400  -44.4800 C.3       6 GLY6        0.0000 
     45 CA          7.3600  -26.4300  -45.9900 C.3       6 GLY6        0.0000 
     46 CA          6.9000  -26.8900  -44.6400 C.3       6 GLY6        0.0000 
     47 CA          8.1700  -27.6800  -46.1400 C.3       6 GLY6        0.0000 
     48 CA          7.7100  -28.1500  -44.8000 C.3       6 GLY6        0.0000 
     49 CA          8.9800  -28.9300  -46.3000 C.3       6 GLY6        0.0000 
     50 CA          6.4500  -23.7100  -43.6800 C.3       6 GLY6        0.0000 
     51 CA          5.9900  -24.1800  -42.3300 C.3       6 GLY6        0.0000 
     52 CA          7.2600  -24.9600  -43.8400 C.3       6 GLY6        0.0000 
     53 CA          8.0700  -26.2100  -44.0000 C.3       6 GLY6        0.0000 
     54 CA          7.6100  -26.6800  -42.6500 C.3       6 GLY6        0.0000 
     55 CA          8.8800  -27.4700  -44.1600 C.3       6 GLY6        0.0000 
     56 CA          7.1700  -23.5000  -41.7000 C.3       6 GLY6        0.0000 
     57 CA          8.4400  -24.2800  -43.2000 C.3       6 GLY6        0.0000 
     58 CA          7.9800  -24.7500  -41.8500 C.3       6 GLY6        0.0000 
     59 DU          6.8000  -25.4300  -42.4900 H         7 CUB7        0.0000 
     60 DU          6.3400  -25.9000  -41.1400 H         7 CUB7        0.0000 
@<TRIPOS>BOND
@<TRIPOS>SUBSTRUCTURE
     1 SER1        1 GROUP   
     2 ALA2        3 GROUP   
     3 ASP3       19 GROUP   
     4 LYS4       24 GROUP   
     5 PHE5       26 GROUP   
     6 GLY6       38 GROUP   
     7 CUB7       59 GROUP   
@<TRIPOS>SET

