#    Name: 6oez_2_FAD
#    Modification time : Fri May 22 19:36:34 2020

@<TRIPOS>MOLECULE
6oez_2_FAD
   53    58     1     0     1
SMALL
NO_CHARGES


@<TRIPOS>ATOM
      1 PA          7.5630  -17.9230  -39.3800 P.3       1 FAD501      0.0000 
      2 O1A         8.6080  -18.9850  -39.6000 O.co2     1 FAD501      0.0000 
      3 O2A         6.2880  -17.9420  -40.1770 O.co2     1 FAD501      0.0000 
      4 O5B         8.2500  -16.4900  -39.6070 O.3       1 FAD501      0.0000 
      5 C5B         9.4550  -16.1220  -38.9460 C.3       1 FAD501      0.0000 
      6 C4B        10.0550  -14.9340  -39.6790 C.3       1 FAD501      0.0000 
      7 O4B        10.9850  -14.2390  -38.8520 O.3       1 FAD501      0.0000 
      8 C3B        10.7990  -15.3520  -40.9370 C.3       1 FAD501      0.0000 
      9 O3B        10.1670  -14.7550  -42.0690 O.3       1 FAD501      0.0000 
     10 C2B        12.2230  -14.8590  -40.7530 C.3       1 FAD501      0.0000 
     11 O2B        12.7430  -14.2830  -41.9510 O.3       1 FAD501      0.0000 
     12 C1B        12.0970  -13.8270  -39.6420 C.3       1 FAD501      0.0000 
     13 N9A        13.2710  -13.6940  -38.7500 N.pl3     1 FAD501      0.0000 
     14 C8A        14.0150  -14.6820  -38.2190 C.2       1 FAD501      0.0000 
     15 N7A        14.9980  -14.1660  -37.4380 N.2       1 FAD501      0.0000 
     16 C5A        14.8810  -12.8280  -37.4620 C.ar      1 FAD501      0.0000 
     17 C6A        15.5890  -11.6780  -36.8600 C.ar      1 FAD501      0.0000 
     18 N6A        16.6540  -11.8670  -36.0510 N.pl3     1 FAD501      0.0000 
     19 N1A        15.1360  -10.4380  -37.1480 N.ar      1 FAD501      0.0000 
     20 C2A        14.0780  -10.2290  -37.9520 C.ar      1 FAD501      0.0000 
     21 N3A        13.3960  -11.2310  -38.5270 N.ar      1 FAD501      0.0000 
     22 C4A        13.7420  -12.5240  -38.3290 C.ar      1 FAD501      0.0000 
     23 N1          2.4070  -25.5130  -41.5390 N.2       1 FAD501      0.0000 
     24 C2          1.1210  -25.8090  -41.8280 C.2       1 FAD501      0.0000 
     25 O2          0.2320  -25.4750  -41.0180 O.2       1 FAD501      0.0000 
     26 N3          0.7640  -26.4440  -42.9530 N.am      1 FAD501      0.0000 
     27 C4          1.6500  -26.8380  -43.8730 C.2       1 FAD501      0.0000 
     28 O4          1.2820  -27.4270  -44.9110 O.2       1 FAD501      0.0000 
     29 C4X         3.0830  -26.5550  -43.6340 C.2       1 FAD501      0.0000 
     30 N5          4.0480  -26.9120  -44.5060 N.2       1 FAD501      0.0000 
     31 C5X         5.3460  -26.6310  -44.2470 C.ar      1 FAD501      0.0000 
     32 C6          6.3150  -27.0150  -45.1700 C.ar      1 FAD501      0.0000 
     33 C7          7.6560  -26.7460  -44.9360 C.ar      1 FAD501      0.0000 
     34 C7M         8.6930  -27.1670  -45.9430 C.3       1 FAD501      0.0000 
     35 C8          8.0540  -26.0360  -43.6920 C.ar      1 FAD501      0.0000 
     36 C8M         9.4910  -25.7140  -43.3830 C.3       1 FAD501      0.0000 
     37 C9          7.0960  -25.6540  -42.7710 C.ar      1 FAD501      0.0000 
     38 C9A         5.7470  -25.9210  -42.9940 C.ar      1 FAD501      0.0000 
     39 N10         4.7430  -25.5420  -42.0730 N.pl3     1 FAD501      0.0000 
     40 C10         3.4090  -25.8510  -42.3770 C.2       1 FAD501      0.0000 
     41 C1'         5.0100  -24.8520  -40.8070 C.3       1 FAD501      0.0000 
     42 C2'         4.7810  -23.3580  -40.9380 C.3       1 FAD501      0.0000 
     43 O2'         5.4810  -22.8420  -42.0720 O.3       1 FAD501      0.0000 
     44 C3'         5.2770  -22.7070  -39.6590 C.3       1 FAD501      0.0000 
     45 O3'         4.7530  -23.4270  -38.5440 O.3       1 FAD501      0.0000 
     46 C4'         4.8590  -21.2500  -39.5470 C.3       1 FAD501      0.0000 
     47 O4'         5.3100  -20.5300  -40.6920 O.3       1 FAD501      0.0000 
     48 C5'         5.4580  -20.6410  -38.2890 C.3       1 FAD501      0.0000 
     49 O5'         5.1280  -19.2600  -38.2270 O.3       1 FAD501      0.0000 
     50 P           5.8200  -18.2940  -37.1500 P.3       1 FAD501      0.0000 
     51 O1P         6.1270  -19.1070  -35.9230 O.co2     1 FAD501      0.0000 
     52 O2P         4.9750  -17.0510  -37.0600 O.co2     1 FAD501      0.0000 
     53 O3P         7.2240  -17.8670  -37.8090 O.3       1 FAD501      0.0000 
@<TRIPOS>BOND
     1    1    2 ar   
     2    1    3 ar   
     3    1    4 1    
     4    1   53 1    
     5    4    5 1    
     6    5    6 1    
     7    6    7 1    
     8    6    8 1    
     9    7   12 1    
    10    8    9 1    
    11    8   10 1    
    12   10   11 1    
    13   10   12 1    
    14   12   13 1    
    15   13   14 1    
    16   13   22 1    
    17   14   15 2    
    18   15   16 1    
    19   16   17 ar   
    20   16   22 ar   
    21   17   18 1    
    22   17   19 ar   
    23   19   20 ar   
    24   20   21 ar   
    25   21   22 ar   
    26   23   24 1    
    27   23   40 2    
    28   24   25 2    
    29   24   26 am   
    30   26   27 am   
    31   27   28 2    
    32   27   29 1    
    33   29   30 2    
    34   29   40 1    
    35   30   31 1    
    36   31   32 ar   
    37   31   38 ar   
    38   32   33 ar   
    39   33   34 1    
    40   33   35 ar   
    41   35   36 1    
    42   35   37 ar   
    43   37   38 ar   
    44   38   39 1    
    45   39   40 1    
    46   39   41 1    
    47   41   42 1    
    48   42   43 1    
    49   42   44 1    
    50   44   45 1    
    51   44   46 1    
    52   46   47 1    
    53   46   48 1    
    54   48   49 1    
    55   49   50 1    
    56   50   51 ar   
    57   50   52 ar   
    58   50   53 1    
@<TRIPOS>SUBSTRUCTURE
     1 FAD501      1 GROUP   
@<TRIPOS>SET
ATOM$ORANGE STATIC     ATOMS   COLORGROUP SYSTEM 
54 5 5 6 6 8 8 10 10 12 12 14 14 16 16 17 17 20 \
20 22 22 24 24 27 27 29 29 31 31 32 32 33 33 34 34 35 \
35 36 36 37 37 38 38 40 40 41 41 42 42 44 44 46 46 48 \
48 

