#    Name: 6oez_1_FAD_CAVITY_N1_8
#    Modification time : Fri May 22 19:36:27 2020

@<TRIPOS>MOLECULE
6oez_1_FAD_CAVITY_N1_8
   73     0     7     0     0
SMALL
NO_CHARGES


@<TRIPOS>ATOM
      1 OG        -32.7200  -43.9500  -55.7800 O.3       1 SER1        0.0000 
      2 OG        -31.8900  -41.5500  -56.3300 O.3       1 SER1        0.0000 
      3 OG        -32.3500  -42.0200  -54.9800 O.3       1 SER1        0.0000 
      4 OG        -30.7200  -40.8700  -55.6900 O.3       1 SER1        0.0000 
      5 OG        -29.5400  -40.1900  -55.0500 O.3       1 SER1        0.0000 
      6 O         -33.8900  -44.6300  -56.4200 O.2       2 ALA2        0.0000 
      7 O         -34.3500  -45.1000  -55.0700 O.2       2 ALA2        0.0000 
      8 O         -34.8200  -45.5700  -53.7200 O.2       2 ALA2        0.0000 
      9 N         -29.5900  -39.2000  -63.0700 N.am      2 ALA2        0.0000 
     10 N         -30.0500  -39.6700  -61.7200 N.am      2 ALA2        0.0000 
     11 O         -30.6200  -42.3300  -57.8400 O.2       2 ALA2        0.0000 
     12 N         -31.8800  -37.8900  -56.7200 N.am      2 ALA2        0.0000 
     13 N         -31.0700  -39.1500  -56.8800 N.am      2 ALA2        0.0000 
     14 N         -31.5300  -39.6200  -55.5300 N.am      2 ALA2        0.0000 
     15 N         -29.8000  -39.9300  -58.3900 N.am      2 ALA2        0.0000 
     16 N         -30.2600  -40.4000  -57.0400 N.am      2 ALA2        0.0000 
     17 O         -28.9800  -41.1800  -58.5500 O.2       2 ALA2        0.0000 
     18 N         -30.7000  -37.2200  -56.0900 N.am      2 ALA2        0.0000 
     19 N         -29.8900  -38.4700  -56.2400 N.am      2 ALA2        0.0000 
     20 O         -30.3500  -38.9400  -54.9000 O.2       2 ALA2        0.0000 
     21 O         -28.1600  -38.7800  -59.1000 O.2       2 ALA2        0.0000 
     22 N         -28.6200  -39.2500  -57.7500 N.am      2 ALA2        0.0000 
     23 N         -29.0800  -39.7200  -56.4000 N.am      2 ALA2        0.0000 
     24 O         -29.1800  -38.2600  -54.2600 O.2       2 ALA2        0.0000 
     25 N         -27.4500  -38.5700  -57.1100 N.am      2 ALA2        0.0000 
     26 N         -27.9100  -39.0400  -55.7600 N.am      2 ALA2        0.0000 
     27 N         -28.3700  -39.5100  -54.4200 N.am      2 ALA2        0.0000 
     28 N         -27.5400  -37.1100  -54.9700 N.am      2 ALA2        0.0000 
     29 N         -26.7300  -38.3600  -55.1200 N.am      2 ALA2        0.0000 
     30 OD1       -32.0300  -39.1000  -62.2000 O.co2     3 ASP3        0.0000 
     31 OD1       -32.4900  -39.5700  -60.8600 O.co2     3 ASP3        0.0000 
     32 OD1       -26.9800  -38.1000  -58.4600 O.co2     3 ASP3        0.0000 
     33 OD1       -26.2700  -37.8900  -56.4700 O.co2     3 ASP3        0.0000 
     34 NZ        -34.7000  -43.3800  -56.2600 N.4       4 LYS4        0.0000 
     35 NZ        -35.1600  -43.8500  -54.9100 N.4       4 LYS4        0.0000 
     36 NZ        -33.5300  -42.7000  -55.6200 N.4       4 LYS4        0.0000 
     37 NZ        -33.9900  -43.1700  -54.2700 N.4       4 LYS4        0.0000 
     38 NZ        -32.2400  -39.8300  -57.5200 N.4       4 LYS4        0.0000 
     39 NZ        -32.7000  -40.3000  -56.1700 N.4       4 LYS4        0.0000 
     40 NZ        -33.1600  -40.7600  -54.8200 N.4       4 LYS4        0.0000 
     41 CZ        -31.4200  -37.4300  -58.0700 C.ar      5 PHE5        0.0000 
     42 CZ        -30.1500  -38.2100  -59.5800 C.ar      5 PHE5        0.0000 
     43 CZ        -30.6100  -38.6800  -58.2300 C.ar      5 PHE5        0.0000 
     44 CZ        -30.2400  -36.7500  -57.4300 C.ar      5 PHE5        0.0000 
     45 CZ        -28.5100  -37.0600  -60.2900 C.ar      5 PHE5        0.0000 
     46 CZ        -28.9700  -37.5300  -58.9400 C.ar      5 PHE5        0.0000 
     47 CZ        -29.4300  -38.0000  -57.5900 C.ar      5 PHE5        0.0000 
     48 CZ        -27.8000  -36.8500  -58.3000 C.ar      5 PHE5        0.0000 
     49 CZ        -28.2600  -37.3200  -56.9500 C.ar      5 PHE5        0.0000 
     50 CA        -36.3400  -44.5300  -55.5500 C.3       6 GLY6        0.0000 
     51 CA        -36.8000  -44.9900  -54.2000 C.3       6 GLY6        0.0000 
     52 CA        -35.5300  -45.7800  -55.7100 C.3       6 GLY6        0.0000 
     53 CA        -35.6300  -44.3100  -53.5600 C.3       6 GLY6        0.0000 
     54 CA        -32.6100  -41.7600  -58.3200 C.3       6 GLY6        0.0000 
     55 CA        -33.0700  -42.2300  -56.9700 C.3       6 GLY6        0.0000 
     56 CA        -32.2600  -43.4800  -57.1300 C.3       6 GLY6        0.0000 
     57 CA        -33.1800  -44.4200  -54.4300 C.3       6 GLY6        0.0000 
     58 CA        -32.1300  -37.6400  -60.0600 C.3       6 GLY6        0.0000 
     59 CA        -30.4000  -37.9500  -62.9100 C.3       6 GLY6        0.0000 
     60 CA        -30.8600  -38.4200  -61.5600 C.3       6 GLY6        0.0000 
     61 CA        -30.5100  -40.1400  -60.3700 C.3       6 GLY6        0.0000 
     62 CA        -30.9700  -40.6100  -59.0300 C.3       6 GLY6        0.0000 
     63 CA        -31.4300  -41.0800  -57.6800 C.3       6 GLY6        0.0000 
     64 CA        -30.1600  -41.8600  -59.1900 C.3       6 GLY6        0.0000 
     65 CA        -31.0800  -42.8000  -56.4900 C.3       6 GLY6        0.0000 
     66 CA        -29.2200  -37.2700  -62.2700 C.3       6 GLY6        0.0000 
     67 CA        -29.6800  -37.7400  -60.9300 C.3       6 GLY6        0.0000 
     68 CA        -28.4100  -38.5200  -62.4300 C.3       6 GLY6        0.0000 
     69 CA        -28.8700  -38.9900  -61.0800 C.3       6 GLY6        0.0000 
     70 CA        -29.3300  -39.4600  -59.7400 C.3       6 GLY6        0.0000 
     71 DU        -31.3200  -38.8900  -60.2200 H         7 CUB7        0.0000 
     72 DU        -31.7800  -39.3600  -58.8700 H         7 CUB7        0.0000 
     73 DU        -28.7200  -37.7900  -55.6100 H         7 CUB7        0.0000 
@<TRIPOS>BOND
@<TRIPOS>SUBSTRUCTURE
     1 SER1        1 GROUP   
     2 ALA2        6 GROUP   
     3 ASP3       30 GROUP   
     4 LYS4       34 GROUP   
     5 PHE5       41 GROUP   
     6 GLY6       50 GROUP   
     7 CUB7       71 GROUP   
@<TRIPOS>SET

