#    Name: 6oez_1_FAD
#    Modification time : Fri May 22 19:36:26 2020

@<TRIPOS>MOLECULE
6oez_1_FAD
   53    58     1     0     1
SMALL
NO_CHARGES


@<TRIPOS>ATOM
      1 PA        -34.9560  -45.8770  -56.5300 P.3       1 FAD501      0.0000 
      2 O1A       -33.6180  -46.0010  -55.8510 O.co2     1 FAD501      0.0000 
      3 O2A       -35.0930  -45.0710  -57.7960 O.co2     1 FAD501      0.0000 
      4 O5B       -35.4930  -47.3570  -56.8150 O.3       1 FAD501      0.0000 
      5 C5B       -36.7530  -47.5610  -57.4330 C.3       1 FAD501      0.0000 
      6 C4B       -36.7230  -48.9410  -58.0600 C.3       1 FAD501      0.0000 
      7 O4B       -38.0460  -49.4480  -58.1980 O.3       1 FAD501      0.0000 
      8 C3B       -36.0880  -48.9220  -59.4410 C.3       1 FAD501      0.0000 
      9 O3B       -34.9810  -49.8270  -59.4610 O.3       1 FAD501      0.0000 
     10 C2B       -37.1890  -49.3530  -60.3910 C.3       1 FAD501      0.0000 
     11 O2B       -36.7020  -50.2270  -61.4110 O.3       1 FAD501      0.0000 
     12 C1B       -38.1780  -50.0590  -59.4770 C.3       1 FAD501      0.0000 
     13 N9A       -39.5940  -49.9710  -59.8970 N.pl3     1 FAD501      0.0000 
     14 C8A       -40.2670  -48.8800  -60.3080 C.2       1 FAD501      0.0000 
     15 N7A       -41.5550  -49.2030  -60.5960 N.2       1 FAD501      0.0000 
     16 C5A       -41.7120  -50.5190  -60.3630 C.ar      1 FAD501      0.0000 
     17 C6A       -42.8060  -51.5090  -60.4580 C.ar      1 FAD501      0.0000 
     18 N6A       -44.0390  -51.1460  -60.8760 N.pl3     1 FAD501      0.0000 
     19 N1A       -42.5300  -52.7870  -60.1140 N.ar      1 FAD501      0.0000 
     20 C2A       -41.3100  -53.1720  -59.6960 C.ar      1 FAD501      0.0000 
     21 N3A       -40.2770  -52.3230  -59.5890 N.ar      1 FAD501      0.0000 
     22 C4A       -40.4140  -51.0160  -59.9020 C.ar      1 FAD501      0.0000 
     23 N1        -29.1720  -38.7820  -55.3330 N.2       1 FAD501      0.0000 
     24 C2        -28.1400  -38.4800  -54.5130 C.2       1 FAD501      0.0000 
     25 O2        -28.3210  -38.5420  -53.2770 O.2       1 FAD501      0.0000 
     26 N3        -26.9340  -38.1180  -54.9740 N.am      1 FAD501      0.0000 
     27 C4        -26.6620  -38.0300  -56.2810 C.2       1 FAD501      0.0000 
     28 O4        -25.5250  -37.6920  -56.6790 O.2       1 FAD501      0.0000 
     29 C4X       -27.7390  -38.3440  -57.2480 C.2       1 FAD501      0.0000 
     30 N5        -27.5570  -38.2830  -58.5840 N.2       1 FAD501      0.0000 
     31 C5X       -28.5710  -38.5790  -59.4300 C.ar      1 FAD501      0.0000 
     32 C6        -28.3430  -38.5030  -60.7990 C.ar      1 FAD501      0.0000 
     33 C7        -29.3560  -38.7980  -61.7020 C.ar      1 FAD501      0.0000 
     34 C7M       -29.0930  -38.7110  -63.1810 C.3       1 FAD501      0.0000 
     35 C8        -30.6950  -39.2020  -61.1970 C.ar      1 FAD501      0.0000 
     36 C8M       -31.8290  -39.5330  -62.1290 C.3       1 FAD501      0.0000 
     37 C9        -30.9310  -39.2780  -59.8340 C.ar      1 FAD501      0.0000 
     38 C9A       -29.9200  -38.9830  -58.9190 C.ar      1 FAD501      0.0000 
     39 N10       -30.1240  -39.0490  -57.5190 N.pl3     1 FAD501      0.0000 
     40 C10       -29.0430  -38.7370  -56.6750 C.2       1 FAD501      0.0000 
     41 C1'       -31.3910  -39.4260  -56.8820 C.3       1 FAD501      0.0000 
     42 C2'       -31.3070  -40.8610  -56.3850 C.3       1 FAD501      0.0000 
     43 O2'       -30.9540  -41.7340  -57.4630 O.3       1 FAD501      0.0000 
     44 C3'       -32.6480  -41.2590  -55.7850 C.3       1 FAD501      0.0000 
     45 O3'       -33.0590  -40.2380  -54.8710 O.3       1 FAD501      0.0000 
     46 C4'       -32.5440  -42.6050  -55.0760 C.3       1 FAD501      0.0000 
     47 O4'       -32.5610  -43.6530  -56.0510 O.3       1 FAD501      0.0000 
     48 C5'       -33.6620  -42.8330  -54.0630 C.3       1 FAD501      0.0000 
     49 O5'       -34.7990  -43.3500  -54.7400 O.3       1 FAD501      0.0000 
     50 P         -35.6240  -44.5880  -54.1380 P.3       1 FAD501      0.0000 
     51 O1P       -34.6850  -45.4840  -53.3750 O.co2     1 FAD501      0.0000 
     52 O2P       -36.8670  -44.0760  -53.4670 O.co2     1 FAD501      0.0000 
     53 O3P       -36.0520  -45.3640  -55.4730 O.3       1 FAD501      0.0000 
@<TRIPOS>BOND
     1    1    2 ar   
     2    1    3 ar   
     3    1    4 1    
     4    1   53 1    
     5    4    5 1    
     6    5    6 1    
     7    6    7 1    
     8    6    8 1    
     9    7   12 1    
    10    8    9 1    
    11    8   10 1    
    12   10   11 1    
    13   10   12 1    
    14   12   13 1    
    15   13   14 1    
    16   13   22 1    
    17   14   15 2    
    18   15   16 1    
    19   16   17 ar   
    20   16   22 ar   
    21   17   18 1    
    22   17   19 ar   
    23   19   20 ar   
    24   20   21 ar   
    25   21   22 ar   
    26   23   24 1    
    27   23   40 2    
    28   24   25 2    
    29   24   26 am   
    30   26   27 am   
    31   27   28 2    
    32   27   29 1    
    33   29   30 2    
    34   29   40 1    
    35   30   31 1    
    36   31   32 ar   
    37   31   38 ar   
    38   32   33 ar   
    39   33   34 1    
    40   33   35 ar   
    41   35   36 1    
    42   35   37 ar   
    43   37   38 ar   
    44   38   39 1    
    45   39   40 1    
    46   39   41 1    
    47   41   42 1    
    48   42   43 1    
    49   42   44 1    
    50   44   45 1    
    51   44   46 1    
    52   46   47 1    
    53   46   48 1    
    54   48   49 1    
    55   49   50 1    
    56   50   51 ar   
    57   50   52 ar   
    58   50   53 1    
@<TRIPOS>SUBSTRUCTURE
     1 FAD501      1 GROUP   
@<TRIPOS>SET
ATOM$ORANGE STATIC     ATOMS   COLORGROUP SYSTEM 
54 5 5 6 6 8 8 10 10 12 12 14 14 16 16 17 17 20 \
20 22 22 24 24 27 27 29 29 31 31 32 32 33 33 34 34 35 \
35 36 36 37 37 38 38 40 40 41 41 42 42 44 44 46 46 48 \
48 

