#    Name: 6nnd_1_DHF
#    Modification time : Fri May 22 19:31:32 2020

@<TRIPOS>MOLECULE
6nnd_1_DHF
   32    34     1     0     0
SMALL
NO_CHARGES


@<TRIPOS>ATOM
      1 N1         10.9140    2.5990   25.7410 N.pl3     1 DHF204      0.0000 
      2 C2         11.2570    1.8820   26.8010 C.2       1 DHF204      0.0000 
      3 NA2        12.2750    0.9100   26.7260 N.pl3     1 DHF204      0.0000 
      4 N3         10.6580    2.0670   28.0300 N.2       1 DHF204      0.0000 
      5 C4          9.7270    2.9270   28.2230 C.2       1 DHF204      0.0000 
      6 O4          9.2490    3.0330   29.3030 O.2       1 DHF204      0.0000 
      7 C4A         9.3620    3.6840   27.1340 C.2       1 DHF204      0.0000 
      8 N5          8.3400    4.6660   27.3360 N.2       1 DHF204      0.0000 
      9 C6          7.9340    5.4270   26.2920 C.2       1 DHF204      0.0000 
     10 C7          8.5930    5.2480   24.9350 C.3       1 DHF204      0.0000 
     11 N8          9.5620    4.3130   24.7770 N.pl3     1 DHF204      0.0000 
     12 C8A         9.9610    3.5020   25.8870 C.2       1 DHF204      0.0000 
     13 C9          6.8470    6.4580   26.4940 C.3       1 DHF204      0.0000 
     14 N10         6.8710    7.0350   27.7930 N.pl3     1 DHF204      0.0000 
     15 C11         9.7900    9.1750   29.9420 C.ar      1 DHF204      0.0000 
     16 C12        10.0940    8.7070   28.6770 C.ar      1 DHF204      0.0000 
     17 C13         9.1620    8.0240   27.9650 C.ar      1 DHF204      0.0000 
     18 C14         7.9310    7.7590   28.4580 C.ar      1 DHF204      0.0000 
     19 C15         7.6570    8.2150   29.7210 C.ar      1 DHF204      0.0000 
     20 C16         8.5750    8.9170   30.4490 C.ar      1 DHF204      0.0000 
     21 C          10.7930    9.9320   30.7430 C.2       1 DHF204      0.0000 
     22 O          10.5270   10.4680   31.6900 O.2       1 DHF204      0.0000 
     23 N          12.1110    9.9500   30.2550 N.am      1 DHF204      0.0000 
     24 CA         13.2220   10.6190   30.8500 C.3       1 DHF204      0.0000 
     25 CB         13.8580    9.5820   31.7500 C.3       1 DHF204      0.0000 
     26 CG         15.0490   10.0440   32.4780 C.3       1 DHF204      0.0000 
     27 CD         15.5650    8.9910   33.4650 C.2       1 DHF204      0.0000 
     28 OE1        14.7320    8.2830   33.9640 O.co2     1 DHF204      0.0000 
     29 OE2        16.7770    8.8890   33.7290 O.co2     1 DHF204      0.0000 
     30 CT         14.1150   11.0570   29.6790 C.2       1 DHF204      0.0000 
     31 O1         14.1320   10.3450   28.6740 O.co2     1 DHF204      0.0000 
     32 O2         14.7670   12.1060   29.8280 O.co2     1 DHF204      0.0000 
@<TRIPOS>BOND
     1    1    2 1    
     2    1   12 1    
     3    2    3 1    
     4    2    4 2    
     5    4    5 1    
     6    5    6 2    
     7    5    7 1    
     8    7    8 1    
     9    7   12 2    
    10    8    9 2    
    11    9   10 1    
    12    9   13 1    
    13   10   11 1    
    14   11   12 1    
    15   13   14 1    
    16   14   18 1    
    17   15   16 ar   
    18   15   20 ar   
    19   15   21 1    
    20   16   17 ar   
    21   17   18 ar   
    22   18   19 ar   
    23   19   20 ar   
    24   21   22 2    
    25   21   23 am   
    26   23   24 1    
    27   24   25 1    
    28   24   30 1    
    29   25   26 1    
    30   26   27 1    
    31   27   28 ar   
    32   27   29 ar   
    33   30   31 ar   
    34   30   32 ar   
@<TRIPOS>SUBSTRUCTURE
     1 DHF204      1 GROUP   
@<TRIPOS>SET

