#    Name: 6nnd_2_DHF
#    Modification time : Fri May 22 19:31:35 2020

@<TRIPOS>MOLECULE
6nnd_2_DHF
   32    34     1     0     0
SMALL
NO_CHARGES


@<TRIPOS>ATOM
      1 N1         34.6920   -6.7290   13.7380 N.pl3     1 DHF203      0.0000 
      2 C2         34.2770   -7.8820   14.2460 C.2       1 DHF203      0.0000 
      3 NA2        33.2840   -7.8900   15.2380 N.pl3     1 DHF203      0.0000 
      4 N3         34.7630   -9.0920   13.8160 N.2       1 DHF203      0.0000 
      5 C4         35.6680   -9.1410   12.8910 C.2       1 DHF203      0.0000 
      6 O4         36.1060  -10.1750   12.5300 O.2       1 DHF203      0.0000 
      7 C4A        36.1050   -7.9460   12.3630 C.2       1 DHF203      0.0000 
      8 N5         37.0880   -8.0180   11.3400 N.2       1 DHF203      0.0000 
      9 C6         37.5640   -6.8650   10.7710 C.2       1 DHF203      0.0000 
     10 C7         37.0070   -5.5440   11.2390 C.3       1 DHF203      0.0000 
     11 N8         36.0640   -5.5160   12.2270 N.pl3     1 DHF203      0.0000 
     12 C8A        35.6040   -6.7370   12.8010 C.2       1 DHF203      0.0000 
     13 C9         38.6360   -6.8960    9.6990 C.3       1 DHF203      0.0000 
     14 N10        38.7680   -8.1180    8.9910 N.pl3     1 DHF203      0.0000 
     15 C11        35.8680  -10.0480    6.7350 C.ar      1 DHF203      0.0000 
     16 C12        35.5730   -8.8290    7.2920 C.ar      1 DHF203      0.0000 
     17 C13        36.5050   -8.1740    8.0280 C.ar      1 DHF203      0.0000 
     18 C14        37.7290   -8.7200    8.2400 C.ar      1 DHF203      0.0000 
     19 C15        38.0240   -9.9320    7.6760 C.ar      1 DHF203      0.0000 
     20 C16        37.0930  -10.5910    6.9260 C.ar      1 DHF203      0.0000 
     21 C          34.8510  -10.7610    5.9060 C.2       1 DHF203      0.0000 
     22 O          35.1290  -11.6110    5.2310 O.2       1 DHF203      0.0000 
     23 N          33.5250  -10.3140    6.0060 N.am      1 DHF203      0.0000 
     24 CA         32.4000  -10.8020    5.2650 C.3       1 DHF203      0.0000 
     25 CB         31.7210  -11.8110    6.1550 C.3       1 DHF203      0.0000 
     26 CG         30.5500  -12.4750    5.5690 C.3       1 DHF203      0.0000 
     27 CD         29.9960  -13.4850    6.5730 C.2       1 DHF203      0.0000 
     28 OE1        30.8180  -14.0130    7.2700 O.co2     1 DHF203      0.0000 
     29 OE2        28.7800  -13.7290    6.6650 O.co2     1 DHF203      0.0000 
     30 CT         31.5370   -9.5550    5.0060 C.2       1 DHF203      0.0000 
     31 O1         31.6140   -8.6220    5.7900 O.co2     1 DHF203      0.0000 
     32 O2         30.7890   -9.5750    4.0210 O.co2     1 DHF203      0.0000 
@<TRIPOS>BOND
     1    1    2 1    
     2    1   12 1    
     3    2    3 1    
     4    2    4 2    
     5    4    5 1    
     6    5    6 2    
     7    5    7 1    
     8    7    8 1    
     9    7   12 2    
    10    8    9 2    
    11    9   10 1    
    12    9   13 1    
    13   10   11 1    
    14   11   12 1    
    15   13   14 1    
    16   14   18 1    
    17   15   16 ar   
    18   15   20 ar   
    19   15   21 1    
    20   16   17 ar   
    21   17   18 ar   
    22   18   19 ar   
    23   19   20 ar   
    24   21   22 2    
    25   21   23 am   
    26   23   24 1    
    27   24   25 1    
    28   24   30 1    
    29   25   26 1    
    30   26   27 1    
    31   27   28 ar   
    32   27   29 ar   
    33   30   31 ar   
    34   30   32 ar   
@<TRIPOS>SUBSTRUCTURE
     1 DHF203      1 GROUP   
@<TRIPOS>SET

