#    Name: 6ob3_1_GNP_CAVITY_N1_4
#    Modification time : Fri May 22 19:34:22 2020

@<TRIPOS>MOLECULE
6ob3_1_GNP_CAVITY_N1_4
   57     0     6     0     0
SMALL
NO_CHARGES


@<TRIPOS>ATOM
      1 O           4.5000  -23.0700   -9.7600 O.2       1 ALA2        0.0000 
      2 N           2.8300  -22.1200   -8.8500 N.am      1 ALA2        0.0000 
      3 N           3.2100  -20.8700  -11.9400 N.am      1 ALA2        0.0000 
      4 N           3.8900  -20.7700  -13.2800 N.am      1 ALA2        0.0000 
      5 O           5.1000  -20.8500  -10.9700 O.2       1 ALA2        0.0000 
      6 N           4.1100  -19.8000  -11.4000 N.am      1 ALA2        0.0000 
      7 N           4.7900  -19.7000  -12.7300 N.am      1 ALA2        0.0000 
      8 N           2.4400  -18.8600  -10.5000 N.am      1 ALA2        0.0000 
      9 N           3.1200  -18.7600  -11.8300 N.am      1 ALA2        0.0000 
     10 O           6.6800  -19.6800  -11.7600 O.2       1 ALA2        0.0000 
     11 N           5.6900  -18.6300  -12.1900 N.am      1 ALA2        0.0000 
     12 O           4.1700  -19.1100   -4.5600 O.2       1 ALA2        0.0000 
     13 OD1         0.9500  -22.1500   -9.8200 O.co2     2 ASP3        0.0000 
     14 OD1        -0.0400  -21.1000  -10.2500 O.co2     2 ASP3        0.0000 
     15 OD1         5.1900  -22.9700  -11.0900 O.co2     2 ASP3        0.0000 
     16 OD1         1.1600  -21.1800   -7.9500 O.co2     2 ASP3        0.0000 
     17 OD1         2.5300  -20.9800  -10.6100 O.co2     2 ASP3        0.0000 
     18 OD1         0.8600  -20.0300   -9.7100 O.co2     2 ASP3        0.0000 
     19 OD1         1.5400  -19.9300  -11.0400 O.co2     2 ASP3        0.0000 
     20 OD1         5.4800  -19.6000  -14.0700 O.co2     2 ASP3        0.0000 
     21 NZ          2.6200  -23.0900  -10.7300 N.4       3 LYS4        0.0000 
     22 NZ         -0.1300  -18.9800  -10.1400 N.4       3 LYS4        0.0000 
     23 NZ          0.0900  -18.0100   -8.2600 N.4       3 LYS4        0.0000 
     24 NZ          2.5000  -18.1600   -3.6600 N.4       3 LYS4        0.0000 
     25 CZ          1.0700  -19.0600   -7.8300 C.ar      4 PHE5        0.0000 
     26 CZ          1.7600  -18.9600   -9.1700 C.ar      4 PHE5        0.0000 
     27 CZ          2.9600  -19.0300   -6.8600 C.ar      4 PHE5        0.0000 
     28 CZ          1.2900  -18.0900   -5.9600 C.ar      4 PHE5        0.0000 
     29 CZ          1.9700  -17.9900   -7.2900 C.ar      4 PHE5        0.0000 
     30 CZ          2.6600  -17.8900   -8.6200 C.ar      4 PHE5        0.0000 
     31 CZ          3.1800  -18.0600   -4.9900 C.ar      4 PHE5        0.0000 
     32 CZ          2.1900  -17.0200   -5.4200 C.ar      4 PHE5        0.0000 
     33 CA          3.6000  -24.1400  -10.3000 C.3       5 GLY6        0.0000 
     34 CA          1.9300  -23.1900   -9.4000 C.3       5 GLY6        0.0000 
     35 CA          3.5200  -22.0200  -10.1800 C.3       5 GLY6        0.0000 
     36 CA          3.0500  -21.1500   -6.9800 C.3       5 GLY6        0.0000 
     37 CA          3.7300  -21.0500   -8.3100 C.3       5 GLY6        0.0000 
     38 CA          4.4200  -20.9500   -9.6400 C.3       5 GLY6        0.0000 
     39 CA          5.7800  -20.7500  -12.3100 C.3       5 GLY6        0.0000 
     40 CA          6.4600  -20.6500  -13.6400 C.3       5 GLY6        0.0000 
     41 CA          1.3800  -20.2100   -6.0800 C.3       5 GLY6        0.0000 
     42 CA          2.0600  -20.1100   -7.4100 C.3       5 GLY6        0.0000 
     43 CA          3.4300  -19.9000  -10.0700 C.3       5 GLY6        0.0000 
     44 CA          3.2700  -20.1800   -5.1100 C.3       5 GLY6        0.0000 
     45 CA          3.9500  -20.0800   -6.4400 C.3       5 GLY6        0.0000 
     46 CA          4.6300  -19.9800   -7.7700 C.3       5 GLY6        0.0000 
     47 CA          7.3600  -19.5800  -13.1000 C.3       5 GLY6        0.0000 
     48 CA          1.6000  -19.2300   -4.2000 C.3       5 GLY6        0.0000 
     49 CA          2.2800  -19.1300   -5.5300 C.3       5 GLY6        0.0000 
     50 CA          3.6400  -18.9300   -8.2000 C.3       5 GLY6        0.0000 
     51 CA          4.3300  -18.8300   -9.5300 C.3       5 GLY6        0.0000 
     52 CA          5.0100  -18.7300  -10.8600 C.3       5 GLY6        0.0000 
     53 CA          1.5100  -17.1200   -4.0900 C.3       5 GLY6        0.0000 
     54 DU          4.2000  -21.9200  -11.5200 H         6 CUB7        0.0000 
     55 DU          1.8500  -21.0800   -9.2800 H         6 CUB7        0.0000 
     56 DU          2.7500  -20.0000   -8.7400 H         6 CUB7        0.0000 
     57 DU          0.6100  -18.1900   -4.6300 H         6 CUB7        0.0000 
@<TRIPOS>BOND
@<TRIPOS>SUBSTRUCTURE
     1 ALA2        1 GROUP   
     2 ASP3       13 GROUP   
     3 LYS4       21 GROUP   
     4 PHE5       25 GROUP   
     5 GLY6       33 GROUP   
     6 CUB7       54 GROUP   
@<TRIPOS>SET

