#    Name: 6ob3_1_GNP
#    Modification time : Fri May 22 19:34:20 2020

@<TRIPOS>MOLECULE
6ob3_1_GNP
   32    34     1     0     1
SMALL
NO_CHARGES


@<TRIPOS>ATOM
      1 PG          5.3000  -27.0510  -12.6830 P.3       1 GNP201      0.0000 
      2 O1G         6.3630  -26.5130  -13.5690 O.co2     1 GNP201      0.0000 
      3 O2G         4.1870  -27.5770  -13.5910 O.co2     1 GNP201      0.0000 
      4 O3G         5.8580  -28.2500  -11.8850 O.co2     1 GNP201      0.0000 
      5 N3B         4.6730  -25.7890  -11.6970 N.3       1 GNP201      0.0000 
      6 PB          5.6000  -25.0100  -10.5660 P.3       1 GNP201      0.0000 
      7 O1B         5.9670  -25.8770   -9.3660 O.co2     1 GNP201      0.0000 
      8 O2B         6.8380  -24.5040  -11.2560 O.co2     1 GNP201      0.0000 
      9 O3A         4.7890  -23.7460   -9.9330 O.3       1 GNP201      0.0000 
     10 PA          4.6950  -22.3280  -10.6190 P.3       1 GNP201      0.0000 
     11 O1A         5.8770  -21.4790  -10.1720 O.co2     1 GNP201      0.0000 
     12 O2A         4.3630  -22.4750  -12.0210 O.co2     1 GNP201      0.0000 
     13 O5'         3.4640  -21.6990   -9.8470 O.3       1 GNP201      0.0000 
     14 C5'         2.1900  -22.3740   -9.7930 C.3       1 GNP201      0.0000 
     15 C4'         1.0990  -21.3860   -9.4680 C.3       1 GNP201      0.0000 
     16 O4'         1.1590  -21.0010   -8.0730 O.3       1 GNP201      0.0000 
     17 C3'         1.1040  -20.0800  -10.2570 C.3       1 GNP201      0.0000 
     18 O3'        -0.2340  -19.6180  -10.4160 O.3       1 GNP201      0.0000 
     19 C2'         1.8880  -19.1500   -9.3330 C.3       1 GNP201      0.0000 
     20 O2'         1.6460  -17.7700   -9.5800 O.3       1 GNP201      0.0000 
     21 C1'         1.3740  -19.6060   -7.9640 C.3       1 GNP201      0.0000 
     22 N9          2.3530  -19.3880   -6.8930 N.pl3     1 GNP201      0.0000 
     23 C8          3.6770  -19.7530   -6.9040 C.2       1 GNP201      0.0000 
     24 N7          4.3130  -19.4250   -5.8040 N.2       1 GNP201      0.0000 
     25 C5          3.3550  -18.8020   -5.0280 C.2       1 GNP201      0.0000 
     26 C6          3.4280  -18.2260   -3.7050 C.2       1 GNP201      0.0000 
     27 O6          4.4140  -18.1580   -2.9690 O.2       1 GNP201      0.0000 
     28 N1          2.2160  -17.7040   -3.3040 N.am      1 GNP201      0.0000 
     29 C2          1.0580  -17.7360   -4.0400 C.2       1 GNP201      0.0000 
     30 N2         -0.0250  -17.1860   -3.4900 N.pl3     1 GNP201      0.0000 
     31 N3          0.9740  -18.2670   -5.2560 N.2       1 GNP201      0.0000 
     32 C4          2.1400  -18.7770   -5.6850 C.2       1 GNP201      0.0000 
@<TRIPOS>BOND
     1    1    2 ar   
     2    1    3 ar   
     3    1    4 ar   
     4    1    5 1    
     5    5    6 1    
     6    6    7 ar   
     7    6    8 ar   
     8    6    9 1    
     9    9   10 1    
    10   10   11 ar   
    11   10   12 ar   
    12   10   13 1    
    13   13   14 1    
    14   14   15 1    
    15   15   16 1    
    16   15   17 1    
    17   16   21 1    
    18   17   18 1    
    19   17   19 1    
    20   19   20 1    
    21   19   21 1    
    22   21   22 1    
    23   22   23 1    
    24   22   32 1    
    25   23   24 2    
    26   24   25 1    
    27   25   26 1    
    28   25   32 2    
    29   26   27 2    
    30   26   28 am   
    31   28   29 1    
    32   29   30 1    
    33   29   31 2    
    34   31   32 1    
@<TRIPOS>SUBSTRUCTURE
     1 GNP201      1 GROUP   
@<TRIPOS>SET
ATOM$ORANGE STATIC     ATOMS   COLORGROUP SYSTEM 
20 14 14 15 15 17 17 19 19 21 21 23 23 25 25 26 26 29 \
29 32 32 

