#    Name: 6ebv_4_ADP
#    Modification time : Fri May 22 19:25:48 2020

@<TRIPOS>MOLECULE
6ebv_4_ADP
   27    29     1     0     1
SMALL
NO_CHARGES


@<TRIPOS>ATOM
      1 PB        -16.4480   32.0500   16.1410 P.3       1 ADP301      0.0000 
      2 O1B       -17.8250   31.4870   15.7720 O.co2     1 ADP301      0.0000 
      3 O2B       -15.8910   31.4410   17.4520 O.co2     1 ADP301      0.0000 
      4 O3B       -16.5030   33.5780   16.1990 O.co2     1 ADP301      0.0000 
      5 PA        -15.5520   32.4010   13.3890 P.3       1 ADP301      0.0000 
      6 O1A       -16.0310   31.4000   12.3100 O.co2     1 ADP301      0.0000 
      7 O2A       -16.3790   33.6270   13.3790 O.co2     1 ADP301      0.0000 
      8 O3A       -15.6110   31.7200   14.8290 O.3       1 ADP301      0.0000 
      9 O5'       -14.0080   32.7000   13.1140 O.3       1 ADP301      0.0000 
     10 C5'       -13.1890   33.5280   13.9600 C.3       1 ADP301      0.0000 
     11 C4'       -11.8290   33.6610   13.3280 C.3       1 ADP301      0.0000 
     12 O4'       -11.9830   34.1080   11.9630 O.3       1 ADP301      0.0000 
     13 C3'       -10.9360   34.6990   13.9900 C.3       1 ADP301      0.0000 
     14 O3'       -10.2510   34.1900   15.1300 O.3       1 ADP301      0.0000 
     15 C2'       -10.0470   35.1710   12.8330 C.3       1 ADP301      0.0000 
     16 O2'        -8.9120   34.3530   12.5860 O.3       1 ADP301      0.0000 
     17 C1'       -10.9910   35.0610   11.6310 C.3       1 ADP301      0.0000 
     18 N9        -11.6280   36.2900   11.1320 N.pl3     1 ADP301      0.0000 
     19 C8        -12.1970   36.4130    9.8910 C.2       1 ADP301      0.0000 
     20 N7        -12.6270   37.6190    9.6130 N.2       1 ADP301      0.0000 
     21 C5        -12.3430   38.3430   10.7620 C.ar      1 ADP301      0.0000 
     22 C6        -12.5760   39.6890   11.1210 C.ar      1 ADP301      0.0000 
     23 N6        -13.0890   40.6010   10.2950 N.pl3     1 ADP301      0.0000 
     24 N1        -12.2210   40.0810   12.3640 N.ar      1 ADP301      0.0000 
     25 C2        -11.6500   39.1900   13.1800 C.ar      1 ADP301      0.0000 
     26 N3        -11.3630   37.9050   12.9480 N.ar      1 ADP301      0.0000 
     27 C4        -11.7370   37.5360   11.7130 C.ar      1 ADP301      0.0000 
@<TRIPOS>BOND
     1    1    2 ar   
     2    1    3 ar   
     3    1    4 ar   
     4    1    8 1    
     5    5    6 ar   
     6    5    7 ar   
     7    5    8 1    
     8    5    9 1    
     9    9   10 1    
    10   10   11 1    
    11   11   12 1    
    12   11   13 1    
    13   12   17 1    
    14   13   14 1    
    15   13   15 1    
    16   15   16 1    
    17   15   17 1    
    18   17   18 1    
    19   18   19 1    
    20   18   27 1    
    21   19   20 2    
    22   20   21 1    
    23   21   22 ar   
    24   21   27 ar   
    25   22   23 1    
    26   22   24 ar   
    27   24   25 ar   
    28   25   26 ar   
    29   26   27 ar   
@<TRIPOS>SUBSTRUCTURE
     1 ADP301      1 GROUP   
@<TRIPOS>SET
ATOM$ORANGE STATIC     ATOMS   COLORGROUP SYSTEM 
20 10 10 11 11 13 13 15 15 17 17 19 19 21 21 22 22 25 \
25 27 27 

