#    Name: 6ebv_3_ADP
#    Modification time : Fri May 22 19:25:40 2020

@<TRIPOS>MOLECULE
6ebv_3_ADP
   27    29     1     0     1
SMALL
NO_CHARGES


@<TRIPOS>ATOM
      1 PB          2.1110  -20.3270   64.7320 P.3       1 ADP301      0.0000 
      2 O1B         1.7610  -19.4830   63.5370 O.co2     1 ADP301      0.0000 
      3 O2B         1.3330  -19.9120   66.0140 O.co2     1 ADP301      0.0000 
      4 O3B         1.9910  -21.8360   64.5090 O.co2     1 ADP301      0.0000 
      5 PA          4.7080  -20.6230   66.1040 P.3       1 ADP301      0.0000 
      6 O1A         4.2680  -21.9110   66.6820 O.co2     1 ADP301      0.0000 
      7 O2A         4.9450  -19.5780   67.2330 O.co2     1 ADP301      0.0000 
      8 O3A         3.6470  -20.0580   65.0550 O.3       1 ADP301      0.0000 
      9 O5'         5.9620  -20.7430   65.1050 O.3       1 ADP301      0.0000 
     10 C5'         6.0620  -21.6740   64.0090 C.3       1 ADP301      0.0000 
     11 C4'         7.5320  -21.9040   63.8000 C.3       1 ADP301      0.0000 
     12 O4'         8.1050  -22.4670   64.9970 O.3       1 ADP301      0.0000 
     13 C3'         7.9060  -22.8920   62.7130 C.3       1 ADP301      0.0000 
     14 O3'         7.8530  -22.2590   61.4450 O.3       1 ADP301      0.0000 
     15 C2'         9.3220  -23.2990   63.1310 C.3       1 ADP301      0.0000 
     16 O2'        10.2570  -22.2810   62.7910 O.3       1 ADP301      0.0000 
     17 C1'         9.2180  -23.2790   64.6630 C.3       1 ADP301      0.0000 
     18 N9          9.1450  -24.5600   65.3890 N.pl3     1 ADP301      0.0000 
     19 C8          9.5610  -24.7520   66.6820 C.2       1 ADP301      0.0000 
     20 N7          9.4340  -25.9850   67.1110 N.2       1 ADP301      0.0000 
     21 C5          8.8870  -26.6540   66.0270 C.ar      1 ADP301      0.0000 
     22 C6          8.4750  -27.9920   65.8460 C.ar      1 ADP301      0.0000 
     23 N6          8.5860  -28.9390   66.7810 N.pl3     1 ADP301      0.0000 
     24 N1          7.8990  -28.3180   64.6690 N.ar      1 ADP301      0.0000 
     25 C2          7.7400  -27.3650   63.7420 C.ar      1 ADP301      0.0000 
     26 N3          8.0960  -26.0780   63.7950 N.ar      1 ADP301      0.0000 
     27 C4          8.6820  -25.7850   64.9650 C.ar      1 ADP301      0.0000 
@<TRIPOS>BOND
     1    1    2 ar   
     2    1    3 ar   
     3    1    4 ar   
     4    1    8 1    
     5    5    6 ar   
     6    5    7 ar   
     7    5    8 1    
     8    5    9 1    
     9    9   10 1    
    10   10   11 1    
    11   11   12 1    
    12   11   13 1    
    13   12   17 1    
    14   13   14 1    
    15   13   15 1    
    16   15   16 1    
    17   15   17 1    
    18   17   18 1    
    19   18   19 1    
    20   18   27 1    
    21   19   20 2    
    22   20   21 1    
    23   21   22 ar   
    24   21   27 ar   
    25   22   23 1    
    26   22   24 ar   
    27   24   25 ar   
    28   25   26 ar   
    29   26   27 ar   
@<TRIPOS>SUBSTRUCTURE
     1 ADP301      1 GROUP   
@<TRIPOS>SET
ATOM$ORANGE STATIC     ATOMS   COLORGROUP SYSTEM 
20 10 10 11 11 13 13 15 15 17 17 19 19 21 21 22 22 25 \
25 27 27 

