#    Name: 6ebv_2_ADP
#    Modification time : Fri May 22 19:25:33 2020

@<TRIPOS>MOLECULE
6ebv_2_ADP
   27    29     1     0     1
SMALL
NO_CHARGES


@<TRIPOS>ATOM
      1 PB         14.6780   13.2910   16.3590 P.3       1 ADP301      0.0000 
      2 O1B        13.7710   13.3990   15.1080 O.co2     1 ADP301      0.0000 
      3 O2B        15.6360   12.1220   16.3310 O.co2     1 ADP301      0.0000 
      4 O3B        15.5280   14.5200   16.6410 O.co2     1 ADP301      0.0000 
      5 PA         14.2770   13.0980   19.1930 P.3       1 ADP301      0.0000 
      6 O1A        15.7380   12.8910   19.2860 O.co2     1 ADP301      0.0000 
      7 O2A        13.4850   12.0070   19.8870 O.co2     1 ADP301      0.0000 
      8 O3A        13.8180   13.0620   17.6730 O.3       1 ADP301      0.0000 
      9 O5'        13.7890   14.4930   19.7550 O.3       1 ADP301      0.0000 
     10 C5'        14.4420   15.7330   19.4120 C.3       1 ADP301      0.0000 
     11 C4'        13.7570   16.8610   20.1390 C.3       1 ADP301      0.0000 
     12 O4'        13.8980   16.6620   21.5630 O.3       1 ADP301      0.0000 
     13 C3'        14.3320   18.2460   19.8540 C.3       1 ADP301      0.0000 
     14 O3'        13.7500   18.8880   18.7250 O.3       1 ADP301      0.0000 
     15 C2'        14.0680   18.9910   21.1610 C.3       1 ADP301      0.0000 
     16 O2'        12.7650   19.5540   21.2490 O.3       1 ADP301      0.0000 
     17 C1'        14.2340   17.8790   22.1990 C.3       1 ADP301      0.0000 
     18 N9         15.5540   17.7450   22.8180 N.pl3     1 ADP301      0.0000 
     19 C8         15.8410   16.8980   23.8550 C.2       1 ADP301      0.0000 
     20 N7         17.0580   17.0190   24.3270 N.2       1 ADP301      0.0000 
     21 C5         17.6230   18.0050   23.5310 C.ar      1 ADP301      0.0000 
     22 C6         18.9080   18.5900   23.5100 C.ar      1 ADP301      0.0000 
     23 N6         19.8460   18.3570   24.4310 N.pl3     1 ADP301      0.0000 
     24 N1         19.1720   19.4930   22.5370 N.ar      1 ADP301      0.0000 
     25 C2         18.2020   19.8100   21.6720 C.ar      1 ADP301      0.0000 
     26 N3         16.9450   19.3580   21.6210 N.ar      1 ADP301      0.0000 
     27 C4         16.7140   18.4500   22.5840 C.ar      1 ADP301      0.0000 
@<TRIPOS>BOND
     1    1    2 ar   
     2    1    3 ar   
     3    1    4 ar   
     4    1    8 1    
     5    5    6 ar   
     6    5    7 ar   
     7    5    8 1    
     8    5    9 1    
     9    9   10 1    
    10   10   11 1    
    11   11   12 1    
    12   11   13 1    
    13   12   17 1    
    14   13   14 1    
    15   13   15 1    
    16   15   16 1    
    17   15   17 1    
    18   17   18 1    
    19   18   19 1    
    20   18   27 1    
    21   19   20 2    
    22   20   21 1    
    23   21   22 ar   
    24   21   27 ar   
    25   22   23 1    
    26   22   24 ar   
    27   24   25 ar   
    28   25   26 ar   
    29   26   27 ar   
@<TRIPOS>SUBSTRUCTURE
     1 ADP301      1 GROUP   
@<TRIPOS>SET
ATOM$ORANGE STATIC     ATOMS   COLORGROUP SYSTEM 
20 10 10 11 11 13 13 15 15 17 17 19 19 21 21 22 22 25 \
25 27 27 

