#    Name: 6ebv_1_ADP
#    Modification time : Fri May 22 19:25:19 2020

@<TRIPOS>MOLECULE
6ebv_1_ADP
   27    29     1     0     1
SMALL
NO_CHARGES


@<TRIPOS>ATOM
      1 PB         25.3130   -1.2760   43.9220 P.3       1 ADP301      0.0000 
      2 O1B        26.1740   -1.9490   42.8240 O.co2     1 ADP301      0.0000 
      3 O2B        25.7450    0.1870   43.9740 O.co2     1 ADP301      0.0000 
      4 O3B        25.3540   -1.9260   45.2750 O.co2     1 ADP301      0.0000 
      5 PA         23.2290   -1.2890   41.9170 P.3       1 ADP301      0.0000 
      6 O1A        24.3340   -1.2760   40.9310 O.co2     1 ADP301      0.0000 
      7 O2A        22.2670   -0.1140   41.7000 O.co2     1 ADP301      0.0000 
      8 O3A        23.8120   -1.2650   43.3960 O.3       1 ADP301      0.0000 
      9 O5'        22.4090   -2.6420   41.9220 O.3       1 ADP301      0.0000 
     10 C5'        23.0400   -3.9390   41.8990 C.3       1 ADP301      0.0000 
     11 C4'        22.0280   -4.9520   41.4290 C.3       1 ADP301      0.0000 
     12 O4'        21.5360   -4.5780   40.1260 O.3       1 ADP301      0.0000 
     13 C3'        22.5490   -6.3690   41.2300 C.3       1 ADP301      0.0000 
     14 O3'        22.7230   -7.0950   42.4420 O.3       1 ADP301      0.0000 
     15 C2'        21.4970   -6.9550   40.2870 C.3       1 ADP301      0.0000 
     16 O2'        20.3080   -7.4110   40.9240 O.3       1 ADP301      0.0000 
     17 C1'        21.1460   -5.7400   39.4170 C.3       1 ADP301      0.0000 
     18 N9         21.7230   -5.7060   38.0710 N.pl3     1 ADP301      0.0000 
     19 C8         21.2410   -4.9550   37.0320 C.2       1 ADP301      0.0000 
     20 N7         21.8270   -5.1860   35.8840 N.2       1 ADP301      0.0000 
     21 C5         22.7830   -6.1440   36.1900 C.ar      1 ADP301      0.0000 
     22 C6         23.7450   -6.8100   35.4050 C.ar      1 ADP301      0.0000 
     23 N6         23.8580   -6.6560   34.0850 N.pl3     1 ADP301      0.0000 
     24 N1         24.5740   -7.6810   36.0270 N.ar      1 ADP301      0.0000 
     25 C2         24.4310   -7.8760   37.3410 C.ar      1 ADP301      0.0000 
     26 N3         23.5460   -7.3260   38.1770 N.ar      1 ADP301      0.0000 
     27 C4         22.7420   -6.4650   37.5380 C.ar      1 ADP301      0.0000 
@<TRIPOS>BOND
     1    1    2 ar   
     2    1    3 ar   
     3    1    4 ar   
     4    1    8 1    
     5    5    6 ar   
     6    5    7 ar   
     7    5    8 1    
     8    5    9 1    
     9    9   10 1    
    10   10   11 1    
    11   11   12 1    
    12   11   13 1    
    13   12   17 1    
    14   13   14 1    
    15   13   15 1    
    16   15   16 1    
    17   15   17 1    
    18   17   18 1    
    19   18   19 1    
    20   18   27 1    
    21   19   20 2    
    22   20   21 1    
    23   21   22 ar   
    24   21   27 ar   
    25   22   23 1    
    26   22   24 ar   
    27   24   25 ar   
    28   25   26 ar   
    29   26   27 ar   
@<TRIPOS>SUBSTRUCTURE
     1 ADP301      1 GROUP   
@<TRIPOS>SET
ATOM$ORANGE STATIC     ATOMS   COLORGROUP SYSTEM 
20 10 10 11 11 13 13 15 15 17 17 19 19 21 21 22 22 25 \
25 27 27 

