#    Name: 6tny_1_TTP
#    Modification time : Fri May 22 19:38:03 2020

@<TRIPOS>MOLECULE
6tny_1_TTP
   29    30     1     0     0
SMALL
NO_CHARGES


@<TRIPOS>ATOM
      1 PA        154.2200  170.5510  206.8520 P.3       1 TTP1203     0.0000 
      2 O1A       154.8140  170.7530  205.4860 O.co2     1 TTP1203     0.0000 
      3 O2A       154.1860  169.0770  207.1350 O.co2     1 TTP1203     0.0000 
      4 O3A       152.6800  171.1600  206.8470 O.3       1 TTP1203     0.0000 
      5 PB        151.4650  170.7240  207.8830 P.3       1 TTP1203     0.0000 
      6 O1B       151.9360  169.6950  208.8800 O.co2     1 TTP1203     0.0000 
      7 O2B       151.0460  171.9390  208.6560 O.co2     1 TTP1203     0.0000 
      8 O3B       150.1880  170.1430  207.0250 O.3       1 TTP1203     0.0000 
      9 PG        150.0580  168.6280  206.3920 P.3       1 TTP1203     0.0000 
     10 O1G       150.5580  167.6040  207.3790 O.co2     1 TTP1203     0.0000 
     11 O2G       148.6150  168.3050  206.1180 O.co2     1 TTP1203     0.0000 
     12 O3G       150.8370  168.5720  205.1000 O.co2     1 TTP1203     0.0000 
     13 O5'       155.1630  171.3040  207.9810 O.3       1 TTP1203     0.0000 
     14 C5'       154.8830  171.1760  209.3530 C.3       1 TTP1203     0.0000 
     15 C4'       155.1430  172.5020  210.0510 C.3       1 TTP1203     0.0000 
     16 O4'       156.0430  173.1200  209.4030 O.3       1 TTP1203     0.0000 
     17 C3'       153.7980  173.4420  209.9170 C.3       1 TTP1203     0.0000 
     18 O3'       152.8560  173.2350  211.0560 O.3       1 TTP1203     0.0000 
     19 C2'       154.1970  174.5910  209.8990 C.3       1 TTP1203     0.0000 
     20 C1'       155.6910  174.5750  209.4020 C.3       1 TTP1203     0.0000 
     21 N1        155.7360  175.0960  208.1690 N.am      1 TTP1203     0.0000 
     22 C2        155.7730  176.5650  208.0070 C.2       1 TTP1203     0.0000 
     23 O2        155.7850  177.2520  208.9620 O.2       1 TTP1203     0.0000 
     24 N3        155.7960  177.1880  206.6560 N.am      1 TTP1203     0.0000 
     25 C4        155.7740  176.3430  205.4830 C.2       1 TTP1203     0.0000 
     26 O4        155.7950  176.8260  204.4100 O.2       1 TTP1203     0.0000 
     27 C5        155.7400  174.8700  205.6440 C.2       1 TTP1203     0.0000 
     28 C5M       155.7140  173.9620  204.4190 C.3       1 TTP1203     0.0000 
     29 C6        155.7170  174.2670  206.9920 C.2       1 TTP1203     0.0000 
@<TRIPOS>BOND
     1    1    2 ar   
     2    1    3 ar   
     3    1    4 1    
     4    1   13 1    
     5    4    5 1    
     6    5    6 ar   
     7    5    7 ar   
     8    5    8 1    
     9    8    9 1    
    10    9   10 ar   
    11    9   11 ar   
    12    9   12 ar   
    13   13   14 1    
    14   14   15 1    
    15   15   16 1    
    16   15   17 1    
    17   16   20 1    
    18   17   18 1    
    19   17   19 1    
    20   19   20 1    
    21   20   21 1    
    22   21   22 1    
    23   21   29 1    
    24   22   23 2    
    25   22   24 1    
    26   24   25 1    
    27   25   26 2    
    28   25   27 1    
    29   27   28 1    
    30   27   29 2    
@<TRIPOS>SUBSTRUCTURE
     1 TTP1203     1 GROUP   
@<TRIPOS>SET

