#    Name: 6gvz_1_CHO_CAVITY_N1_4
#    Modification time : Fri May 22 19:26:12 2020

@<TRIPOS>MOLECULE
6gvz_1_CHO_CAVITY_N1_4
   69     0     5     0     0
SMALL
NO_CHARGES


@<TRIPOS>ATOM
      1 OG        -18.1800  -48.6200   12.7200 O.3       1 SER1        0.0000 
      2 OG        -17.4400  -49.5200   13.6700 O.3       1 SER1        0.0000 
      3 OG         -9.3800  -54.7600   16.6500 O.3       1 SER1        0.0000 
      4 O         -17.2000  -51.6200   13.8500 O.2       2 ALA2        0.0000 
      5 N         -12.6200  -49.2800   10.1100 N.am      2 ALA2        0.0000 
      6 O         -10.6700  -50.1200   10.1600 O.2       2 ALA2        0.0000 
      7 N         -11.8800  -50.1800   11.0500 N.am      2 ALA2        0.0000 
      8 O         -16.7000  -50.4300   14.6100 O.2       2 ALA2        0.0000 
      9 O         -14.7600  -51.2700   14.6600 O.2       2 ALA2        0.0000 
     10 O         -15.9600  -51.3300   15.5500 O.2       2 ALA2        0.0000 
     11 O          -7.7100  -53.7300   13.9300 O.2       2 ALA2        0.0000 
     12 O          -8.9200  -53.7900   14.8200 O.2       2 ALA2        0.0000 
     13 O          -8.1800  -54.7000   15.7600 O.2       2 ALA2        0.0000 
     14 N         -11.3800  -48.9900   11.8000 N.am      2 ALA2        0.0000 
     15 N         -10.8300  -52.7200   17.3500 N.am      2 ALA2        0.0000 
     16 O          -8.8900  -53.5600   17.4000 O.2       2 ALA2        0.0000 
     17 N         -12.5600  -48.8200   15.2800 N.am      2 ALA2        0.0000 
     18 N          -9.8700  -50.5600   16.2800 N.am      2 ALA2        0.0000 
     19 CZ        -16.9800  -48.5600   11.8300 C.ar      3 PHE5        0.0000 
     20 CZ        -13.8300  -49.3400   11.0000 C.ar      3 PHE5        0.0000 
     21 CZ        -15.0300  -49.4000   11.8900 C.ar      3 PHE5        0.0000 
     22 CZ         -9.9300  -51.0300   11.1000 C.ar      3 PHE5        0.0000 
     23 CZ         -8.4500  -52.8300   12.9800 C.ar      3 PHE5        0.0000 
     24 CZ         -7.9500  -51.6300   13.7400 C.ar      3 PHE5        0.0000 
     25 CZ         -8.4200  -52.6000   15.5700 C.ar      3 PHE5        0.0000 
     26 CZ         -7.6800  -53.5000   16.5100 C.ar      3 PHE5        0.0000 
     27 CZ         -7.9200  -51.4000   16.3300 C.ar      3 PHE5        0.0000 
     28 CA        -14.0200  -52.1700   15.6000 C.3       4 GLY6        0.0000 
     29 CA        -12.0700  -53.0100   15.6500 C.3       4 GLY6        0.0000 
     30 CA        -13.2800  -53.0700   16.5400 C.3       4 GLY6        0.0000 
     31 CA        -11.3300  -53.9200   16.6000 C.3       4 GLY6        0.0000 
     32 CA        -13.3300  -48.1500   11.7500 C.3       4 GLY6        0.0000 
     33 CA        -14.5300  -48.2100   12.6400 C.3       4 GLY6        0.0000 
     34 CA        -15.7400  -48.2700   13.5300 C.3       4 GLY6        0.0000 
     35 CA        -16.9500  -48.3300   14.4200 C.3       4 GLY6        0.0000 
     36 CA        -12.5900  -49.0500   12.6900 C.3       4 GLY6        0.0000 
     37 CA        -13.7900  -49.1100   13.5800 C.3       4 GLY6        0.0000 
     38 CA        -16.2100  -49.2300   15.3600 C.3       4 GLY6        0.0000 
     39 CA        -10.6400  -49.8900   12.7500 C.3       4 GLY6        0.0000 
     40 CA        -11.8500  -49.9500   13.6400 C.3       4 GLY6        0.0000 
     41 CA        -14.2600  -50.0700   15.4200 C.3       4 GLY6        0.0000 
     42 CA        -15.4700  -50.1300   16.3100 C.3       4 GLY6        0.0000 
     43 CA         -9.9000  -50.7900   13.6900 C.3       4 GLY6        0.0000 
     44 CA        -12.3100  -50.9100   15.4700 C.3       4 GLY6        0.0000 
     45 CA        -13.5200  -50.9800   16.3600 C.3       4 GLY6        0.0000 
     46 CA        -11.5700  -51.8200   16.4100 C.3       4 GLY6        0.0000 
     47 CA         -9.6300  -52.6600   16.4600 C.3       4 GLY6        0.0000 
     48 CA        -12.0900  -47.8500   13.4500 C.3       4 GLY6        0.0000 
     49 CA        -15.7100  -48.0300   16.1200 C.3       4 GLY6        0.0000 
     50 CA        -11.3500  -48.7500   14.3900 C.3       4 GLY6        0.0000 
     51 CA        -13.7600  -48.8800   16.1700 C.3       4 GLY6        0.0000 
     52 CA        -10.6100  -49.6600   15.3300 C.3       4 GLY6        0.0000 
     53 CA         -8.6600  -50.5000   15.3900 C.3       4 GLY6        0.0000 
     54 CA         -9.1300  -51.4600   17.2200 C.3       4 GLY6        0.0000 
     55 DU        -16.2400  -49.4600   12.7800 H         5 CUB7        0.0000 
     56 DU        -13.0900  -50.2400   11.9400 H         5 CUB7        0.0000 
     57 DU        -14.2900  -50.3100   12.8300 H         5 CUB7        0.0000 
     58 DU        -15.5000  -50.3700   13.7200 H         5 CUB7        0.0000 
     59 DU        -11.1400  -51.0900   11.9900 H         5 CUB7        0.0000 
     60 DU        -10.4000  -51.9900   12.9300 H         5 CUB7        0.0000 
     61 DU        -12.8100  -52.1100   14.7100 H         5 CUB7        0.0000 
     62 DU         -9.6600  -52.8900   13.8700 H         5 CUB7        0.0000 
     63 DU        -10.8600  -52.9500   14.7600 H         5 CUB7        0.0000 
     64 DU        -10.1200  -53.8600   15.7100 H         5 CUB7        0.0000 
     65 DU        -15.0000  -49.1700   14.4700 H         5 CUB7        0.0000 
     66 DU        -13.0500  -50.0100   14.5300 H         5 CUB7        0.0000 
     67 DU        -11.1100  -50.8500   14.5800 H         5 CUB7        0.0000 
     68 DU         -9.1600  -51.7000   14.6300 H         5 CUB7        0.0000 
     69 DU        -10.3700  -51.7600   15.5200 H         5 CUB7        0.0000 
@<TRIPOS>BOND
@<TRIPOS>SUBSTRUCTURE
     1 SER1        1 GROUP   
     2 ALA2        4 GROUP   
     3 PHE5       19 GROUP   
     4 GLY6       28 GROUP   
     5 CUB7       55 GROUP   
@<TRIPOS>SET

