#    Name: 6gvz_1_CHO
#    Modification time : Fri May 22 19:26:10 2020

@<TRIPOS>MOLECULE
6gvz_1_CHO
   74    77     1     0     0
SMALL
NO_CHARGES


@<TRIPOS>ATOM
      1 C1         -9.5860  -53.9240   16.2260 C.3       1 CHO600      0.0000 
      2 C2        -10.0130  -55.2900   15.6780 C.3       1 CHO600      0.0000 
      3 C3         -9.0450  -55.7710   14.6110 C.3       1 CHO600      0.0000 
      4 O3         -9.4520  -57.0470   14.1320 O.3       1 CHO600      0.0000 
      5 C4         -8.9950  -54.7280   13.5160 C.3       1 CHO600      0.0000 
      6 C5         -8.5990  -53.3330   14.0110 C.3       1 CHO600      0.0000 
      7 C6         -8.5000  -52.3290   12.8550 C.3       1 CHO600      0.0000 
      8 C7         -9.8400  -51.8390   12.3120 C.3       1 CHO600      0.0000 
      9 O7        -10.4310  -52.8680   11.5120 O.3       1 CHO600      0.0000 
     10 C8        -10.7890  -51.3860   13.4330 C.3       1 CHO600      0.0000 
     11 C9        -10.8950  -52.4270   14.5630 C.3       1 CHO600      0.0000 
     12 C10        -9.4990  -52.8110   15.1630 C.3       1 CHO600      0.0000 
     13 C11       -11.9440  -52.0060   15.6060 C.3       1 CHO600      0.0000 
     14 C12       -13.2720  -51.4920   15.0490 C.3       1 CHO600      0.0000 
     15 C13       -13.1170  -50.4050   13.9730 C.3       1 CHO600      0.0000 
     16 C14       -12.1860  -51.0080   12.9280 C.3       1 CHO600      0.0000 
     17 C15       -12.3270  -50.0410   11.7330 C.3       1 CHO600      0.0000 
     18 C16       -13.7960  -49.5740   11.7770 C.3       1 CHO600      0.0000 
     19 C17       -14.3770  -50.0580   13.1160 C.3       1 CHO600      0.0000 
     20 C18       -12.5370  -49.1250   14.6150 C.3       1 CHO600      0.0000 
     21 C19        -8.8260  -51.6100   15.8530 C.3       1 CHO600      0.0000 
     22 C20       -15.4290  -49.0850   13.6980 C.3       1 CHO600      0.0000 
     23 C21       -16.0010  -49.5670   15.0310 C.3       1 CHO600      0.0000 
     24 C22       -16.5640  -48.7640   12.7090 C.3       1 CHO600      0.0000 
     25 C23       -17.3770  -49.9670   12.2630 C.3       1 CHO600      0.0000 
     26 C24       -18.6320  -49.6310   11.4830 C.2       1 CHO600      0.0000 
     27 O24       -19.4270  -48.7650   11.8440 O.2       1 CHO600      0.0000 
     28 N25       -18.8340  -50.3450   10.3860 N.am      1 CHO600      0.0000 
     29 C26       -19.9880  -50.1380    9.5370 C.3       1 CHO600      0.0000 
     30 C27       -21.2970  -50.5900   10.1400 C.2       1 CHO600      0.0000 
     31 OT1       -22.3520  -50.2210    9.5840 O.co2     1 CHO600      0.0000 
     32 OT2       -21.2890  -51.3160   11.1570 O.co2     1 CHO600      0.0000 
     33 H11        -8.7150  -54.0210   16.6410 H         1 CHO600      0.0000 
     34 H12       -10.2270  -53.6530   16.9020 H         1 CHO600      0.0000 
     35 H21       -10.9000  -55.2140   15.2910 H         1 CHO600      0.0000 
     36 H22       -10.0300  -55.9320   16.4050 H         1 CHO600      0.0000 
     37 H3         -8.1610  -55.8870   14.9920 H         1 CHO600      0.0000 
     38 HO3       -10.1480  -56.9610   13.6510 H         1 CHO600      0.0000 
     39 H41        -8.3500  -55.0120   12.8500 H         1 CHO600      0.0000 
     40 H42        -9.8710  -54.6710   13.1040 H         1 CHO600      0.0000 
     41 H5         -7.7060  -53.4310   14.3780 H         1 CHO600      0.0000 
     42 H61        -7.9970  -51.5590   13.1630 H         1 CHO600      0.0000 
     43 H62        -8.0130  -52.7490   12.1290 H         1 CHO600      0.0000 
     44 H7         -9.6920  -51.0630   11.7480 H         1 CHO600      0.0000 
     45 HO7        -9.8550  -53.4730   11.3560 H         1 CHO600      0.0000 
     46 H8        -10.4070  -50.5780   13.8110 H         1 CHO600      0.0000 
     47 H9        -11.2310  -53.2400   14.1540 H         1 CHO600      0.0000 
     48 H111      -12.1320  -52.7720   16.1710 H         1 CHO600      0.0000 
     49 H112      -11.5580  -51.3060   16.1560 H         1 CHO600      0.0000 
     50 H121      -13.7540  -52.2400   14.6630 H         1 CHO600      0.0000 
     51 H122      -13.7930  -51.1270   15.7820 H         1 CHO600      0.0000 
     52 H14       -12.5700  -51.8560   12.6570 H         1 CHO600      0.0000 
     53 H151      -11.7300  -49.2840   11.8410 H         1 CHO600      0.0000 
     54 H152      -12.1470  -50.5060   10.9010 H         1 CHO600      0.0000 
     55 H161      -14.2900  -49.9680   11.0410 H         1 CHO600      0.0000 
     56 H162      -13.8360  -48.6060   11.7300 H         1 CHO600      0.0000 
     57 H17       -14.8350  -50.8910   12.9250 H         1 CHO600      0.0000 
     58 H181      -13.1630  -48.7800   15.2710 H         1 CHO600      0.0000 
     59 H182      -12.3900  -48.4560   13.9270 H         1 CHO600      0.0000 
     60 H183      -11.6950  -49.3330   15.0490 H         1 CHO600      0.0000 
     61 H191       -9.3210  -51.3790   16.6550 H         1 CHO600      0.0000 
     62 H192       -8.8180  -50.8520   15.2470 H         1 CHO600      0.0000 
     63 H193       -7.9150  -51.8430   16.0910 H         1 CHO600      0.0000 
     64 H20       -14.9660  -48.2440   13.8400 H         1 CHO600      0.0000 
     65 H211      -15.3830  -49.3480   15.7460 H         1 CHO600      0.0000 
     66 H212      -16.8520  -49.1310   15.1940 H         1 CHO600      0.0000 
     67 H213      -16.1310  -50.5280   14.9980 H         1 CHO600      0.0000 
     68 H221      -16.1750  -48.3500   11.9220 H         1 CHO600      0.0000 
     69 H222      -17.1650  -48.1290   13.1300 H         1 CHO600      0.0000 
     70 H231      -16.8140  -50.5280   11.7080 H         1 CHO600      0.0000 
     71 H232      -17.6330  -50.4730   13.0500 H         1 CHO600      0.0000 
     72 HN        -18.2610  -50.9490   10.1720 H         1 CHO600      0.0000 
     73 H261      -19.8490  -50.6200    8.7070 H         1 CHO600      0.0000 
     74 H262      -20.0540  -49.1920    9.3340 H         1 CHO600      0.0000 
@<TRIPOS>BOND
     1    1    2 1    
     2    1   12 1    
     3    1   33 1    
     4    1   34 1    
     5    2    3 1    
     6    2   35 1    
     7    2   36 1    
     8    3    4 1    
     9    3    5 1    
    10    3   37 1    
    11    4   38 1    
    12    5    6 1    
    13    5   39 1    
    14    5   40 1    
    15    6    7 1    
    16    6   12 1    
    17    6   41 1    
    18    7    8 1    
    19    7   42 1    
    20    7   43 1    
    21    8    9 1    
    22    8   10 1    
    23    8   44 1    
    24    9   45 1    
    25   10   11 1    
    26   10   16 1    
    27   10   46 1    
    28   11   12 1    
    29   11   13 1    
    30   11   47 1    
    31   12   21 1    
    32   13   14 1    
    33   13   48 1    
    34   13   49 1    
    35   14   15 1    
    36   14   50 1    
    37   14   51 1    
    38   15   16 1    
    39   15   19 1    
    40   15   20 1    
    41   16   17 1    
    42   16   52 1    
    43   17   18 1    
    44   17   53 1    
    45   17   54 1    
    46   18   19 1    
    47   18   55 1    
    48   18   56 1    
    49   19   22 1    
    50   19   57 1    
    51   20   58 1    
    52   20   59 1    
    53   20   60 1    
    54   21   61 1    
    55   21   62 1    
    56   21   63 1    
    57   22   23 1    
    58   22   24 1    
    59   22   64 1    
    60   23   66 1    
    61   23   65 1    
    62   23   67 1    
    63   24   25 1    
    64   24   68 1    
    65   24   69 1    
    66   25   26 1    
    67   25   70 1    
    68   25   71 1    
    69   26   27 2    
    70   26   28 am   
    71   28   72 1    
    72   28   29 1    
    73   29   30 1    
    74   29   73 1    
    75   29   74 1    
    76   30   31 ar   
    77   30   32 ar   
@<TRIPOS>SUBSTRUCTURE
     1 CHO600      1 GROUP   
@<TRIPOS>SET

