#    Name: 6pbn_2_NAP_CAVITY_N1_4
#    Modification time : Fri May 22 19:30:44 2020

@<TRIPOS>MOLECULE
6pbn_2_NAP_CAVITY_N1_4
   78     0     7     0     0
SMALL
NO_CHARGES


@<TRIPOS>ATOM
      1 OG         72.1400   29.9400  -25.3000 O.3       1 SER1        0.0000 
      2 OG         71.1200   29.4800  -23.5000 O.3       1 SER1        0.0000 
      3 OG         73.1500   28.9200  -23.7400 O.3       1 SER1        0.0000 
      4 O          76.2000   30.2900  -29.1600 O.2       2 ALA2        0.0000 
      5 N          78.2300   29.7300  -29.4000 N.am      2 ALA2        0.0000 
      6 O          75.1900   29.8300  -27.3500 O.2       2 ALA2        0.0000 
      7 N          77.2200   29.2700  -27.5900 N.am      2 ALA2        0.0000 
      8 O          79.2500   28.7100  -27.8400 O.2       2 ALA2        0.0000 
      9 O          79.5000   28.9800  -26.3800 O.2       2 ALA2        0.0000 
     10 N          76.4500   27.6200  -20.9700 N.am      2 ALA2        0.0000 
     11 OD1        76.4500   30.5600  -27.7000 O.co2     3 ASP3        0.0000 
     12 OD1        79.7500   30.7200  -28.3000 O.co2     3 ASP3        0.0000 
     13 OD1        78.4800   30.0000  -27.9500 O.co2     3 ASP3        0.0000 
     14 OD1        76.7000   30.8300  -26.2500 O.co2     3 ASP3        0.0000 
     15 OD1        75.4300   30.1000  -25.9000 O.co2     3 ASP3        0.0000 
     16 OD1        80.0000   30.9900  -26.8400 O.co2     3 ASP3        0.0000 
     17 OD1        78.7300   30.2700  -26.4900 O.co2     3 ASP3        0.0000 
     18 OD1        77.4700   29.5400  -26.1400 O.co2     3 ASP3        0.0000 
     19 OD1        74.9200   31.6600  -24.5500 O.co2     3 ASP3        0.0000 
     20 OD1        75.6800   30.3700  -24.4400 O.co2     3 ASP3        0.0000 
     21 OD1        77.7100   29.8100  -24.6900 O.co2     3 ASP3        0.0000 
     22 OD1        75.1700   31.9300  -23.1000 O.co2     3 ASP3        0.0000 
     23 OD1        75.9300   30.6400  -22.9900 O.co2     3 ASP3        0.0000 
     24 OD1        77.9600   30.0800  -23.2300 O.co2     3 ASP3        0.0000 
     25 OD1        78.2100   30.3500  -21.7800 O.co2     3 ASP3        0.0000 
     26 NZ         74.6700   31.3900  -26.0000 N.4       4 LYS4        0.0000 
     27 NZ         73.4000   30.6600  -25.6500 N.4       4 LYS4        0.0000 
     28 NZ         71.6200   31.4900  -23.9600 N.4       4 LYS4        0.0000 
     29 NZ         70.3500   30.7700  -23.6100 N.4       4 LYS4        0.0000 
     30 NZ         73.6500   30.9300  -24.2000 N.4       4 LYS4        0.0000 
     31 NZ         72.3900   30.2100  -23.8500 N.4       4 LYS4        0.0000 
     32 NZ         71.1000   33.0500  -22.6100 N.4       4 LYS4        0.0000 
     33 NZ         74.4000   33.2100  -23.2000 N.4       4 LYS4        0.0000 
     34 NZ         73.1300   32.4900  -22.8500 N.4       4 LYS4        0.0000 
     35 NZ         71.8700   31.7600  -22.5000 N.4       4 LYS4        0.0000 
     36 NZ         73.9000   31.2000  -22.7400 N.4       4 LYS4        0.0000 
     37 NZ         72.6200   34.0400  -21.5100 N.4       4 LYS4        0.0000 
     38 NZ         73.3800   32.7600  -21.4000 N.4       4 LYS4        0.0000 
     39 CZ         74.1700   27.9100  -22.1800 C.ar      5 PHE5        0.0000 
     40 CZ         76.2000   27.3500  -22.4200 C.ar      5 PHE5        0.0000 
     41 CA         74.4200   31.1200  -27.4600 C.3       6 GLY6        0.0000 
     42 CA         75.9500   28.5500  -27.2400 C.3       6 GLY6        0.0000 
     43 CA         80.5100   29.4400  -28.1900 C.3       6 GLY6        0.0000 
     44 CA         77.9800   27.9900  -27.4900 C.3       6 GLY6        0.0000 
     45 CA         76.2000   28.8200  -25.7900 C.3       6 GLY6        0.0000 
     46 CA         74.9300   28.0900  -25.4400 C.3       6 GLY6        0.0000 
     47 CA         78.2300   28.2600  -26.0300 C.3       6 GLY6        0.0000 
     48 CA         76.4500   29.0900  -24.3400 C.3       6 GLY6        0.0000 
     49 CA         75.1800   28.3600  -23.9800 C.3       6 GLY6        0.0000 
     50 CA         73.9200   27.6400  -23.6300 C.3       6 GLY6        0.0000 
     51 CA         78.4800   28.5300  -24.5800 C.3       6 GLY6        0.0000 
     52 CA         77.2100   27.8000  -24.2300 C.3       6 GLY6        0.0000 
     53 CA         74.6500   33.4800  -21.7500 C.3       6 GLY6        0.0000 
     54 CA         70.8500   31.3100  -20.7000 C.3       6 GLY6        0.0000 
     55 CA         76.6800   32.9200  -21.9900 C.3       6 GLY6        0.0000 
     56 CA         75.4100   32.2000  -21.6400 C.3       6 GLY6        0.0000 
     57 CA         70.3500   29.3000  -20.2400 C.3       6 GLY6        0.0000 
     58 CA         71.8700   30.2900  -19.1300 C.3       6 GLY6        0.0000 
     59 DU         74.1700   29.3800  -25.5500 H         7 CUB7        0.0000 
     60 DU         74.4200   29.6500  -24.0900 H         7 CUB7        0.0000 
     61 DU         70.6000   31.0400  -22.1500 H         7 CUB7        0.0000 
     62 DU         72.6300   30.4800  -22.3900 H         7 CUB7        0.0000 
     63 DU         71.3700   29.7500  -22.0400 H         7 CUB7        0.0000 
     64 DU         74.6700   29.9200  -22.6400 H         7 CUB7        0.0000 
     65 DU         73.4000   29.1900  -22.2900 H         7 CUB7        0.0000 
     66 DU         76.7000   29.3600  -22.8800 H         7 CUB7        0.0000 
     67 DU         75.4300   28.6300  -22.5300 H         7 CUB7        0.0000 
     68 DU         72.1200   32.0300  -21.0500 H         7 CUB7        0.0000 
     69 DU         74.1500   31.4700  -21.2900 H         7 CUB7        0.0000 
     70 DU         72.8800   30.7500  -20.9400 H         7 CUB7        0.0000 
     71 DU         71.6200   30.0200  -20.5900 H         7 CUB7        0.0000 
     72 DU         76.1800   30.9100  -21.5300 H         7 CUB7        0.0000 
     73 DU         76.9500   29.6300  -21.4300 H         7 CUB7        0.0000 
     74 DU         75.6800   28.9000  -21.0800 H         7 CUB7        0.0000 
     75 DU         74.4100   28.1800  -20.7300 H         7 CUB7        0.0000 
     76 DU         73.1300   31.0200  -19.4900 H         7 CUB7        0.0000 
     77 DU         72.6300   29.0100  -19.0300 H         7 CUB7        0.0000 
     78 DU         74.6600   28.4500  -19.2700 H         7 CUB7        0.0000 
@<TRIPOS>BOND
@<TRIPOS>SUBSTRUCTURE
     1 SER1        1 GROUP   
     2 ALA2        4 GROUP   
     3 ASP3       11 GROUP   
     4 LYS4       26 GROUP   
     5 PHE5       39 GROUP   
     6 GLY6       41 GROUP   
     7 CUB7       59 GROUP   
@<TRIPOS>SET

