#    Name: 6pbn_1_NAP
#    Modification time : Fri May 22 19:30:34 2020

@<TRIPOS>MOLECULE
6pbn_1_NAP
   73    77     1     0     1
SMALL
NO_CHARGES


@<TRIPOS>ATOM
      1 PA         71.8430   38.1230   33.3970 P.3       1 NAP501      0.0000 
      2 O1A        73.1420   37.4840   33.0070 O.co2     1 NAP501      0.0000 
      3 O2A        71.2320   36.7600   33.7180 O.co2     1 NAP501      0.0000 
      4 O5B        71.5940   38.9270   34.8210 O.3       1 NAP501      0.0000 
      5 C5B        70.4500   38.5290   35.5610 C.3       1 NAP501      0.0000 
      6 C4B        70.7670   38.7900   37.0620 C.3       1 NAP501      0.0000 
      7 O4B        69.8090   38.2600   37.8000 O.3       1 NAP501      0.0000 
      8 C3B        72.1020   38.1370   37.4140 C.3       1 NAP501      0.0000 
      9 O3B        72.8220   38.9190   38.2770 O.3       1 NAP501      0.0000 
     10 C2B        71.5780   36.8320   38.0780 C.3       1 NAP501      0.0000 
     11 O2B        72.6360   36.4200   39.0520 O.3       1 NAP501      0.0000 
     12 C1B        70.4170   37.0800   38.6650 C.3       1 NAP501      0.0000 
     13 N9A        69.4860   35.9400   38.5320 N.pl3     1 NAP501      0.0000 
     14 C8A        69.3020   35.0510   37.5420 C.2       1 NAP501      0.0000 
     15 N7A        68.3680   34.1580   37.9100 N.2       1 NAP501      0.0000 
     16 C5A        67.9400   34.5320   39.1390 C.ar      1 NAP501      0.0000 
     17 C6A        67.0140   33.9870   39.9670 C.ar      1 NAP501      0.0000 
     18 N6A        66.1960   32.8160   39.6650 N.pl3     1 NAP501      0.0000 
     19 N1A        66.7600   34.5050   41.1670 N.ar      1 NAP501      0.0000 
     20 C2A        67.4490   35.6140   41.5570 C.ar      1 NAP501      0.0000 
     21 N3A        68.3740   36.1490   40.7290 N.ar      1 NAP501      0.0000 
     22 C4A        68.6230   35.6130   39.5220 C.ar      1 NAP501      0.0000 
     23 O3         70.5790   38.4050   32.3860 O.3       1 NAP501      0.0000 
     24 PN         70.1720   39.8160   31.6830 P.3       1 NAP501      0.0000 
     25 O1N        70.9120   39.7830   30.3490 O.co2     1 NAP501      0.0000 
     26 O2N        70.4530   40.9760   32.5690 O.co2     1 NAP501      0.0000 
     27 O5D        68.5720   39.6460   31.3610 O.3       1 NAP501      0.0000 
     28 C5D        67.6840   39.6390   32.4580 C.3       1 NAP501      0.0000 
     29 C4D        66.3060   39.5180   31.7650 C.3       1 NAP501      0.0000 
     30 O4D        66.0670   40.5450   30.9460 O.3       1 NAP501      0.0000 
     31 C3D        66.3250   38.2760   30.8090 C.3       1 NAP501      0.0000 
     32 O3D        66.1640   37.1240   31.4950 O.3       1 NAP501      0.0000 
     33 C2D        65.1060   38.6950   29.9470 C.3       1 NAP501      0.0000 
     34 O2D        63.9300   38.4690   30.8650 O.3       1 NAP501      0.0000 
     35 C1D        65.2150   39.9830   29.7050 C.3       1 NAP501      0.0000 
     36 N1N        65.9000   40.2980   28.4590 N.pl3     1 NAP501      0.0000 
     37 C2N        67.2000   40.7160   28.3920 C.ar      1 NAP501      0.0000 
     38 C3N        67.7810   40.9820   27.1460 C.ar      1 NAP501      0.0000 
     39 C7N        69.2220   41.4540   27.0010 C.2       1 NAP501      0.0000 
     40 O7N        69.5900   41.9990   25.9870 O.2       1 NAP501      0.0000 
     41 N7N        70.1530   41.2850   28.0980 N.am      1 NAP501      0.0000 
     42 C4N        67.0340   40.8670   26.0110 C.ar      1 NAP501      0.0000 
     43 C5N        65.7350   40.4810   26.0940 C.ar      1 NAP501      0.0000 
     44 C6N        65.1650   40.1950   27.3210 C.ar      1 NAP501      0.0000 
     45 P2B        73.1630   34.8770   38.8630 P.3       1 NAP501      0.0000 
     46 O1X        71.9650   33.9840   39.0450 O.co2     1 NAP501      0.0000 
     47 O2X        73.7550   34.7210   37.4940 O.co2     1 NAP501      0.0000 
     48 O3X        74.1790   34.6250   39.9430 O.co2     1 NAP501      0.0000 
     49 H51A       70.2710   37.5860   35.4170 H         1 NAP501      0.0000 
     50 H52A       69.6780   39.0500   35.2880 H         1 NAP501      0.0000 
     51 H4B        70.8310   39.7320   37.2830 H         1 NAP501      0.0000 
     52 H3B        72.6770   37.9650   36.6520 H         1 NAP501      0.0000 
     53 HO3A       73.5660   39.1250   37.9190 H         1 NAP501      0.0000 
     54 H2B        71.3810   36.1480   37.4190 H         1 NAP501      0.0000 
     55 H1B        70.5660   37.3040   39.5970 H         1 NAP501      0.0000 
     56 H8A        69.7520   35.0540   36.7280 H         1 NAP501      0.0000 
     57 H61A       65.6080   32.5450   40.2310 H         1 NAP501      0.0000 
     58 H62A       66.3030   32.3980   38.9210 H         1 NAP501      0.0000 
     59 H2A        67.2850   35.9990   42.3870 H         1 NAP501      0.0000 
     60 H51N       67.8520   38.8820   33.0400 H         1 NAP501      0.0000 
     61 H52N       67.7500   40.4610   32.9680 H         1 NAP501      0.0000 
     62 H4D        65.6060   39.4640   32.4340 H         1 NAP501      0.0000 
     63 H3D        67.1330   38.1400   30.2900 H         1 NAP501      0.0000 
     64 HO3N       65.3670   37.0790   31.7890 H         1 NAP501      0.0000 
     65 H2D        65.0710   38.2330   29.0940 H         1 NAP501      0.0000 
     66 HO2N       63.5980   39.2180   31.0900 H         1 NAP501      0.0000 
     67 H1D        64.3220   40.3610   29.6580 H         1 NAP501      0.0000 
     68 H2N        67.6970   40.8220   29.1710 H         1 NAP501      0.0000 
     69 H71N       69.8980   40.8960   28.8220 H         1 NAP501      0.0000 
     70 H72N       70.9600   41.5730   28.0260 H         1 NAP501      0.0000 
     71 H4N        67.4130   41.0530   25.1830 H         1 NAP501      0.0000 
     72 H5N        65.2250   40.4080   25.3200 H         1 NAP501      0.0000 
     73 H6N        64.2740   39.9300   27.3680 H         1 NAP501      0.0000 
@<TRIPOS>BOND
     1    1    2 ar   
     2    1    3 ar   
     3    1    4 1    
     4    1   23 1    
     5    4    5 1    
     6    5    6 1    
     7    5   49 1    
     8    5   50 1    
     9    6    7 1    
    10    6    8 1    
    11    6   51 1    
    12    7   12 1    
    13    8    9 1    
    14    8   10 1    
    15    8   52 1    
    16    9   53 1    
    17   10   11 1    
    18   10   12 1    
    19   10   54 1    
    20   12   55 1    
    21   11   45 1    
    22   12   13 1    
    23   13   14 1    
    24   13   22 1    
    25   14   15 2    
    26   15   16 1    
    27   14   56 1    
    28   16   17 ar   
    29   16   22 ar   
    30   17   18 1    
    31   17   19 ar   
    32   19   20 ar   
    33   18   57 1    
    34   18   58 1    
    35   20   21 ar   
    36   21   22 ar   
    37   20   59 1    
    38   23   24 1    
    39   24   25 ar   
    40   24   26 ar   
    41   24   27 1    
    42   27   28 1    
    43   28   29 1    
    44   28   60 1    
    45   28   61 1    
    46   29   30 1    
    47   29   31 1    
    48   29   62 1    
    49   30   35 1    
    50   31   32 1    
    51   31   33 1    
    52   31   63 1    
    53   32   64 1    
    54   33   34 1    
    55   33   35 1    
    56   33   65 1    
    57   35   67 1    
    58   35   36 1    
    59   34   66 1    
    60   36   37 ar   
    61   36   44 ar   
    62   37   38 ar   
    63   38   39 1    
    64   37   68 1    
    65   38   42 ar   
    66   39   40 2    
    67   39   41 am   
    68   42   43 ar   
    69   41   69 1    
    70   41   70 1    
    71   43   44 ar   
    72   42   71 1    
    73   45   46 ar   
    74   43   72 1    
    75   44   73 1    
    76   45   47 ar   
    77   45   48 ar   
@<TRIPOS>SUBSTRUCTURE
     1 NAP501      1 GROUP   
@<TRIPOS>SET
ATOM$ORANGE STATIC     ATOMS   COLORGROUP SYSTEM 
42 5 5 6 6 8 8 10 10 12 12 14 14 16 16 17 17 20 \
20 22 22 28 28 29 29 31 31 33 33 35 35 37 37 38 38 39 \
39 42 42 43 43 44 44 

