#    Name: 6pbn_2_NAP
#    Modification time : Fri May 22 19:30:41 2020

@<TRIPOS>MOLECULE
6pbn_2_NAP
   73    77     1     0     1
SMALL
NO_CHARGES


@<TRIPOS>ATOM
      1 PA         80.4200   30.5730  -27.5790 P.3       1 NAP501      0.0000 
      2 O1A        81.4860   29.7250  -26.8630 O.co2     1 NAP501      0.0000 
      3 O2A        80.7550   32.0450  -27.6780 O.co2     1 NAP501      0.0000 
      4 O5B        80.3210   29.9440  -29.1090 O.3       1 NAP501      0.0000 
      5 C5B        79.4460   30.4890  -30.0660 C.3       1 NAP501      0.0000 
      6 C4B        80.1800   30.1090  -31.3920 C.3       1 NAP501      0.0000 
      7 O4B        79.3790   30.3960  -32.4180 O.3       1 NAP501      0.0000 
      8 C3B        81.4640   30.9710  -31.5210 C.3       1 NAP501      0.0000 
      9 O3B        82.5070   30.2780  -32.0580 O.3       1 NAP501      0.0000 
     10 C2B        80.8880   32.0930  -32.4360 C.3       1 NAP501      0.0000 
     11 O2B        82.0480   32.7670  -33.1010 O.3       1 NAP501      0.0000 
     12 C1B        80.1240   31.4780  -33.3380 C.3       1 NAP501      0.0000 
     13 N9A        79.0260   32.2240  -33.8900 N.pl3     1 NAP501      0.0000 
     14 C8A        78.2480   33.1970  -33.3990 C.2       1 NAP501      0.0000 
     15 N7A        77.3750   33.5730  -34.3330 N.2       1 NAP501      0.0000 
     16 C5A        77.5970   32.8120  -35.4280 C.ar      1 NAP501      0.0000 
     17 C6A        76.9390   32.8020  -36.6380 C.ar      1 NAP501      0.0000 
     18 N6A        75.8350   33.6610  -37.0090 N.pl3     1 NAP501      0.0000 
     19 N1A        77.3090   31.9180  -37.5700 N.ar      1 NAP501      0.0000 
     20 C2A        78.3470   31.0720  -37.3080 C.ar      1 NAP501      0.0000 
     21 N3A        79.0150   31.0820  -36.1110 N.ar      1 NAP501      0.0000 
     22 C4A        78.6130   31.9660  -35.1670 C.ar      1 NAP501      0.0000 
     23 O3         78.8760   30.4320  -27.0310 O.3       1 NAP501      0.0000 
     24 PN         78.3050   29.0580  -26.2960 P.3       1 NAP501      0.0000 
     25 O1N        78.7860   29.0850  -24.8640 O.co2     1 NAP501      0.0000 
     26 O2N        78.8150   27.8950  -27.0750 O.co2     1 NAP501      0.0000 
     27 O5D        76.6690   29.2280  -26.3050 O.3       1 NAP501      0.0000 
     28 C5D        75.9470   29.3180  -27.5290 C.3       1 NAP501      0.0000 
     29 C4D        74.5230   29.8160  -27.0950 C.3       1 NAP501      0.0000 
     30 O4D        74.1080   28.9060  -26.2520 O.3       1 NAP501      0.0000 
     31 C3D        74.7160   31.1640  -26.3990 C.3       1 NAP501      0.0000 
     32 O3D        73.8470   32.1400  -26.7520 O.3       1 NAP501      0.0000 
     33 C2D        74.4440   30.7450  -24.9030 C.3       1 NAP501      0.0000 
     34 O2D        73.9050   31.9490  -24.1860 O.3       1 NAP501      0.0000 
     35 C1D        73.6270   29.6940  -24.9600 C.3       1 NAP501      0.0000 
     36 N1N        73.8690   28.9120  -23.7550 N.pl3     1 NAP501      0.0000 
     37 C2N        75.1230   28.4420  -23.4890 C.ar      1 NAP501      0.0000 
     38 C3N        75.3940   27.7910  -22.3260 C.ar      1 NAP501      0.0000 
     39 C7N        76.8100   27.2910  -22.0450 C.2       1 NAP501      0.0000 
     40 O7N        77.8030   27.4530  -22.7290 O.2       1 NAP501      0.0000 
     41 N7N        76.9460   26.5720  -20.8460 N.am      1 NAP501      0.0000 
     42 C4N        74.3850   27.5760  -21.4250 C.ar      1 NAP501      0.0000 
     43 C5N        73.1270   28.0130  -21.6820 C.ar      1 NAP501      0.0000 
     44 C6N        72.8640   28.7090  -22.8550 C.ar      1 NAP501      0.0000 
     45 P2B        82.3370   34.3070  -32.6550 P.3       1 NAP501      0.0000 
     46 O1X        82.7120   34.2380  -31.1960 O.co2     1 NAP501      0.0000 
     47 O2X        83.4340   34.8450  -33.5500 O.co2     1 NAP501      0.0000 
     48 O3X        81.0650   35.0670  -32.8070 O.co2     1 NAP501      0.0000 
     49 H51A       78.5660   30.0830  -30.0160 H         1 NAP501      0.0000 
     50 H52A       79.3640   31.4500  -29.9670 H         1 NAP501      0.0000 
     51 H4B        80.4280   29.1730  -31.4370 H         1 NAP501      0.0000 
     52 H3B        81.8130   31.3120  -30.6830 H         1 NAP501      0.0000 
     53 HO3A       82.6660   29.5910  -31.5830 H         1 NAP501      0.0000 
     54 H2B        80.3380   32.7180  -31.9380 H         1 NAP501      0.0000 
     55 H1B        80.7170   31.1940  -34.0520 H         1 NAP501      0.0000 
     56 H8A        78.3080   33.5540  -32.5430 H         1 NAP501      0.0000 
     57 H61A       75.5410   34.2480  -36.4540 H         1 NAP501      0.0000 
     58 H62A       75.4720   33.5840  -37.7850 H         1 NAP501      0.0000 
     59 H2A        78.6100   30.4680  -37.9650 H         1 NAP501      0.0000 
     60 H51N       75.8920   28.4510  -27.9610 H         1 NAP501      0.0000 
     61 H52N       76.3660   29.9530  -28.1310 H         1 NAP501      0.0000 
     62 H4D        73.8580   29.9480  -27.7880 H         1 NAP501      0.0000 
     63 H3D        75.6010   31.5090  -26.5940 H         1 NAP501      0.0000 
     64 HO3N       73.9890   32.8310  -26.2780 H         1 NAP501      0.0000 
     65 H2D        75.2340   30.4290  -24.4370 H         1 NAP501      0.0000 
     66 HO2N       74.5360   32.5020  -24.0470 H         1 NAP501      0.0000 
     67 H1D        72.6910   29.9310  -25.0510 H         1 NAP501      0.0000 
     68 H2N        75.8020   28.5700  -24.1110 H         1 NAP501      0.0000 
     69 H71N       76.2610   26.4430  -20.3420 H         1 NAP501      0.0000 
     70 H72N       77.7150   26.2620  -20.6160 H         1 NAP501      0.0000 
     71 H4N        74.5640   27.1270  -20.6300 H         1 NAP501      0.0000 
     72 H5N        72.4430   27.8480  -21.0740 H         1 NAP501      0.0000 
     73 H6N        72.0100   29.0340  -23.0250 H         1 NAP501      0.0000 
@<TRIPOS>BOND
     1    1    2 ar   
     2    1    3 ar   
     3    1    4 1    
     4    1   23 1    
     5    4    5 1    
     6    5    6 1    
     7    5   49 1    
     8    5   50 1    
     9    6    7 1    
    10    6    8 1    
    11    6   51 1    
    12    7   12 1    
    13    8    9 1    
    14    8   10 1    
    15    8   52 1    
    16    9   53 1    
    17   10   11 1    
    18   10   12 1    
    19   10   54 1    
    20   12   55 1    
    21   11   45 1    
    22   12   13 1    
    23   13   14 1    
    24   13   22 1    
    25   14   15 2    
    26   15   16 1    
    27   14   56 1    
    28   16   17 ar   
    29   16   22 ar   
    30   17   18 1    
    31   17   19 ar   
    32   19   20 ar   
    33   18   57 1    
    34   18   58 1    
    35   20   21 ar   
    36   21   22 ar   
    37   20   59 1    
    38   23   24 1    
    39   24   25 ar   
    40   24   26 ar   
    41   24   27 1    
    42   27   28 1    
    43   28   29 1    
    44   28   60 1    
    45   28   61 1    
    46   29   30 1    
    47   29   31 1    
    48   29   62 1    
    49   30   35 1    
    50   31   32 1    
    51   31   33 1    
    52   31   63 1    
    53   32   64 1    
    54   33   34 1    
    55   33   35 1    
    56   33   65 1    
    57   35   36 1    
    58   34   66 1    
    59   35   67 1    
    60   36   37 ar   
    61   36   44 ar   
    62   37   38 ar   
    63   38   39 1    
    64   37   68 1    
    65   38   42 ar   
    66   39   40 2    
    67   39   41 am   
    68   42   43 ar   
    69   41   69 1    
    70   41   70 1    
    71   43   44 ar   
    72   42   71 1    
    73   45   46 ar   
    74   43   72 1    
    75   44   73 1    
    76   45   47 ar   
    77   45   48 ar   
@<TRIPOS>SUBSTRUCTURE
     1 NAP501      1 GROUP   
@<TRIPOS>SET
ATOM$ORANGE STATIC     ATOMS   COLORGROUP SYSTEM 
42 5 5 6 6 8 8 10 10 12 12 14 14 16 16 17 17 20 \
20 22 22 28 28 29 29 31 31 33 33 35 35 37 37 38 38 39 \
39 42 42 43 43 44 44 

