#    Name: 6c7s_1_FAD
#    Modification time : Fri May 22 19:42:42 2020

@<TRIPOS>MOLECULE
6c7s_1_FAD
   53    58     1     0     1
SMALL
NO_CHARGES


@<TRIPOS>ATOM
      1 PA          9.4670   38.3100  -13.5870 P.3       1 FAD501      0.0000 
      2 O1A        10.9370   38.5380  -13.7360 O.co2     1 FAD501      0.0000 
      3 O2A         8.6840   38.2490  -14.6850 O.co2     1 FAD501      0.0000 
      4 O5B         9.1270   39.6110  -12.8960 O.3       1 FAD501      0.0000 
      5 C5B         9.6100   40.0430  -11.5810 C.3       1 FAD501      0.0000 
      6 C4B         9.2340   41.5720  -11.4500 C.3       1 FAD501      0.0000 
      7 O4B        10.0550   42.1280  -10.3340 O.3       1 FAD501      0.0000 
      8 C3B         9.5530   42.4970  -12.6820 C.3       1 FAD501      0.0000 
      9 O3B         8.4290   43.1840  -13.1450 O.3       1 FAD501      0.0000 
     10 C2B        10.7030   43.4210  -12.1610 C.3       1 FAD501      0.0000 
     11 O2B        10.6350   44.7060  -12.7300 O.3       1 FAD501      0.0000 
     12 C1B        10.3660   43.5030  -10.6980 C.3       1 FAD501      0.0000 
     13 N9A        11.4740   43.7890   -9.7930 N.pl3     1 FAD501      0.0000 
     14 C8A        12.7900   43.4080   -9.9240 C.2       1 FAD501      0.0000 
     15 N7A        13.5510   43.8300   -8.9150 N.2       1 FAD501      0.0000 
     16 C5A        12.6900   44.5150   -8.0930 C.ar      1 FAD501      0.0000 
     17 C6A        12.9080   45.2190   -6.8290 C.ar      1 FAD501      0.0000 
     18 N6A        14.0650   45.3110   -6.2260 N.pl3     1 FAD501      0.0000 
     19 N1A        11.7810   45.7860   -6.3020 N.ar      1 FAD501      0.0000 
     20 C2A        10.5630   45.7090   -6.9100 C.ar      1 FAD501      0.0000 
     21 N3A        10.2650   45.0900   -8.0630 N.ar      1 FAD501      0.0000 
     22 C4A        11.3690   44.5110   -8.6150 C.ar      1 FAD501      0.0000 
     23 N1          7.8140   30.7830  -19.3400 N.2       1 FAD501      0.0000 
     24 C2          6.7530   30.0840  -19.7270 C.2       1 FAD501      0.0000 
     25 O2          5.9620   29.6340  -18.9420 O.2       1 FAD501      0.0000 
     26 N3          6.4800   29.8140  -21.0920 N.am      1 FAD501      0.0000 
     27 C4          7.3210   30.2750  -22.0800 C.2       1 FAD501      0.0000 
     28 O4          7.0660   30.0250  -23.2370 O.2       1 FAD501      0.0000 
     29 C4X         8.4850   31.0450  -21.6680 C.2       1 FAD501      0.0000 
     30 N5          9.3340   31.5210  -22.6050 N.2       1 FAD501      0.0000 
     31 C5X        10.4070   32.2360  -22.1600 C.ar      1 FAD501      0.0000 
     32 C6         11.2890   32.7260  -23.1450 C.ar      1 FAD501      0.0000 
     33 C7         12.3920   33.4540  -22.7900 C.ar      1 FAD501      0.0000 
     34 C7M        13.3250   33.9700  -23.8500 C.3       1 FAD501      0.0000 
     35 C8         12.6700   33.7340  -21.4060 C.ar      1 FAD501      0.0000 
     36 C8M        13.8810   34.5330  -21.0000 C.3       1 FAD501      0.0000 
     37 C9         11.8020   33.2550  -20.4180 C.ar      1 FAD501      0.0000 
     38 C9A        10.6800   32.5100  -20.7910 C.ar      1 FAD501      0.0000 
     39 N10         9.7490   31.9860  -19.8430 N.pl3     1 FAD501      0.0000 
     40 C10         8.6900   31.2820  -20.2420 C.2       1 FAD501      0.0000 
     41 C1'         9.9970   32.2510  -18.4100 C.3       1 FAD501      0.0000 
     42 C2'         9.0390   33.3450  -17.8630 C.3       1 FAD501      0.0000 
     43 O2'         9.1280   34.4760  -18.7250 O.3       1 FAD501      0.0000 
     44 C3'         9.5070   33.7250  -16.4630 C.3       1 FAD501      0.0000 
     45 O3'         9.6330   32.5270  -15.6920 O.3       1 FAD501      0.0000 
     46 C4'         8.4440   34.6120  -15.7960 C.3       1 FAD501      0.0000 
     47 O4'         8.5590   35.9740  -16.2070 O.3       1 FAD501      0.0000 
     48 C5'         8.5920   34.4740  -14.3000 C.3       1 FAD501      0.0000 
     49 O5'         7.6440   35.4970  -13.5840 O.3       1 FAD501      0.0000 
     50 P           8.0550   36.1670  -12.2800 P.3       1 FAD501      0.0000 
     51 O1P         6.8410   37.0180  -11.8840 O.co2     1 FAD501      0.0000 
     52 O2P         8.5520   35.2940  -11.3220 O.co2     1 FAD501      0.0000 
     53 O3P         9.1530   37.0870  -12.5370 O.3       1 FAD501      0.0000 
@<TRIPOS>BOND
     1    1    2 ar   
     2    1    3 ar   
     3    1    4 1    
     4    1   53 1    
     5    4    5 1    
     6    5    6 1    
     7    6    7 1    
     8    6    8 1    
     9    7   12 1    
    10    8    9 1    
    11    8   10 1    
    12   10   11 1    
    13   10   12 1    
    14   12   13 1    
    15   13   14 1    
    16   13   22 1    
    17   14   15 2    
    18   15   16 1    
    19   16   17 ar   
    20   16   22 ar   
    21   17   18 1    
    22   17   19 ar   
    23   19   20 ar   
    24   20   21 ar   
    25   21   22 ar   
    26   23   24 1    
    27   23   40 2    
    28   24   25 2    
    29   24   26 am   
    30   26   27 am   
    31   27   28 2    
    32   27   29 1    
    33   29   30 2    
    34   29   40 1    
    35   30   31 1    
    36   31   32 ar   
    37   31   38 ar   
    38   32   33 ar   
    39   33   34 1    
    40   33   35 ar   
    41   35   36 1    
    42   35   37 ar   
    43   37   38 ar   
    44   38   39 1    
    45   39   40 1    
    46   39   41 1    
    47   41   42 1    
    48   42   43 1    
    49   42   44 1    
    50   44   45 1    
    51   44   46 1    
    52   46   47 1    
    53   46   48 1    
    54   48   49 1    
    55   49   50 1    
    56   50   51 ar   
    57   50   52 ar   
    58   50   53 1    
@<TRIPOS>SUBSTRUCTURE
     1 FAD501      1 GROUP   
@<TRIPOS>SET
ATOM$ORANGE STATIC     ATOMS   COLORGROUP SYSTEM 
54 5 5 6 6 8 8 10 10 12 12 14 14 16 16 17 17 20 \
20 22 22 24 24 27 27 29 29 31 31 32 32 33 33 34 34 35 \
35 36 36 37 37 38 38 40 40 41 41 42 42 44 44 46 46 48 \
48 

