#    Name: 6n5h_1_AUB_CAVITY_N1_4
#    Modification time : Fri May 22 19:28:12 2020

@<TRIPOS>MOLECULE
6n5h_1_AUB_CAVITY_N1_4
   63     0     6     0     0
SMALL
NO_CHARGES


@<TRIPOS>ATOM
      1 OG          8.0400  -21.0400  -30.5400 O.3       1 SER1        0.0000 
      2 OG          6.7400  -20.6500  -29.9000 O.3       1 SER1        0.0000 
      3 OG          9.8000  -25.2700  -24.4100 O.3       1 SER1        0.0000 
      4 OG          8.7600  -20.0400  -29.6900 O.3       1 SER1        0.0000 
      5 OG          8.5000  -24.8800  -23.7700 O.3       1 SER1        0.0000 
      6 OG          7.4700  -19.6500  -29.0500 O.3       1 SER1        0.0000 
      7 OG          7.2000  -24.4900  -23.1300 O.3       1 SER1        0.0000 
      8 O           4.4100  -24.3500  -28.8500 O.2       2 ALA2        0.0000 
      9 N           3.1200  -23.9600  -28.2100 N.am      2 ALA2        0.0000 
     10 O           5.3400  -24.4000  -26.9400 O.2       2 ALA2        0.0000 
     11 N           4.0400  -24.0100  -26.3000 N.am      2 ALA2        0.0000 
     12 O           7.5700  -24.8300  -25.6800 O.2       2 ALA2        0.0000 
     13 O           7.3600  -23.7900  -26.7300 O.2       2 ALA2        0.0000 
     14 O           6.2700  -24.4400  -25.0400 O.2       2 ALA2        0.0000 
     15 O           6.0700  -23.4000  -26.0900 O.2       2 ALA2        0.0000 
     16 O           6.9900  -23.4400  -24.1800 O.2       2 ALA2        0.0000 
     17 N           8.8100  -21.7800  -25.0300 N.am      2 ALA2        0.0000 
     18 NZ          9.2200  -23.8800  -22.9200 N.4       3 LYS4        0.0000 
     19 NZ          9.0200  -22.8300  -23.9800 N.4       3 LYS4        0.0000 
     20 CZ          5.9200  -25.7900  -28.4400 C.ar      4 PHE5        0.0000 
     21 CZ          5.7100  -24.7400  -29.4900 C.ar      4 PHE5        0.0000 
     22 CZ          5.5000  -23.7000  -30.5500 C.ar      4 PHE5        0.0000 
     23 CZ          7.7300  -24.1300  -29.2800 C.ar      4 PHE5        0.0000 
     24 CZ          7.5300  -23.0800  -30.3400 C.ar      4 PHE5        0.0000 
     25 CZ          6.6400  -24.7900  -27.5900 C.ar      4 PHE5        0.0000 
     26 CZ          6.4300  -23.7400  -28.6400 C.ar      4 PHE5        0.0000 
     27 CZ          3.8400  -22.9600  -27.3600 C.ar      4 PHE5        0.0000 
     28 CZ          8.8700  -25.2200  -26.3200 C.ar      4 PHE5        0.0000 
     29 CZ          8.6600  -24.1800  -27.3800 C.ar      4 PHE5        0.0000 
     30 CZ          5.4500  -20.2600  -29.2500 C.ar      4 PHE5        0.0000 
     31 CZ          4.7700  -23.0000  -25.4500 C.ar      4 PHE5        0.0000 
     32 CZ          4.5600  -21.9600  -26.5000 C.ar      4 PHE5        0.0000 
     33 CZ          4.3500  -20.9100  -27.5600 C.ar      4 PHE5        0.0000 
     34 CZ          6.7900  -22.3900  -25.2400 C.ar      4 PHE5        0.0000 
     35 CZ          6.5800  -21.3500  -26.2900 C.ar      4 PHE5        0.0000 
     36 CZ          7.7200  -22.4400  -23.3300 C.ar      4 PHE5        0.0000 
     37 CZ          7.5100  -21.3900  -24.3900 C.ar      4 PHE5        0.0000 
     38 CZ          7.3000  -20.3500  -25.4400 C.ar      4 PHE5        0.0000 
     39 CA          9.7500  -23.5200  -29.0700 C.3       5 GLY6        0.0000 
     40 CA          9.5500  -22.4700  -30.1300 C.3       5 GLY6        0.0000 
     41 CA          8.4500  -23.1300  -28.4300 C.3       5 GLY6        0.0000 
     42 CA         10.2700  -21.4700  -29.2800 C.3       5 GLY6        0.0000 
     43 CA          9.5900  -24.2200  -25.4700 C.3       5 GLY6        0.0000 
     44 CA          9.3800  -23.1800  -26.5200 C.3       5 GLY6        0.0000 
     45 CA          9.1800  -22.1300  -27.5800 C.3       5 GLY6        0.0000 
     46 CA          8.9700  -21.0800  -28.6300 C.3       5 GLY6        0.0000 
     47 CA          7.6700  -20.6900  -27.9900 C.3       5 GLY6        0.0000 
     48 CA          6.3700  -20.3000  -27.3500 C.3       5 GLY6        0.0000 
     49 CA         10.3100  -23.2200  -24.6200 C.3       5 GLY6        0.0000 
     50 CA         10.1100  -22.1700  -25.6700 C.3       5 GLY6        0.0000 
     51 CA          8.6000  -20.7400  -26.0800 C.3       5 GLY6        0.0000 
     52 DU          4.2100  -23.3000  -29.9000 H         6 CUB7        0.0000 
     53 DU          6.2300  -22.6900  -29.6900 H         6 CUB7        0.0000 
     54 DU          5.1400  -23.3500  -28.0000 H         6 CUB7        0.0000 
     55 DU          4.9300  -22.3000  -29.0500 H         6 CUB7        0.0000 
     56 DU          8.2500  -22.0800  -29.4800 H         6 CUB7        0.0000 
     57 DU          7.1600  -22.7400  -27.7900 H         6 CUB7        0.0000 
     58 DU          6.9500  -21.6900  -28.8400 H         6 CUB7        0.0000 
     59 DU          5.8600  -22.3500  -27.1500 H         6 CUB7        0.0000 
     60 DU          5.6500  -21.3000  -28.2000 H         6 CUB7        0.0000 
     61 DU          8.2900  -23.8300  -24.8300 H         6 CUB7        0.0000 
     62 DU          8.0900  -22.7800  -25.8800 H         6 CUB7        0.0000 
     63 DU          7.8800  -21.7400  -26.9400 H         6 CUB7        0.0000 
@<TRIPOS>BOND
@<TRIPOS>SUBSTRUCTURE
     1 SER1        1 GROUP   
     2 ALA2        8 GROUP   
     3 LYS4       18 GROUP   
     4 PHE5       20 GROUP   
     5 GLY6       39 GROUP   
     6 CUB7       52 GROUP   
@<TRIPOS>SET

