#    Name: 6n5h_1_AUB
#    Modification time : Fri May 22 19:28:10 2020

@<TRIPOS>MOLECULE
6n5h_1_AUB
   30    34     1     0     0
SMALL
NO_CHARGES


@<TRIPOS>ATOM
      1 C22        15.2980  -30.1890  -18.4640           1 AUB401      0.0000 
      2 C24        14.1940  -31.7370  -16.9840           1 AUB401      0.0000 
      3 C21        14.0680  -29.7180  -18.8970           1 AUB401      0.0000 
      4 C25        12.9700  -31.2680  -17.4160           1 AUB401      0.0000 
      5 C23        15.3520  -31.1910  -17.5070           1 AUB401      0.0000 
      6 C20        12.9030  -30.2620  -18.3690           1 AUB401      0.0000 
      7 C28        16.6850  -31.7290  -17.0110           1 AUB401      0.0000 
      8 C26         8.6480  -25.2230  -22.4460           1 AUB401      0.0000 
      9 C14        10.0810  -27.7270  -21.4330           1 AUB401      0.0000 
     10 C12        10.7110  -26.3050  -19.4740           1 AUB401      0.0000 
     11 C15        10.5780  -28.9770  -20.7010           1 AUB401      0.0000 
     12 C17        11.1170  -27.5490  -18.6900           1 AUB401      0.0000 
     13 C6          8.5900  -22.6450  -27.0490           1 AUB401      0.0000 
     14 C9          6.6560  -21.5640  -25.8120           1 AUB401      0.0000 
     15 C4          6.3950  -23.8490  -26.6550           1 AUB401      0.0000 
     16 C2          8.7470  -22.1030  -24.6440           1 AUB401      0.0000 
     17 C10         8.5960  -24.3680  -25.5420           1 AUB401      0.0000 
     18 C8          6.6760  -23.4040  -24.2340           1 AUB401      0.0000 
     19 C1          8.2130  -21.6250  -25.9470           1 AUB401      0.0000 
     20 C5          7.8190  -24.0150  -26.8620           1 AUB401      0.0000 
     21 C3          6.0770  -22.9450  -25.4720           1 AUB401      0.0000 
     22 C13         9.6350  -26.5830  -20.5210           1 AUB401      0.0000 
     23 C16        11.5890  -28.6920  -19.5790           1 AUB401      0.0000 
     24 C7          8.1800  -23.5060  -24.3680           1 AUB401      0.0000 
     25 N18         9.6380  -25.4510  -21.4180           1 AUB401      0.0000 
     26 N11         8.9020  -24.0240  -23.2240           1 AUB401      0.0000 
     27 O29        16.6940  -32.8140  -16.3780           1 AUB401      0.0000 
     28 O27         7.7070  -25.9430  -22.5950           1 AUB401      0.0000 
     29 O30        17.7550  -31.1050  -17.2360           1 AUB401      0.0000 
     30 O19        11.6310  -29.8400  -18.7660           1 AUB401      0.0000 
@<TRIPOS>BOND
     1    1    3 du   
     2    1    5 du   
     3    2    4 du   
     4    2    5 du   
     5    3    6 du   
     6    4    6 du   
     7    5    7 du   
     8    6   30 du   
     9    7   27 du   
    10    7   29 du   
    11    8   25 du   
    12    8   26 du   
    13    8   28 du   
    14    9   11 du   
    15    9   22 du   
    16   10   12 du   
    17   10   22 du   
    18   11   23 du   
    19   12   23 du   
    20   13   19 du   
    21   13   20 du   
    22   14   19 du   
    23   14   21 du   
    24   15   20 du   
    25   15   21 du   
    26   16   19 du   
    27   16   24 du   
    28   17   20 du   
    29   17   24 du   
    30   18   21 du   
    31   18   24 du   
    32   22   25 du   
    33   23   30 du   
    34   24   26 du   
@<TRIPOS>SUBSTRUCTURE
     1 AUB401      1 GROUP   
@<TRIPOS>SET

