#    Name: 6n5h_1_AUB_CAVITY_N1_8
#    Modification time : Fri May 22 19:28:12 2020

@<TRIPOS>MOLECULE
6n5h_1_AUB_CAVITY_N1_8
   88     0     7     0     0
SMALL
NO_CHARGES


@<TRIPOS>ATOM
      1 OG          8.0400  -21.0400  -30.5400 O.3       1 SER1        0.0000 
      2 OG          6.7400  -20.6500  -29.9000 O.3       1 SER1        0.0000 
      3 OG          9.8000  -25.2700  -24.4100 O.3       1 SER1        0.0000 
      4 OG          8.7600  -20.0400  -29.6900 O.3       1 SER1        0.0000 
      5 OG          8.5000  -24.8800  -23.7700 O.3       1 SER1        0.0000 
      6 OG          7.4700  -19.6500  -29.0500 O.3       1 SER1        0.0000 
      7 OG          7.2000  -24.4900  -23.1300 O.3       1 SER1        0.0000 
      8 O           4.4100  -24.3500  -28.8500 O.2       2 ALA2        0.0000 
      9 N           3.1200  -23.9600  -28.2100 N.am      2 ALA2        0.0000 
     10 O           5.3400  -24.4000  -26.9400 O.2       2 ALA2        0.0000 
     11 N           4.0400  -24.0100  -26.3000 N.am      2 ALA2        0.0000 
     12 N           9.3400  -21.4300  -31.1800 N.am      2 ALA2        0.0000 
     13 O           7.5700  -24.8300  -25.6800 O.2       2 ALA2        0.0000 
     14 O           7.3600  -23.7900  -26.7300 O.2       2 ALA2        0.0000 
     15 O           6.2700  -24.4400  -25.0400 O.2       2 ALA2        0.0000 
     16 O           6.0700  -23.4000  -26.0900 O.2       2 ALA2        0.0000 
     17 O           6.9900  -23.4400  -24.1800 O.2       2 ALA2        0.0000 
     18 N           8.8100  -21.7800  -25.0300 N.am      2 ALA2        0.0000 
     19 OD1         2.9100  -22.9100  -29.2600 O.co2     3 ASP3        0.0000 
     20 NZ          9.2200  -23.8800  -22.9200 N.4       4 LYS4        0.0000 
     21 NZ          9.0200  -22.8300  -23.9800 N.4       4 LYS4        0.0000 
     22 CZ          7.3800  -25.4800  -32.6800 C.ar      5 PHE5        0.0000 
     23 CZ          6.0800  -25.0900  -32.0400 C.ar      5 PHE5        0.0000 
     24 CZ          8.1000  -24.4800  -31.8300 C.ar      5 PHE5        0.0000 
     25 CZ          6.8000  -24.0900  -31.1900 C.ar      5 PHE5        0.0000 
     26 CZ          5.9200  -25.7900  -28.4400 C.ar      5 PHE5        0.0000 
     27 CZ          5.7100  -24.7400  -29.4900 C.ar      5 PHE5        0.0000 
     28 CZ          5.5000  -23.7000  -30.5500 C.ar      5 PHE5        0.0000 
     29 CZ          7.7300  -24.1300  -29.2800 C.ar      5 PHE5        0.0000 
     30 CZ          7.5300  -23.0800  -30.3400 C.ar      5 PHE5        0.0000 
     31 CZ          6.6400  -24.7900  -27.5900 C.ar      5 PHE5        0.0000 
     32 CZ          6.4300  -23.7400  -28.6400 C.ar      5 PHE5        0.0000 
     33 CZ          6.0200  -21.6500  -30.7500 C.ar      5 PHE5        0.0000 
     34 CZ          4.7200  -21.2600  -30.1100 C.ar      5 PHE5        0.0000 
     35 CZ          3.8400  -22.9600  -27.3600 C.ar      5 PHE5        0.0000 
     36 CZ          8.8700  -25.2200  -26.3200 C.ar      5 PHE5        0.0000 
     37 CZ          8.6600  -24.1800  -27.3800 C.ar      5 PHE5        0.0000 
     38 CZ          5.4500  -20.2600  -29.2500 C.ar      5 PHE5        0.0000 
     39 CZ          4.7700  -23.0000  -25.4500 C.ar      5 PHE5        0.0000 
     40 CZ          4.5600  -21.9600  -26.5000 C.ar      5 PHE5        0.0000 
     41 CZ          4.3500  -20.9100  -27.5600 C.ar      5 PHE5        0.0000 
     42 CZ          6.7900  -22.3900  -25.2400 C.ar      5 PHE5        0.0000 
     43 CZ          6.5800  -21.3500  -26.2900 C.ar      5 PHE5        0.0000 
     44 CZ          7.7200  -22.4400  -23.3300 C.ar      5 PHE5        0.0000 
     45 CZ          7.5100  -21.3900  -24.3900 C.ar      5 PHE5        0.0000 
     46 CZ          7.3000  -20.3500  -25.4400 C.ar      5 PHE5        0.0000 
     47 CA          5.8700  -24.0400  -33.0900 C.3       6 GLY6        0.0000 
     48 CA          4.9900  -25.7400  -30.3400 C.3       6 GLY6        0.0000 
     49 CA          4.7800  -24.7000  -31.4000 C.3       6 GLY6        0.0000 
     50 CA          4.5800  -23.6500  -32.4500 C.3       6 GLY6        0.0000 
     51 CA          3.6900  -25.3500  -29.7000 C.3       6 GLY6        0.0000 
     52 CA          3.4800  -24.3100  -30.7600 C.3       6 GLY6        0.0000 
     53 CA          9.1900  -23.8200  -33.5300 C.3       6 GLY6        0.0000 
     54 CA          6.6000  -23.0400  -32.2400 C.3       6 GLY6        0.0000 
     55 CA          9.9100  -22.8200  -32.6800 C.3       6 GLY6        0.0000 
     56 CA          8.8200  -23.4800  -30.9800 C.3       6 GLY6        0.0000 
     57 CA          8.6200  -22.4300  -32.0300 C.3       6 GLY6        0.0000 
     58 CA          7.3200  -22.0400  -31.3900 C.3       6 GLY6        0.0000 
     59 CA          9.7500  -23.5200  -29.0700 C.3       6 GLY6        0.0000 
     60 CA          9.5500  -22.4700  -30.1300 C.3       6 GLY6        0.0000 
     61 CA          8.4500  -23.1300  -28.4300 C.3       6 GLY6        0.0000 
     62 CA         10.2700  -21.4700  -29.2800 C.3       6 GLY6        0.0000 
     63 CA          9.5900  -24.2200  -25.4700 C.3       6 GLY6        0.0000 
     64 CA          9.3800  -23.1800  -26.5200 C.3       6 GLY6        0.0000 
     65 CA          9.1800  -22.1300  -27.5800 C.3       6 GLY6        0.0000 
     66 CA          8.9700  -21.0800  -28.6300 C.3       6 GLY6        0.0000 
     67 CA          7.6700  -20.6900  -27.9900 C.3       6 GLY6        0.0000 
     68 CA          6.3700  -20.3000  -27.3500 C.3       6 GLY6        0.0000 
     69 CA         10.3100  -23.2200  -24.6200 C.3       6 GLY6        0.0000 
     70 CA         10.1100  -22.1700  -25.6700 C.3       6 GLY6        0.0000 
     71 CA          8.6000  -20.7400  -26.0800 C.3       6 GLY6        0.0000 
     72 DU          7.1700  -24.4300  -33.7400 H         7 CUB7        0.0000 
     73 DU          3.2800  -23.2600  -31.8100 H         7 CUB7        0.0000 
     74 DU          7.8900  -23.4300  -32.8900 H         7 CUB7        0.0000 
     75 DU          5.3000  -22.6500  -31.6000 H         7 CUB7        0.0000 
     76 DU          4.2100  -23.3000  -29.9000 H         7 CUB7        0.0000 
     77 DU          4.0000  -22.2600  -30.9600 H         7 CUB7        0.0000 
     78 DU          6.2300  -22.6900  -29.6900 H         7 CUB7        0.0000 
     79 DU          5.1400  -23.3500  -28.0000 H         7 CUB7        0.0000 
     80 DU          4.9300  -22.3000  -29.0500 H         7 CUB7        0.0000 
     81 DU          8.2500  -22.0800  -29.4800 H         7 CUB7        0.0000 
     82 DU          7.1600  -22.7400  -27.7900 H         7 CUB7        0.0000 
     83 DU          6.9500  -21.6900  -28.8400 H         7 CUB7        0.0000 
     84 DU          5.8600  -22.3500  -27.1500 H         7 CUB7        0.0000 
     85 DU          5.6500  -21.3000  -28.2000 H         7 CUB7        0.0000 
     86 DU          8.2900  -23.8300  -24.8300 H         7 CUB7        0.0000 
     87 DU          8.0900  -22.7800  -25.8800 H         7 CUB7        0.0000 
     88 DU          7.8800  -21.7400  -26.9400 H         7 CUB7        0.0000 
@<TRIPOS>BOND
@<TRIPOS>SUBSTRUCTURE
     1 SER1        1 GROUP   
     2 ALA2        8 GROUP   
     3 ASP3       19 GROUP   
     4 LYS4       20 GROUP   
     5 PHE5       22 GROUP   
     6 GLY6       47 GROUP   
     7 CUB7       72 GROUP   
@<TRIPOS>SET

