#    Name: 6mb6_2_COA
#    Modification time : Fri May 22 19:23:51 2020

@<TRIPOS>MOLECULE
6mb6_2_COA
   48    50     1     0     1
SMALL
NO_CHARGES


@<TRIPOS>ATOM
      1 N1A         8.7860   -0.9290   24.6680 N.ar      1 COA301      0.0000 
      2 C2A         7.5720   -1.4440   24.3190 C.ar      1 COA301      0.0000 
      3 N3A         6.6600   -0.6660   23.6580 N.ar      1 COA301      0.0000 
      4 C4A         6.9650    0.6280   23.3490 C.ar      1 COA301      0.0000 
      5 C5A         8.1530    1.1330   23.6910 C.ar      1 COA301      0.0000 
      6 C6A         9.0840    0.3290   24.3680 C.ar      1 COA301      0.0000 
      7 N6A        10.4000    0.6370   24.8300 N.pl3     1 COA301      0.0000 
      8 N7A         8.1980    2.4160   23.2720 N.2       1 COA301      0.0000 
      9 C8A         7.0340    2.6940   22.6720 C.2       1 COA301      0.0000 
     10 N9A         6.2690    1.5960   22.7190 N.pl3     1 COA301      0.0000 
     11 C1B         4.9380    1.3950   22.2090 C.3       1 COA301      0.0000 
     12 C2B         4.0400    1.9230   23.0210 C.3       1 COA301      0.0000 
     13 O2B         2.9290    1.0250   23.1640 O.3       1 COA301      0.0000 
     14 C3B         3.5610    3.2480   22.3750 C.3       1 COA301      0.0000 
     15 O3B         2.2230    3.3230   22.4230 O.3       1 COA301      0.0000 
     16 P3B         1.4720    4.0720   23.7490 P.3       1 COA301      0.0000 
     17 O7A         0.2980    4.8940   23.2580 O.co2     1 COA301      0.0000 
     18 O8A         2.4850    4.9920   24.4680 O.co2     1 COA301      0.0000 
     19 O9A         0.9860    3.0090   24.7090 O.co2     1 COA301      0.0000 
     20 C4B         4.0030    3.1610   20.8730 C.3       1 COA301      0.0000 
     21 O4B         4.7980    2.1320   20.7490 O.3       1 COA301      0.0000 
     22 C5B         4.7450    4.4200   20.4640 C.3       1 COA301      0.0000 
     23 O5B         4.5980    4.5600   19.0760 O.3       1 COA301      0.0000 
     24 P1A         5.3140    5.8450   18.3180 P.3       1 COA301      0.0000 
     25 O1A         6.7590    5.9450   18.7330 O.co2     1 COA301      0.0000 
     26 O2A         5.2300    5.6420   16.8380 O.co2     1 COA301      0.0000 
     27 O3A         4.5000    7.2280   18.7370 O.3       1 COA301      0.0000 
     28 P2A         2.8880    7.5150   18.2800 P.3       1 COA301      0.0000 
     29 O4A         2.1210    8.1120   19.4500 O.co2     1 COA301      0.0000 
     30 O5A         2.2250    6.2280   17.8410 O.co2     1 COA301      0.0000 
     31 O6A         2.8800    8.6010   17.0360 O.3       1 COA301      0.0000 
     32 CBP         4.5010   10.0630   16.0840 C.3       1 COA301      0.0000 
     33 CCP         3.5790    9.8130   17.2700 C.3       1 COA301      0.0000 
     34 CDP         5.6290    9.0890   16.1270 C.3       1 COA301      0.0000 
     35 CEP         5.0520   11.4670   16.1670 C.3       1 COA301      0.0000 
     36 CAP         3.6820    9.8420   14.7910 C.3       1 COA301      0.0000 
     37 OAP         2.6140   10.6940   14.7600 O.3       1 COA301      0.0000 
     38 C9P         4.5710   10.0750   13.5370 C.2       1 COA301      0.0000 
     39 O9P         4.7260   11.1970   13.0820 O.2       1 COA301      0.0000 
     40 N8P         5.2380    8.8850   12.8730 N.am      1 COA301      0.0000 
     41 C7P         6.1100    9.1220   11.6510 C.3       1 COA301      0.0000 
     42 C6P         7.4070    9.7600   12.1580 C.3       1 COA301      0.0000 
     43 C5P         8.3550   10.1160   10.9950 C.2       1 COA301      0.0000 
     44 O5P         8.7490    9.2670   10.2520 O.2       1 COA301      0.0000 
     45 N4P         8.7590   11.4650   10.8250 N.am      1 COA301      0.0000 
     46 C3P         9.6580   11.8350    9.7330 C.3       1 COA301      0.0000 
     47 C2P        10.2360   13.2660    9.9970 C.3       1 COA301      0.0000 
     48 S1P         8.9620   14.5510    9.6360 S.3       1 COA301      0.0000 
@<TRIPOS>BOND
     1    1    2 ar   
     2    1    6 ar   
     3    2    3 ar   
     4    3    4 ar   
     5    4    5 ar   
     6    4   10 1    
     7    5    6 ar   
     8    5    8 1    
     9    6    7 1    
    10    8    9 2    
    11    9   10 1    
    12   10   11 1    
    13   11   12 1    
    14   11   21 1    
    15   12   13 1    
    16   12   14 1    
    17   14   15 1    
    18   14   20 1    
    19   15   16 1    
    20   16   17 ar   
    21   16   18 ar   
    22   16   19 ar   
    23   20   21 1    
    24   20   22 1    
    25   22   23 1    
    26   23   24 1    
    27   24   25 ar   
    28   24   26 ar   
    29   24   27 1    
    30   27   28 1    
    31   28   29 ar   
    32   28   30 ar   
    33   28   31 1    
    34   31   33 1    
    35   32   33 1    
    36   32   34 1    
    37   32   35 1    
    38   32   36 1    
    39   36   37 1    
    40   36   38 1    
    41   38   39 2    
    42   38   40 am   
    43   40   41 1    
    44   41   42 1    
    45   42   43 1    
    46   43   44 2    
    47   43   45 am   
    48   45   46 1    
    49   46   47 1    
    50   47   48 1    
@<TRIPOS>SUBSTRUCTURE
     1 COA301      1 GROUP   
@<TRIPOS>SET
ATOM$ORANGE STATIC     ATOMS   COLORGROUP SYSTEM 
42 2 2 4 4 5 5 6 6 9 9 11 11 12 12 14 14 20 \
20 22 22 32 32 33 33 34 34 35 35 36 36 38 38 41 41 42 \
42 43 43 46 46 47 47 

