#    Name: 6tz6_1_FK5
#    Modification time : Fri May 22 19:26:50 2020

@<TRIPOS>MOLECULE
6tz6_1_FK5
   57    60     1     0     0
SMALL
NO_CHARGES


@<TRIPOS>ATOM
      1 C1         21.4040  -16.7810  -41.7080 C.2       1 FK5200      0.0000 
      2 C2         22.4790  -16.3700  -40.7400 C.3       1 FK5200      0.0000 
      3 C3         23.8670  -16.7500  -41.2700 C.3       1 FK5200      0.0000 
      4 C4         24.1740  -18.2360  -41.1390 C.3       1 FK5200      0.0000 
      5 C5         23.8090  -18.8140  -39.7660 C.3       1 FK5200      0.0000 
      6 C6         22.4000  -18.4430  -39.2890 C.3       1 FK5200      0.0000 
      7 C8         21.9870  -16.1920  -38.3890 C.2       1 FK5200      0.0000 
      8 C9         21.8300  -16.6520  -37.0840 C.2       1 FK5200      0.0000 
      9 C10        20.4460  -16.9970  -36.5280 C.3       1 FK5200      0.0000 
     10 C11        19.3870  -16.0340  -37.0710 C.3       1 FK5200      0.0000 
     11 C12        17.9650  -16.5450  -36.8290 C.3       1 FK5200      0.0000 
     12 C13        17.8720  -18.0090  -37.2450 C.3       1 FK5200      0.0000 
     13 C14        18.9230  -18.7740  -36.4640 C.3       1 FK5200      0.0000 
     14 C15        18.9130  -20.2730  -36.7040 C.3       1 FK5200      0.0000 
     15 C16        18.8300  -20.5890  -38.1920 C.3       1 FK5200      0.0000 
     16 C17        19.1820  -22.0370  -38.5800 C.3       1 FK5200      0.0000 
     17 C18        17.9340  -22.8970  -38.4220 C.3       1 FK5200      0.0000 
     18 C19        17.0690  -22.8040  -39.6450 C.2       1 FK5200      0.0000 
     19 C20        15.9300  -21.8780  -39.6560 C.2       1 FK5200      0.0000 
     20 C21        15.1430  -21.5750  -40.8880 C.3       1 FK5200      0.0000 
     21 C22        15.7700  -20.4000  -41.5640 C.2       1 FK5200      0.0000 
     22 C23        16.8560  -20.6260  -42.6030 C.3       1 FK5200      0.0000 
     23 C24        17.5950  -19.3550  -43.0020 C.3       1 FK5200      0.0000 
     24 C25        18.7680  -19.0660  -42.0870 C.3       1 FK5200      0.0000 
     25 C26        19.3960  -17.6980  -42.3310 C.3       1 FK5200      0.0000 
     26 C27        18.3010  -16.6910  -42.2620 C.2       1 FK5200      0.0000 
     27 C28        17.9140  -16.0040  -43.4950 C.2       1 FK5200      0.0000 
     28 C29        16.7890  -15.0240  -43.4870 C.3       1 FK5200      0.0000 
     29 C30        17.0510  -13.9170  -44.5030 C.3       1 FK5200      0.0000 
     30 C31        15.9400  -12.8820  -44.4310 C.3       1 FK5200      0.0000 
     31 C32        14.5830  -13.5260  -44.6620 C.3       1 FK5200      0.0000 
     32 C33        14.3500  -14.7490  -43.7870 C.3       1 FK5200      0.0000 
     33 C34        15.5070  -15.7360  -43.8800 C.3       1 FK5200      0.0000 
     34 C35        19.5880  -14.6240  -36.5020 C.3       1 FK5200      0.0000 
     35 C36        20.3570  -22.6430  -37.8010 C.3       1 FK5200      0.0000 
     36 C37        17.3810  -23.6760  -40.8210 C.3       1 FK5200      0.0000 
     37 C38        13.7170  -21.1880  -40.5040 C.3       1 FK5200      0.0000 
     38 C39        13.1540  -22.2030  -39.5340 C.2       1 FK5200      0.0000 
     39 C40        12.3970  -23.3680  -40.0140 C.2       1 FK5200      0.0000 
     40 C41        19.8180  -20.1620  -42.2710 C.3       1 FK5200      0.0000 
     41 C42        17.6130  -16.3990  -40.9630 C.3       1 FK5200      0.0000 
     42 C43        15.5990  -18.2360  -37.9390 C.3       1 FK5200      0.0000 
     43 C44        18.3280  -21.4070  -34.7710 C.3       1 FK5200      0.0000 
     44 C45        17.0600  -10.9040  -45.0790 C.3       1 FK5200      0.0000 
     45 N7         22.2730  -16.9840  -39.4190 N.am      1 FK5200      0.0000 
     46 O1         20.3780  -17.4110  -41.3400 O.3       1 FK5200      0.0000 
     47 O2         21.5740  -16.4510  -43.0520 O.2       1 FK5200      0.0000 
     48 O3         21.8270  -14.8380  -38.6710 O.2       1 FK5200      0.0000 
     49 O4         22.9640  -16.8050  -36.2720 O.2       1 FK5200      0.0000 
     50 O5         20.1660  -18.3240  -36.9010 O.3       1 FK5200      0.0000 
     51 O6         20.4640  -16.9140  -35.0850 O.3       1 FK5200      0.0000 
     52 O7         16.5870  -18.5280  -36.9650 O.3       1 FK5200      0.0000 
     53 O8         17.8430  -20.8200  -35.9650 O.3       1 FK5200      0.0000 
     54 O9         15.3070  -19.1270  -41.1980 O.2       1 FK5200      0.0000 
     55 O10        18.1380  -19.5570  -44.2870 O.3       1 FK5200      0.0000 
     56 O11        16.1550  -11.9250  -45.4450 O.3       1 FK5200      0.0000 
     57 O12        13.5800  -12.5740  -44.3910 O.3       1 FK5200      0.0000 
@<TRIPOS>BOND
     1    1    2 1    
     2    1   46 1    
     3    1   47 2    
     4    2    3 1    
     5    2   45 1    
     6    3    4 1    
     7    4    5 1    
     8    5    6 1    
     9    6   45 1    
    10    7    8 1    
    11    7   45 am   
    12    7   48 2    
    13    8    9 1    
    14    8   49 2    
    15    9   10 1    
    16    9   50 1    
    17    9   51 1    
    18   10   11 1    
    19   10   34 1    
    20   11   12 1    
    21   12   13 1    
    22   12   52 1    
    23   13   14 1    
    24   13   50 1    
    25   14   15 1    
    26   14   53 1    
    27   15   16 1    
    28   16   17 1    
    29   16   35 1    
    30   17   18 1    
    31   18   19 2    
    32   18   36 1    
    33   19   20 1    
    34   20   21 1    
    35   20   37 1    
    36   21   22 1    
    37   21   54 2    
    38   22   23 1    
    39   23   24 1    
    40   23   55 1    
    41   24   25 1    
    42   24   40 1    
    43   25   26 1    
    44   25   46 1    
    45   26   27 2    
    46   26   41 1    
    47   27   28 1    
    48   28   29 1    
    49   28   33 1    
    50   29   30 1    
    51   30   31 1    
    52   30   56 1    
    53   31   32 1    
    54   31   57 1    
    55   32   33 1    
    56   37   38 1    
    57   38   39 2    
    58   42   52 1    
    59   43   53 1    
    60   44   56 1    
@<TRIPOS>SUBSTRUCTURE
     1 FK5200      1 GROUP   
@<TRIPOS>SET

