#    Name: 6tz6_2_FK5
#    Modification time : Fri May 22 19:26:57 2020

@<TRIPOS>MOLECULE
6tz6_2_FK5
   57    60     1     0     0
SMALL
NO_CHARGES


@<TRIPOS>ATOM
      1 C1          7.5760   18.6820  -37.6010 C.2       1 FK5200      0.0000 
      2 C2          6.4820   18.2060  -36.6860 C.3       1 FK5200      0.0000 
      3 C3          5.1460   18.8160  -37.0960 C.3       1 FK5200      0.0000 
      4 C4          5.0450   20.2610  -36.6380 C.3       1 FK5200      0.0000 
      5 C5          5.2670   20.4010  -35.1370 C.3       1 FK5200      0.0000 
      6 C6          6.6380   19.8720  -34.7520 C.3       1 FK5200      0.0000 
      7 C8          7.1330   17.4830  -34.4410 C.2       1 FK5200      0.0000 
      8 C9          7.3760   17.6910  -33.0710 C.2       1 FK5200      0.0000 
      9 C10         8.7650   17.9840  -32.5130 C.3       1 FK5200      0.0000 
     10 C11         9.8250   17.2090  -33.2940 C.3       1 FK5200      0.0000 
     11 C12        11.2270   17.7890  -33.1270 C.3       1 FK5200      0.0000 
     12 C13        11.2480   19.3120  -33.2020 C.3       1 FK5200      0.0000 
     13 C14        10.2510   19.8230  -32.1790 C.3       1 FK5200      0.0000 
     14 C15        10.1470   21.3370  -32.0900 C.3       1 FK5200      0.0000 
     15 C16        10.0150   21.9720  -33.4800 C.3       1 FK5200      0.0000 
     16 C17         9.6070   23.4570  -33.4960 C.3       1 FK5200      0.0000 
     17 C18        10.8340   24.3450  -33.2610 C.3       1 FK5200      0.0000 
     18 C19        11.7260   24.3630  -34.4870 C.2       1 FK5200      0.0000 
     19 C20        12.8100   23.3920  -34.6450 C.2       1 FK5200      0.0000 
     20 C21        13.6380   23.3350  -35.8820 C.3       1 FK5200      0.0000 
     21 C22        13.0660   22.3470  -36.8510 C.2       1 FK5200      0.0000 
     22 C23        11.9590   22.7410  -37.8040 C.3       1 FK5200      0.0000 
     23 C24        11.3360   21.5170  -38.4700 C.3       1 FK5200      0.0000 
     24 C25        10.1610   21.0210  -37.6360 C.3       1 FK5200      0.0000 
     25 C26         9.5770   19.6760  -38.0960 C.3       1 FK5200      0.0000 
     26 C27        10.7060   18.6950  -38.2090 C.2       1 FK5200      0.0000 
     27 C28        11.0450   18.1430  -39.5130 C.2       1 FK5200      0.0000 
     28 C29        12.1710   17.1730  -39.6480 C.3       1 FK5200      0.0000 
     29 C30        11.8540   16.2570  -40.8250 C.3       1 FK5200      0.0000 
     30 C31        13.0180   15.3200  -41.1400 C.3       1 FK5200      0.0000 
     31 C32        14.3080   16.0730  -41.3740 C.3       1 FK5200      0.0000 
     32 C33        14.6300   16.9490  -40.1670 C.3       1 FK5200      0.0000 
     33 C34        13.4780   17.9220  -39.9110 C.3       1 FK5200      0.0000 
     34 C35         9.7950   15.7290  -32.9180 C.3       1 FK5200      0.0000 
     35 C36         8.4940   23.7890  -32.5050 C.3       1 FK5200      0.0000 
     36 C37        11.4900   25.3920  -35.5430 C.3       1 FK5200      0.0000 
     37 C38        15.0040   22.7960  -35.4850 C.3       1 FK5200      0.0000 
     38 C39        15.9400   23.9120  -35.0800 C.2       1 FK5200      0.0000 
     39 C40        15.7480   24.6830  -33.8430 C.2       1 FK5200      0.0000 
     40 C41         9.0930   22.1090  -37.5700 C.3       1 FK5200      0.0000 
     41 C42        11.5220   18.3140  -37.0140 C.3       1 FK5200      0.0000 
     42 C43        13.4540   19.3730  -33.9620 C.3       1 FK5200      0.0000 
     43 C44        10.8110   22.0970  -30.0070 C.3       1 FK5200      0.0000 
     44 C45        11.7780   13.5890  -42.0200 C.3       1 FK5200      0.0000 
     45 N7          6.7740   18.4940  -35.2630 N.am      1 FK5200      0.0000 
     46 O1          8.5950   19.2650  -37.1520 O.3       1 FK5200      0.0000 
     47 O2          7.4540   18.4310  -38.9750 O.2       1 FK5200      0.0000 
     48 O3          7.2390   16.1860  -34.9880 O.2       1 FK5200      0.0000 
     49 O4          6.3220   17.6600  -32.1410 O.2       1 FK5200      0.0000 
     50 O5          8.9860   19.3760  -32.6000 O.3       1 FK5200      0.0000 
     51 O6          8.7690   17.6080  -31.1140 O.3       1 FK5200      0.0000 
     52 O7         12.5590   19.7600  -32.9350 O.3       1 FK5200      0.0000 
     53 O8         11.2340   21.8130  -31.3260 O.3       1 FK5200      0.0000 
     54 O9         13.5970   21.0440  -36.8670 O.2       1 FK5200      0.0000 
     55 O10        10.8880   21.8400  -39.7700 O.3       1 FK5200      0.0000 
     56 O11        12.7400   14.5810  -42.3010 O.3       1 FK5200      0.0000 
     57 O12        15.3000   15.1030  -41.5800 O.3       1 FK5200      0.0000 
@<TRIPOS>BOND
     1    1    2 1    
     2    1   46 1    
     3    1   47 2    
     4    2    3 1    
     5    2   45 1    
     6    3    4 1    
     7    4    5 1    
     8    5    6 1    
     9    6   45 1    
    10    7    8 1    
    11    7   45 am   
    12    7   48 2    
    13    8    9 1    
    14    8   49 2    
    15    9   10 1    
    16    9   50 1    
    17    9   51 1    
    18   10   11 1    
    19   10   34 1    
    20   11   12 1    
    21   12   13 1    
    22   12   52 1    
    23   13   14 1    
    24   13   50 1    
    25   14   15 1    
    26   14   53 1    
    27   15   16 1    
    28   16   17 1    
    29   16   35 1    
    30   17   18 1    
    31   18   19 2    
    32   18   36 1    
    33   19   20 1    
    34   20   21 1    
    35   20   37 1    
    36   21   22 1    
    37   21   54 2    
    38   22   23 1    
    39   23   24 1    
    40   23   55 1    
    41   24   25 1    
    42   24   40 1    
    43   25   26 1    
    44   25   46 1    
    45   26   27 2    
    46   26   41 1    
    47   27   28 1    
    48   28   29 1    
    49   28   33 1    
    50   29   30 1    
    51   30   31 1    
    52   30   56 1    
    53   31   32 1    
    54   31   57 1    
    55   32   33 1    
    56   37   38 1    
    57   38   39 2    
    58   42   52 1    
    59   43   53 1    
    60   44   56 1    
@<TRIPOS>SUBSTRUCTURE
     1 FK5200      1 GROUP   
@<TRIPOS>SET

