#    Name: 6qib_1_DTP_CAVITY_N1_12
#    Modification time : Fri May 22 19:32:28 2020

@<TRIPOS>MOLECULE
6qib_1_DTP_CAVITY_N1_12
   81     0     7     0     0
SMALL
NO_CHARGES


@<TRIPOS>ATOM
      1 OG         13.2400   21.7100   35.9200 O.3       1 SER1        0.0000 
      2 O           8.3300   22.9800   30.1900 O.2       2 ALA2        0.0000 
      3 O           6.6600   24.4400   33.1200 O.2       2 ALA2        0.0000 
      4 O           7.3800   23.1500   33.4000 O.2       2 ALA2        0.0000 
      5 O           8.3200   23.4200   32.2700 O.2       2 ALA2        0.0000 
      6 O           8.5400   24.9800   30.8400 O.2       2 ALA2        0.0000 
      7 O           9.2600   23.6900   31.1300 O.2       2 ALA2        0.0000 
      8 O           8.5300   25.4300   32.9200 O.2       2 ALA2        0.0000 
      9 OD1         8.1000   21.4200   31.6100 O.co2     3 ASP3        0.0000 
     10 OD1         8.8200   20.1300   31.9000 O.co2     3 ASP3        0.0000 
     11 OD1         9.7600   20.4000   30.7600 O.co2     3 ASP3        0.0000 
     12 OD1        10.4700   19.1100   31.0400 O.co2     3 ASP3        0.0000 
     13 OD1        10.7000   20.6700   29.6200 O.co2     3 ASP3        0.0000 
     14 OD1         7.8600   20.3100   35.1100 O.co2     3 ASP3        0.0000 
     15 OD1         8.5800   19.0200   35.3900 O.co2     3 ASP3        0.0000 
     16 OD1         8.8000   20.5800   33.9700 O.co2     3 ASP3        0.0000 
     17 OD1         9.5200   19.2900   34.2500 O.co2     3 ASP3        0.0000 
     18 OD1         9.7400   20.8500   32.8300 O.co2     3 ASP3        0.0000 
     19 OD1        10.4600   19.5600   33.1100 O.co2     3 ASP3        0.0000 
     20 OD1         9.4700   25.7000   31.7800 O.co2     3 ASP3        0.0000 
     21 OD1        10.4100   25.9700   30.6400 O.co2     3 ASP3        0.0000 
     22 OD1        10.4000   26.4200   32.7200 O.co2     3 ASP3        0.0000 
     23 OD1        11.3300   26.6900   31.5800 O.co2     3 ASP3        0.0000 
     24 NZ         10.6800   21.1200   31.6900 N.4       4 LYS4        0.0000 
     25 NZ         11.4000   19.8300   31.9800 N.4       4 LYS4        0.0000 
     26 NZ         11.6200   21.3900   30.5600 N.4       4 LYS4        0.0000 
     27 NZ         11.8500   22.9500   29.1400 N.4       4 LYS4        0.0000 
     28 NZ         11.3800   20.2800   34.0500 N.4       4 LYS4        0.0000 
     29 NZ         11.6100   21.8400   32.6300 N.4       4 LYS4        0.0000 
     30 NZ         12.5500   22.1100   31.4900 N.4       4 LYS4        0.0000 
     31 NZ         11.3500   26.2400   29.5000 N.4       4 LYS4        0.0000 
     32 NZ         12.0600   24.9500   29.7900 N.4       4 LYS4        0.0000 
     33 NZ         12.7700   23.6600   30.0700 N.4       4 LYS4        0.0000 
     34 NZ         13.4900   22.3800   30.3500 N.4       4 LYS4        0.0000 
     35 NZ         12.2900   26.5100   28.3700 N.4       4 LYS4        0.0000 
     36 NZ         12.3100   20.9900   34.9900 N.4       4 LYS4        0.0000 
     37 NZ         12.5400   22.5500   33.5600 N.4       4 LYS4        0.0000 
     38 NZ         13.4700   22.8200   32.4300 N.4       4 LYS4        0.0000 
     39 NZ         12.2700   26.9600   30.4400 N.4       4 LYS4        0.0000 
     40 NZ         12.9900   25.6700   30.7200 N.4       4 LYS4        0.0000 
     41 NZ         13.7000   24.3800   31.0100 N.4       4 LYS4        0.0000 
     42 NZ         14.4100   23.0900   31.2900 N.4       4 LYS4        0.0000 
     43 NZ         13.2100   27.2300   29.3000 N.4       4 LYS4        0.0000 
     44 NZ         12.5200   23.0000   35.6400 N.4       4 LYS4        0.0000 
     45 NZ         12.7500   24.5600   34.2200 N.4       4 LYS4        0.0000 
     46 NZ         13.4600   23.2700   34.5000 N.4       4 LYS4        0.0000 
     47 NZ         13.6900   24.8300   33.0800 N.4       4 LYS4        0.0000 
     48 NZ         14.4000   23.5400   33.3600 N.4       4 LYS4        0.0000 
     49 CZ          7.1400   22.0400   36.9000 C.ar      5 PHE5        0.0000 
     50 CA          6.9400   19.5900   34.1700 C.3       6 GLY6        0.0000 
     51 CA          6.4500   22.4400   32.4700 C.3       6 GLY6        0.0000 
     52 CA          7.1600   21.1500   32.7500 C.3       6 GLY6        0.0000 
     53 CA          9.0400   21.6900   30.4700 C.3       6 GLY6        0.0000 
     54 CA          5.7200   24.1700   34.2600 C.3       6 GLY6        0.0000 
     55 CA          6.4400   22.8800   34.5400 C.3       6 GLY6        0.0000 
     56 CA          7.1500   21.5900   34.8200 C.3       6 GLY6        0.0000 
     57 CA          8.0900   21.8700   33.6900 C.3       6 GLY6        0.0000 
     58 CA          9.4800   25.2500   29.7100 C.3       6 GLY6        0.0000 
     59 CA         10.1900   23.9600   29.9900 C.3       6 GLY6        0.0000 
     60 CA         10.9100   22.6800   30.2700 C.3       6 GLY6        0.0000 
     61 DU          9.0300   22.1400   32.5500 H         7 CUB7        0.0000 
     62 DU          9.9700   22.4100   31.4100 H         7 CUB7        0.0000 
     63 DU          7.3600   23.6000   35.4800 H         7 CUB7        0.0000 
     64 DU          8.0800   22.3100   35.7600 H         7 CUB7        0.0000 
     65 DU          8.7900   21.0200   36.0400 H         7 CUB7        0.0000 
     66 DU          8.3000   23.8700   34.3400 H         7 CUB7        0.0000 
     67 DU          9.0200   22.5800   34.6200 H         7 CUB7        0.0000 
     68 DU          9.7300   21.2900   34.9000 H         7 CUB7        0.0000 
     69 DU         10.4400   20.0100   35.1900 H         7 CUB7        0.0000 
     70 DU          9.2400   24.1400   33.2000 H         7 CUB7        0.0000 
     71 DU         10.6700   21.5600   33.7700 H         7 CUB7        0.0000 
     72 DU         10.1800   24.4100   32.0600 H         7 CUB7        0.0000 
     73 DU         10.9000   23.1200   32.3500 H         7 CUB7        0.0000 
     74 DU         11.1200   24.6800   30.9300 H         7 CUB7        0.0000 
     75 DU         11.8300   23.3900   31.2100 H         7 CUB7        0.0000 
     76 DU         10.6600   22.0100   35.8400 H         7 CUB7        0.0000 
     77 DU         10.8800   23.5700   34.4200 H         7 CUB7        0.0000 
     78 DU         11.6000   22.2800   34.7000 H         7 CUB7        0.0000 
     79 DU         11.8200   23.8400   33.2800 H         7 CUB7        0.0000 
     80 DU         12.0500   25.4000   31.8600 H         7 CUB7        0.0000 
     81 DU         12.7600   24.1100   32.1400 H         7 CUB7        0.0000 
@<TRIPOS>BOND
@<TRIPOS>SUBSTRUCTURE
     1 SER1        1 GROUP   
     2 ALA2        2 GROUP   
     3 ASP3        9 GROUP   
     4 LYS4       24 GROUP   
     5 PHE5       49 GROUP   
     6 GLY6       50 GROUP   
     7 CUB7       61 GROUP   
@<TRIPOS>SET

