#    Name: 6qib_1_DTP_CAVITY_N1_4
#    Modification time : Fri May 22 19:32:28 2020

@<TRIPOS>MOLECULE
6qib_1_DTP_CAVITY_N1_4
   28     0     5     0     0
SMALL
NO_CHARGES


@<TRIPOS>ATOM
      1 O           8.3300   22.9800   30.1900 O.2       1 ALA2        0.0000 
      2 O           9.2600   23.6900   31.1300 O.2       1 ALA2        0.0000 
      3 OD1         8.1000   21.4200   31.6100 O.co2     2 ASP3        0.0000 
      4 OD1         8.8200   20.1300   31.9000 O.co2     2 ASP3        0.0000 
      5 OD1         9.7600   20.4000   30.7600 O.co2     2 ASP3        0.0000 
      6 OD1        10.4700   19.1100   31.0400 O.co2     2 ASP3        0.0000 
      7 OD1        10.7000   20.6700   29.6200 O.co2     2 ASP3        0.0000 
      8 OD1         8.5800   19.0200   35.3900 O.co2     2 ASP3        0.0000 
      9 OD1         8.8000   20.5800   33.9700 O.co2     2 ASP3        0.0000 
     10 OD1         9.5200   19.2900   34.2500 O.co2     2 ASP3        0.0000 
     11 OD1         9.7400   20.8500   32.8300 O.co2     2 ASP3        0.0000 
     12 OD1        10.4600   19.5600   33.1100 O.co2     2 ASP3        0.0000 
     13 NZ         10.6800   21.1200   31.6900 N.4       3 LYS4        0.0000 
     14 NZ         11.4000   19.8300   31.9800 N.4       3 LYS4        0.0000 
     15 NZ         11.6200   21.3900   30.5600 N.4       3 LYS4        0.0000 
     16 NZ         11.3800   20.2800   34.0500 N.4       3 LYS4        0.0000 
     17 NZ         11.6100   21.8400   32.6300 N.4       3 LYS4        0.0000 
     18 NZ         12.5500   22.1100   31.4900 N.4       3 LYS4        0.0000 
     19 CA          6.9400   19.5900   34.1700 C.3       4 GLY6        0.0000 
     20 CA          7.1600   21.1500   32.7500 C.3       4 GLY6        0.0000 
     21 CA          9.0400   21.6900   30.4700 C.3       4 GLY6        0.0000 
     22 CA          8.0900   21.8700   33.6900 C.3       4 GLY6        0.0000 
     23 CA         10.9100   22.6800   30.2700 C.3       4 GLY6        0.0000 
     24 DU          9.0300   22.1400   32.5500 H         5 CUB7        0.0000 
     25 DU          9.9700   22.4100   31.4100 H         5 CUB7        0.0000 
     26 DU         10.4400   20.0100   35.1900 H         5 CUB7        0.0000 
     27 DU         10.6700   21.5600   33.7700 H         5 CUB7        0.0000 
     28 DU         10.9000   23.1200   32.3500 H         5 CUB7        0.0000 
@<TRIPOS>BOND
@<TRIPOS>SUBSTRUCTURE
     1 ALA2        1 GROUP   
     2 ASP3        3 GROUP   
     3 LYS4       13 GROUP   
     4 GLY6       19 GROUP   
     5 CUB7       24 GROUP   
@<TRIPOS>SET

