#    Name: 6qib_1_DTP
#    Modification time : Fri May 22 19:32:26 2020

@<TRIPOS>MOLECULE
6qib_1_DTP
   30    32     1     0     0
SMALL
NO_CHARGES


@<TRIPOS>ATOM
      1 PG         10.4280   18.7100   30.7610 P.3       1 DTP1202     0.0000 
      2 O1G        10.5180   18.3210   29.3510 O.co2     1 DTP1202     0.0000 
      3 O2G         9.3800   19.6960   31.1300 O.co2     1 DTP1202     0.0000 
      4 O3G        11.6980   18.7760   31.5700 O.co2     1 DTP1202     0.0000 
      5 PB         10.3850   15.8920   31.0530 P.3       1 DTP1202     0.0000 
      6 O1B        11.8570   16.0540   31.0060 O.co2     1 DTP1202     0.0000 
      7 O2B         9.7560   14.9990   30.0590 O.co2     1 DTP1202     0.0000 
      8 O3B         9.6700   17.3450   31.1840 O.3       1 DTP1202     0.0000 
      9 PA         10.7240   15.9150   33.7940 P.3       1 DTP1202     0.0000 
     10 O1A        11.8530   16.8050   33.3340 O.co2     1 DTP1202     0.0000 
     11 O2A         9.7410   16.3900   34.8110 O.co2     1 DTP1202     0.0000 
     12 O3A         9.9450   15.3770   32.4960 O.3       1 DTP1202     0.0000 
     13 O5'        11.3080   14.4720   34.2200 O.3       1 DTP1202     0.0000 
     14 C5'        12.1050   13.7510   33.2970 C.3       1 DTP1202     0.0000 
     15 C4'        11.5330   12.3490   33.0870 C.3       1 DTP1202     0.0000 
     16 O4'        10.7300   11.9230   34.2140 O.3       1 DTP1202     0.0000 
     17 C3'        10.5180   12.3400   31.9510 C.3       1 DTP1202     0.0000 
     18 O3'        11.1450   12.5440   30.6590 O.3       1 DTP1202     0.0000 
     19 C2'         9.9960   10.9350   32.1490 C.3       1 DTP1202     0.0000 
     20 C1'         9.8610   10.8920   33.6950 C.3       1 DTP1202     0.0000 
     21 N9          8.5730   11.4080   34.0530 N.pl3     1 DTP1202     0.0000 
     22 C8          8.3280   12.6420   34.5170 C.2       1 DTP1202     0.0000 
     23 N7          7.0130   12.7560   34.7310 N.2       1 DTP1202     0.0000 
     24 C5          6.4630   11.5860   34.3940 C.ar      1 DTP1202     0.0000 
     25 C6          5.2010   11.1860   34.4270 C.ar      1 DTP1202     0.0000 
     26 N6          4.3280   12.0890   34.8500 N.pl3     1 DTP1202     0.0000 
     27 N1          4.8320    9.9500   34.0400 N.ar      1 DTP1202     0.0000 
     28 C2          5.8270    9.0470   33.5970 C.ar      1 DTP1202     0.0000 
     29 N3          7.1510    9.4870   33.5940 N.ar      1 DTP1202     0.0000 
     30 C4          7.4260   10.7490   33.9760 C.ar      1 DTP1202     0.0000 
@<TRIPOS>BOND
     1    1    2 ar   
     2    1    3 ar   
     3    1    4 ar   
     4    1    8 1    
     5    5    6 ar   
     6    5    7 ar   
     7    5    8 1    
     8    5   12 1    
     9    9   10 ar   
    10    9   11 ar   
    11    9   12 1    
    12    9   13 1    
    13   13   14 1    
    14   14   15 1    
    15   15   16 1    
    16   15   17 1    
    17   16   20 1    
    18   17   18 1    
    19   17   19 1    
    20   19   20 1    
    21   20   21 1    
    22   21   22 1    
    23   21   30 1    
    24   22   23 2    
    25   23   24 1    
    26   24   25 ar   
    27   24   30 ar   
    28   25   26 1    
    29   25   27 ar   
    30   27   28 ar   
    31   28   29 ar   
    32   29   30 ar   
@<TRIPOS>SUBSTRUCTURE
     1 DTP1202     1 GROUP   
@<TRIPOS>SET

