#    Name: 6mb0_1_YNC
#    Modification time : Fri May 22 19:32:48 2020

@<TRIPOS>MOLECULE
6mb0_1_YNC
   63    65     1     0     0
SMALL
NO_CHARGES


@<TRIPOS>ATOM
      1 C          38.0490  -18.3550  -23.8740 C.ar      1 YNC501      0.0000 
      2 N          36.8140  -17.8670  -23.7400 N.pl3     1 YNC501      0.0000 
      3 O          42.7100  -18.1260  -27.9290 O.3       1 YNC501      0.0000 
      4 P          45.9510  -18.7210  -28.1040 P.3       1 YNC501      0.0000 
      5 S          33.3260  -18.7400  -21.8110 S.3       1 YNC501      0.0000 
      6 C1         39.5360  -20.0930  -23.5410 C.ar      1 YNC501      0.0000 
      7 N1         38.3120  -19.5820  -23.3770 N.ar      1 YNC501      0.0000 
      8 O1         45.1770  -18.2920  -26.7720 O.3       1 YNC501      0.0000 
      9 P1         44.5930  -13.0650  -23.4130 P.3       1 YNC501      0.0000 
     10 C2         40.3140  -18.3320  -24.6090 C.ar      1 YNC501      0.0000 
     11 N2         40.5950  -19.5550  -24.1520 N.ar      1 YNC501      0.0000 
     12 O2         46.3740  -20.1490  -27.9420 O.co2     1 YNC501      0.0000 
     13 P2         41.9730  -11.8040  -23.4120 P.3       1 YNC501      0.0000 
     14 C3         39.1010  -17.6690  -24.5180 C.ar      1 YNC501      0.0000 
     15 N3         39.1870  -16.4030  -25.0770 N.2       1 YNC501      0.0000 
     16 O3         44.9400  -18.5820  -29.2580 O.co2     1 YNC501      0.0000 
     17 C4         40.4330  -16.3310  -25.4880 C.2       1 YNC501      0.0000 
     18 N4         41.1700  -17.4590  -25.2370 N.pl3     1 YNC501      0.0000 
     19 O4         47.0740  -17.7300  -28.2710 O.co2     1 YNC501      0.0000 
     20 C5         42.5760  -17.6900  -25.5420 C.3       1 YNC501      0.0000 
     21 N5         36.1120  -11.6610  -22.4670 N.am      1 YNC501      0.0000 
     22 O5         44.7060  -14.6240  -23.7850 O.3       1 YNC501      0.0000 
     23 C6         43.0010  -17.1730  -26.9110 C.3       1 YNC501      0.0000 
     24 N6         34.3990  -14.9100  -21.1720 N.am      1 YNC501      0.0000 
     25 O6         44.5870  -12.9790  -21.9210 O.co2     1 YNC501      0.0000 
     26 C7         44.4990  -17.0190  -26.6800 C.3       1 YNC501      0.0000 
     27 O7         43.1340  -12.7420  -23.9480 O.3       1 YNC501      0.0000 
     28 C8         44.5840  -16.5310  -25.2390 C.3       1 YNC501      0.0000 
     29 O8         41.0380  -11.5180  -24.5440 O.co2     1 YNC501      0.0000 
     30 C9         44.6530  -15.0280  -25.1610 C.3       1 YNC501      0.0000 
     31 O9         41.2810  -12.7680  -22.3190 O.3       1 YNC501      0.0000 
     32 C10        40.2720  -13.7060  -22.7170 C.3       1 YNC501      0.0000 
     33 O10        34.1200  -18.7360  -19.3130 O.2       1 YNC501      0.0000 
     34 C11        38.9860  -13.4310  -21.9500 C.3       1 YNC501      0.0000 
     35 O11        34.0200  -13.9430  -23.1650 O.2       1 YNC501      0.0000 
     36 C12        37.9180  -14.4340  -22.4020 C.3       1 YNC501      0.0000 
     37 O12        37.0130  -11.5290  -20.4020 O.2       1 YNC501      0.0000 
     38 C13        39.2640  -13.5940  -20.4500 C.3       1 YNC501      0.0000 
     39 O13        38.4560  -11.7540  -23.6100 O.3       1 YNC501      0.0000 
     40 C14        38.4980  -11.9850  -22.2190 C.3       1 YNC501      0.0000 
     41 O14        42.5860  -10.6150  -22.6720 O.co2     1 YNC501      0.0000 
     42 C15        37.1360  -11.7030  -21.6150 C.2       1 YNC501      0.0000 
     43 O15        45.5930  -12.2590  -24.1660 O.co2     1 YNC501      0.0000 
     44 C16        34.7510  -11.3660  -22.0400 C.3       1 YNC501      0.0000 
     45 O16        43.3640  -16.9810  -24.6020 O.3       1 YNC501      0.0000 
     46 C17        34.1400  -12.5140  -21.2350 C.3       1 YNC501      0.0000 
     47 C18        34.2020  -13.8470  -21.9520 C.2       1 YNC501      0.0000 
     48 C19        34.3260  -16.2800  -21.6700 C.3       1 YNC501      0.0000 
     49 C20        33.0280  -17.0000  -21.3360 C.3       1 YNC501      0.0000 
     50 C21        34.0940  -19.3560  -20.3400 C.2       1 YNC501      0.0000 
     51 C22        34.5980  -20.7670  -20.4740 C.3       1 YNC501      0.0000 
     52 C23        36.1120  -20.5260  -20.4020 C.3       1 YNC501      0.0000 
     53 C24        36.9490  -21.7920  -20.5700 C.3       1 YNC501      0.0000 
     54 C25        38.4550  -21.5850  -20.3590 C.3       1 YNC501      0.0000 
     55 C26        39.3100  -22.8230  -20.6680 C.3       1 YNC501      0.0000 
     56 C27        39.1830  -23.9490  -19.6280 C.3       1 YNC501      0.0000 
     57 C28        39.9890  -25.2020  -19.9830 C.3       1 YNC501      0.0000 
     58 C29        39.9410  -26.2950  -18.9140 C.3       1 YNC501      0.0000 
     59 C30        40.7520  -25.9480  -17.6620 C.3       1 YNC501      0.0000 
     60 C31        40.6420  -26.9960  -16.5520 C.3       1 YNC501      0.0000 
     61 C32        41.2490  -28.3610  -16.9170 C.3       1 YNC501      0.0000 
     62 C33        41.1650  -29.3670  -15.7840 C.1       1 YNC501      0.0000 
     63 C34        41.6490  -30.7670  -16.1740 C.1       1 YNC501      0.0000 
@<TRIPOS>BOND
     1    1    2 1    
     2    1    7 ar   
     3    1   14 ar   
     4    3   23 1    
     5    4    8 1    
     6    4   12 ar   
     7    4   16 ar   
     8    4   19 ar   
     9    5   49 1    
    10    5   50 1    
    11    6    7 ar   
    12    6   11 ar   
    13    8   26 1    
    14    9   22 1    
    15    9   25 ar   
    16    9   27 1    
    17    9   43 ar   
    18   10   11 ar   
    19   10   14 ar   
    20   10   18 1    
    21   13   27 1    
    22   13   29 ar   
    23   13   31 1    
    24   13   41 ar   
    25   14   15 1    
    26   15   17 2    
    27   17   18 1    
    28   18   20 1    
    29   20   23 1    
    30   20   45 1    
    31   21   42 am   
    32   21   44 1    
    33   22   30 1    
    34   23   26 1    
    35   24   47 am   
    36   24   48 1    
    37   26   28 1    
    38   28   30 1    
    39   28   45 1    
    40   31   32 1    
    41   32   34 1    
    42   33   50 2    
    43   34   36 1    
    44   34   38 1    
    45   34   40 1    
    46   35   47 2    
    47   37   42 2    
    48   39   40 1    
    49   40   42 1    
    50   44   46 1    
    51   46   47 1    
    52   48   49 1    
    53   50   51 1    
    54   51   52 1    
    55   52   53 1    
    56   53   54 1    
    57   54   55 1    
    58   55   56 1    
    59   56   57 1    
    60   57   58 1    
    61   58   59 1    
    62   59   60 1    
    63   60   61 1    
    64   61   62 1    
    65   62   63 3    
@<TRIPOS>SUBSTRUCTURE
     1 YNC501      1 GROUP   
@<TRIPOS>SET

