#    Name: 6mb0_2_YNC
#    Modification time : Fri May 22 19:32:54 2020

@<TRIPOS>MOLECULE
6mb0_2_YNC
   63    65     1     0     0
SMALL
NO_CHARGES


@<TRIPOS>ATOM
      1 C           1.6270  -38.1850  -55.1780 C.ar      1 YNC502      0.0000 
      2 N           2.8560  -38.1020  -55.6910 N.pl3     1 YNC502      0.0000 
      3 O          -3.0230  -34.4730  -53.5850 O.3       1 YNC502      0.0000 
      4 P          -6.2740  -34.5670  -52.9990 P.3       1 YNC502      0.0000 
      5 S           6.3560  -40.2290  -55.7350 S.3       1 YNC502      0.0000 
      6 C1          0.1370  -39.2610  -53.7670 C.ar      1 YNC502      0.0000 
      7 N1          1.3600  -39.1790  -54.2990 N.ar      1 YNC502      0.0000 
      8 O1         -5.5050  -35.5760  -53.9700 O.3       1 YNC502      0.0000 
      9 P1         -4.9280  -36.2410  -60.1010 P.3       1 YNC502      0.0000 
     10 C2         -0.6350  -37.5150  -54.8750 C.ar      1 YNC502      0.0000 
     11 N2         -0.9210  -38.4740  -53.9820 N.ar      1 YNC502      0.0000 
     12 O2         -6.7190  -35.3730  -51.8070 O.co2     1 YNC502      0.0000 
     13 P2         -2.2830  -35.7180  -61.2170 P.3       1 YNC502      0.0000 
     14 C3          0.5810  -37.3060  -55.4990 C.ar      1 YNC502      0.0000 
     15 N3          0.5000  -36.2230  -56.3740 N.2       1 YNC502      0.0000 
     16 O3         -5.2530  -33.5010  -52.6190 O.co2     1 YNC502      0.0000 
     17 C4         -0.7410  -35.8220  -56.2510 C.2       1 YNC502      0.0000 
     18 N4         -1.4880  -36.5590  -55.3650 N.pl3     1 YNC502      0.0000 
     19 O4         -7.4040  -33.9610  -53.7910 O.co2     1 YNC502      0.0000 
     20 C5         -2.8930  -36.3930  -55.0320 C.3       1 YNC502      0.0000 
     21 N5          3.5720  -36.4830  -61.8260 N.am      1 YNC502      0.0000 
     22 O5         -5.0760  -36.6060  -58.5720 O.3       1 YNC502      0.0000 
     23 C6         -3.3240  -34.9410  -54.8940 C.3       1 YNC502      0.0000 
     24 N6          5.3090  -39.0920  -59.4330 N.am      1 YNC502      0.0000 
     25 O6         -4.8980  -37.5320  -60.8710 O.co2     1 YNC502      0.0000 
     26 C7         -4.8190  -35.0860  -55.1430 C.3       1 YNC502      0.0000 
     27 O7         -3.4800  -35.5940  -60.1840 O.3       1 YNC502      0.0000 
     28 C8         -4.8940  -36.1610  -56.2220 C.3       1 YNC502      0.0000 
     29 O8         -1.3420  -34.5980  -60.9460 O.co2     1 YNC502      0.0000 
     30 C9         -4.9450  -35.5610  -57.5990 C.3       1 YNC502      0.0000 
     31 O9         -1.6050  -37.1050  -60.8320 O.3       1 YNC502      0.0000 
     32 C10        -0.5730  -37.1500  -59.8340 C.3       1 YNC502      0.0000 
     33 O10         5.5950  -42.4520  -56.8810 O.2       1 YNC502      0.0000 
     34 C11         0.6940  -37.7420  -60.4340 C.3       1 YNC502      0.0000 
     35 O11         5.6350  -36.8680  -59.4460 O.2       1 YNC502      0.0000 
     36 C12         1.7780  -37.8060  -59.3480 C.3       1 YNC502      0.0000 
     37 O12         2.6740  -38.2990  -62.8390 O.2       1 YNC502      0.0000 
     38 C13         0.3740  -39.1620  -60.9180 C.3       1 YNC502      0.0000 
     39 O13         1.2160  -35.5050  -61.2660 O.3       1 YNC502      0.0000 
     40 C14         1.1870  -36.8780  -61.6230 C.3       1 YNC502      0.0000 
     41 O14        -2.8240  -35.8850  -62.6250 O.co2     1 YNC502      0.0000 
     42 C15         2.5520  -37.2880  -62.1480 C.2       1 YNC502      0.0000 
     43 O15        -5.8930  -35.1840  -60.5070 O.co2     1 YNC502      0.0000 
     44 C16         4.9490  -36.7370  -62.2260 C.3       1 YNC502      0.0000 
     45 O16        -3.6760  -36.9350  -56.0810 O.3       1 YNC502      0.0000 
     46 C17         5.5210  -37.9850  -61.5640 C.3       1 YNC502      0.0000 
     47 C18         5.4820  -37.9250  -60.0520 C.2       1 YNC502      0.0000 
     48 C19         5.3920  -39.2390  -57.9860 C.3       1 YNC502      0.0000 
     49 C20         6.6870  -39.8620  -57.4880 C.3       1 YNC502      0.0000 
     50 C21         5.5850  -41.8090  -55.8670 C.2       1 YNC502      0.0000 
     51 C22         5.0520  -42.3220  -54.5570 C.3       1 YNC502      0.0000 
     52 C23         3.5310  -42.3370  -54.7660 C.3       1 YNC502      0.0000 
     53 C24         2.7170  -42.6720  -53.5210 C.3       1 YNC502      0.0000 
     54 C25         1.2150  -42.8200  -53.8000 C.3       1 YNC502      0.0000 
     55 C26         0.3710  -43.0640  -52.5590 C.3       1 YNC502      0.0000 
     56 C27         0.5050  -44.4680  -51.9900 C.3       1 YNC502      0.0000 
     57 C28        -0.3290  -44.6880  -50.7440 C.3       1 YNC502      0.0000 
     58 C29        -0.2580  -46.1160  -50.2160 C.3       1 YNC502      0.0000 
     59 C30        -1.0270  -47.1010  -51.0830 C.3       1 YNC502      0.0000 
     60 C31        -0.9630  -48.5590  -50.6180 C.3       1 YNC502      0.0000 
     61 C32        -1.6060  -48.8260  -49.2560 C.3       1 YNC502      0.0000 
     62 C33        -1.5720  -50.3070  -48.8830 C.1       1 YNC502      0.0000 
     63 C34        -2.0660  -50.5750  -47.4810 C.1       1 YNC502      0.0000 
@<TRIPOS>BOND
     1    1    2 1    
     2    1    7 ar   
     3    1   14 ar   
     4    3   23 1    
     5    4    8 1    
     6    4   12 ar   
     7    4   16 ar   
     8    4   19 ar   
     9    5   49 1    
    10    5   50 1    
    11    6    7 ar   
    12    6   11 ar   
    13    8   26 1    
    14    9   22 1    
    15    9   25 ar   
    16    9   27 1    
    17    9   43 ar   
    18   10   11 ar   
    19   10   14 ar   
    20   10   18 1    
    21   13   27 1    
    22   13   29 ar   
    23   13   31 1    
    24   13   41 ar   
    25   14   15 1    
    26   15   17 2    
    27   17   18 1    
    28   18   20 1    
    29   20   23 1    
    30   20   45 1    
    31   21   42 am   
    32   21   44 1    
    33   22   30 1    
    34   23   26 1    
    35   24   47 am   
    36   24   48 1    
    37   26   28 1    
    38   28   30 1    
    39   28   45 1    
    40   31   32 1    
    41   32   34 1    
    42   33   50 2    
    43   34   36 1    
    44   34   38 1    
    45   34   40 1    
    46   35   47 2    
    47   37   42 2    
    48   39   40 1    
    49   40   42 1    
    50   44   46 1    
    51   46   47 1    
    52   48   49 1    
    53   50   51 1    
    54   51   52 1    
    55   52   53 1    
    56   53   54 1    
    57   54   55 1    
    58   55   56 1    
    59   56   57 1    
    60   57   58 1    
    61   58   59 1    
    62   59   60 1    
    63   60   61 1    
    64   61   62 1    
    65   62   63 3    
@<TRIPOS>SUBSTRUCTURE
     1 YNC502      1 GROUP   
@<TRIPOS>SET

