#    Name: 6mb0_3_YNC
#    Modification time : Fri May 22 19:33:01 2020

@<TRIPOS>MOLECULE
6mb0_3_YNC
   63    65     1     0     0
SMALL
NO_CHARGES


@<TRIPOS>ATOM
      1 C          16.6360  -70.6500   -2.2750 C.ar      1 YNC501      0.0000 
      2 N          15.4170  -71.0950   -1.9450 N.pl3     1 YNC501      0.0000 
      3 O          21.2730  -67.4290    0.1960 O.3       1 YNC501      0.0000 
      4 P          24.5390  -66.9800   -0.2410 P.3       1 YNC501      0.0000 
      5 S          11.9780  -72.1950   -3.8110 S.3       1 YNC501      0.0000 
      6 C1         18.1050  -69.9240   -3.9110 C.ar      1 YNC501      0.0000 
      7 N1         16.8800  -70.3360   -3.5680 N.ar      1 YNC501      0.0000 
      8 O1         23.7690  -68.3210   -0.6180 O.3       1 YNC501      0.0000 
      9 P1         23.2420  -73.9990    1.7890 P.3       1 YNC501      0.0000 
     10 C2         18.9130  -70.0860   -1.8650 C.ar      1 YNC501      0.0000 
     11 N2         19.1790  -69.7640   -3.1370 N.ar      1 YNC501      0.0000 
     12 O2         24.9320  -66.2900   -1.5290 O.co2     1 YNC501      0.0000 
     13 P2         20.6090  -74.7470    2.7850 P.3       1 YNC501      0.0000 
     14 C3         17.6970  -70.5240   -1.3660 C.ar      1 YNC501      0.0000 
     15 N3         17.7970  -70.7660    0.0020 N.2       1 YNC501      0.0000 
     16 O3         23.4830  -66.1380    0.4910 O.co2     1 YNC501      0.0000 
     17 C4         19.0450  -70.4810    0.2790 C.2       1 YNC501      0.0000 
     18 N4         19.7780  -70.0600   -0.8040 N.pl3     1 YNC501      0.0000 
     19 O4         25.6820  -67.3250    0.6810 O.co2     1 YNC501      0.0000 
     20 C5         21.1750  -69.6540   -0.8170 C.3       1 YNC501      0.0000 
     21 N5         14.7380  -75.7380    2.3700 N.am      1 YNC501      0.0000 
     22 O5         23.3220  -72.8060    0.7360 O.3       1 YNC501      0.0000 
     23 C6         21.5780  -68.8110    0.3880 C.3       1 YNC501      0.0000 
     24 N6         13.0230  -74.9090   -1.0500 N.am      1 YNC501      0.0000 
     25 O6         23.1930  -75.2680    0.9620 O.co2     1 YNC501      0.0000 
     26 C7         23.0800  -69.0720    0.4020 C.3       1 YNC501      0.0000 
     27 O7         21.7950  -73.7690    2.3970 O.3       1 YNC501      0.0000 
     28 C8         23.1790  -70.5380    0.0040 C.3       1 YNC501      0.0000 
     29 O8         19.6660  -73.9650    3.6500 O.co2     1 YNC501      0.0000 
     30 C9         23.2550  -71.4470    1.2010 C.3       1 YNC501      0.0000 
     31 O9         19.9010  -75.0970    1.3850 O.3       1 YNC501      0.0000 
     32 C10        18.8710  -74.2530    0.8420 C.3       1 YNC501      0.0000 
     33 O10        12.7360  -74.2570   -5.2160 O.2       1 YNC501      0.0000 
     34 C11        17.6050  -75.0670    0.6140 C.3       1 YNC501      0.0000 
     35 O11        12.6770  -73.8620    0.9180 O.2       1 YNC501      0.0000 
     36 C12        16.5220  -74.1390    0.0500 C.3       1 YNC501      0.0000 
     37 O12        15.7010  -77.4960    1.3260 O.2       1 YNC501      0.0000 
     38 C13        17.9160  -76.1820   -0.3950 C.3       1 YNC501      0.0000 
     39 O13        17.0550  -74.7020    2.9660 O.3       1 YNC501      0.0000 
     40 C14        17.1220  -75.6880    1.9510 C.3       1 YNC501      0.0000 
     41 O14        21.2080  -75.9830    3.3390 O.co2     1 YNC501      0.0000 
     42 C15        15.7830  -76.3900    1.8530 C.2       1 YNC501      0.0000 
     43 O15        24.2680  -73.8580    2.8520 O.co2     1 YNC501      0.0000 
     44 C16        13.3820  -76.2690    2.3310 C.3       1 YNC501      0.0000 
     45 O16        21.9750  -70.8190   -0.7530 O.3       1 YNC501      0.0000 
     46 C17        12.8130  -76.2620    0.9210 C.3       1 YNC501      0.0000 
     47 C18        12.8470  -74.8970    0.2700 C.2       1 YNC501      0.0000 
     48 C19        12.9560  -73.7200   -1.8880 C.3       1 YNC501      0.0000 
     49 C20        11.6610  -73.5740   -2.6690 C.3       1 YNC501      0.0000 
     50 C21        12.7330  -73.0600   -5.1440 C.2       1 YNC501      0.0000 
     51 C22        13.2530  -72.1540   -6.2280 C.3       1 YNC501      0.0000 
     52 C23        14.7750  -72.3390   -6.1090 C.3       1 YNC501      0.0000 
     53 C24        15.6000  -71.4940   -7.0850 C.3       1 YNC501      0.0000 
     54 C25        17.1170  -71.6930   -6.9640 C.3       1 YNC501      0.0000 
     55 C26        17.9390  -70.7230   -7.8200 C.3       1 YNC501      0.0000 
     56 C27        17.8430  -70.9900   -9.3290 C.3       1 YNC501      0.0000 
     57 C28        18.6510  -69.9910  -10.1720 C.3       1 YNC501      0.0000 
     58 C29        18.6020  -70.2570  -11.6780 C.3       1 YNC501      0.0000 
     59 C30        19.3660  -71.5240  -12.1090 C.3       1 YNC501      0.0000 
     60 C31        19.3000  -71.8270  -13.6020 C.3       1 YNC501      0.0000 
     61 C32        19.9320  -70.7570  -14.4910 C.3       1 YNC501      0.0000 
     62 C33        19.8970  -71.1110  -15.9740 C.1       1 YNC501      0.0000 
     63 C34        20.3830  -69.9560  -16.8580 C.1       1 YNC501      0.0000 
@<TRIPOS>BOND
     1    1    2 1    
     2    1    7 ar   
     3    1   14 ar   
     4    3   23 1    
     5    4    8 1    
     6    4   12 ar   
     7    4   16 ar   
     8    4   19 ar   
     9    5   49 1    
    10    5   50 1    
    11    6    7 ar   
    12    6   11 ar   
    13    8   26 1    
    14    9   22 1    
    15    9   25 ar   
    16    9   27 1    
    17    9   43 ar   
    18   10   11 ar   
    19   10   14 ar   
    20   10   18 1    
    21   13   27 1    
    22   13   29 ar   
    23   13   31 1    
    24   13   41 ar   
    25   14   15 1    
    26   15   17 2    
    27   17   18 1    
    28   18   20 1    
    29   20   23 1    
    30   20   45 1    
    31   21   42 am   
    32   21   44 1    
    33   22   30 1    
    34   23   26 1    
    35   24   47 am   
    36   24   48 1    
    37   26   28 1    
    38   28   30 1    
    39   28   45 1    
    40   31   32 1    
    41   32   34 1    
    42   33   50 2    
    43   34   36 1    
    44   34   38 1    
    45   34   40 1    
    46   35   47 2    
    47   37   42 2    
    48   39   40 1    
    49   40   42 1    
    50   44   46 1    
    51   46   47 1    
    52   48   49 1    
    53   50   51 1    
    54   51   52 1    
    55   52   53 1    
    56   53   54 1    
    57   54   55 1    
    58   55   56 1    
    59   56   57 1    
    60   57   58 1    
    61   58   59 1    
    62   59   60 1    
    63   60   61 1    
    64   61   62 1    
    65   62   63 3    
@<TRIPOS>SUBSTRUCTURE
     1 YNC501      1 GROUP   
@<TRIPOS>SET

