#    Name: 5y0q_1_APC_CAVITY_N1_4
#    Modification time : Fri May 22 19:21:19 2020

@<TRIPOS>MOLECULE
5y0q_1_APC_CAVITY_N1_4
  126     0     7     0     0
SMALL
NO_CHARGES


@<TRIPOS>ATOM
      1 OG         19.2500    0.5800  -63.9500 O.3       1 SER1        0.0000 
      2 OG         18.3500    0.0200  -62.1100 O.3       1 SER1        0.0000 
      3 OG         19.5100   -0.9000  -60.6000 O.3       1 SER1        0.0000 
      4 OG         18.8900   -1.1800  -57.3200 O.3       1 SER1        0.0000 
      5 OG         18.3000    2.0800  -57.8400 O.3       1 SER1        0.0000 
      6 OG         19.1700   -0.9000  -55.8700 O.3       1 SER1        0.0000 
      7 OG         17.6900    3.5700  -56.4600 O.3       1 SER1        0.0000 
      8 OG         18.5700    2.3600  -56.3900 O.3       1 SER1        0.0000 
      9 OG         19.4600    1.1500  -56.3300 O.3       1 SER1        0.0000 
     10 OG         19.7400    1.4300  -54.8800 O.3       1 SER1        0.0000 
     11 OG         20.6000    5.8200  -54.3500 O.3       1 SER1        0.0000 
     12 OG         21.4800    4.6100  -54.2800 O.3       1 SER1        0.0000 
     13 OG         21.7700    6.6600  -54.7400 O.3       1 SER1        0.0000 
     14 OG         20.5900    4.0500  -52.4400 O.3       1 SER1        0.0000 
     15 OG         21.7600    4.8900  -52.8300 O.3       1 SER1        0.0000 
     16 OG         22.9400    5.7400  -53.2200 O.3       1 SER1        0.0000 
     17 OG         20.8600    4.3300  -51.0000 O.3       1 SER1        0.0000 
     18 OG         22.9300    3.9700  -51.3200 O.3       1 SER1        0.0000 
     19 OG         23.2200    6.0200  -51.7800 O.3       1 SER1        0.0000 
     20 OG         24.1000    4.8100  -51.7100 O.3       1 SER1        0.0000 
     21 N          17.4600    1.2300  -62.1800 N.am      2 ALA2        0.0000 
     22 N          16.5600    0.6700  -60.3400 N.am      2 ALA2        0.0000 
     23 N          16.8500    2.7200  -60.8000 N.am      2 ALA2        0.0000 
     24 N          17.7400    1.5100  -60.7300 N.am      2 ALA2        0.0000 
     25 N          17.1400    4.7700  -61.2500 N.am      2 ALA2        0.0000 
     26 O          21.5800   -1.2700  -60.9300 O.2       2 ALA2        0.0000 
     27 N          18.3200    5.6100  -61.6500 N.am      2 ALA2        0.0000 
     28 N          19.5000   -2.6700  -58.7000 N.am      2 ALA2        0.0000 
     29 N          20.6800   -1.8300  -59.0900 N.am      2 ALA2        0.0000 
     30 N          16.5300    6.2600  -59.8700 N.am      2 ALA2        0.0000 
     31 N          17.7100    7.1000  -60.2600 N.am      2 ALA2        0.0000 
     32 N          18.6000    5.9000  -60.2000 N.am      2 ALA2        0.0000 
     33 N          19.7800   -2.3900  -57.2500 N.am      2 ALA2        0.0000 
     34 N          20.9600   -1.5500  -57.6400 N.am      2 ALA2        0.0000 
     35 O          21.2500    0.5000  -58.1000 O.2       2 ALA2        0.0000 
     36 O          20.0600   -2.1100  -55.8100 O.2       2 ALA2        0.0000 
     37 O          21.2400   -1.2700  -56.2000 O.2       2 ALA2        0.0000 
     38 N          22.1200   -2.4700  -56.1300 N.am      2 ALA2        0.0000 
     39 O          17.9800    5.6200  -56.9100 O.2       2 ALA2        0.0000 
     40 O          18.8600    4.4100  -56.8500 O.2       2 ALA2        0.0000 
     41 O          21.5300    0.7900  -56.6500 O.2       2 ALA2        0.0000 
     42 O          19.4500   -0.6200  -54.4200 O.2       2 ALA2        0.0000 
     43 O          20.3400   -1.8300  -54.3600 O.2       2 ALA2        0.0000 
     44 O          21.8000    1.0700  -55.2100 O.2       2 ALA2        0.0000 
     45 O          20.3200    5.5400  -55.7900 O.2       2 ALA2        0.0000 
     46 N          22.0900    3.1200  -55.6600 N.am      2 ALA2        0.0000 
     47 O          22.9800    1.9100  -55.6000 O.2       2 ALA2        0.0000 
     48 N          23.2700    3.9600  -56.0500 N.am      2 ALA2        0.0000 
     49 N          23.5500    4.2500  -54.6100 N.am      2 ALA2        0.0000 
     50 OD1        20.7000    1.7100  -62.9000 O.co2     3 ASP3        0.0000 
     51 OD1        18.6300    0.3000  -60.6700 O.co2     3 ASP3        0.0000 
     52 OD1        18.0300    3.5600  -61.1900 O.co2     3 ASP3        0.0000 
     53 OD1        18.9200    2.3500  -61.1200 O.co2     3 ASP3        0.0000 
     54 OD1        19.8000    1.1500  -61.0600 O.co2     3 ASP3        0.0000 
     55 OD1        20.6900   -0.0600  -60.9900 O.co2     3 ASP3        0.0000 
     56 OD1        18.0200    1.7900  -59.2900 O.co2     3 ASP3        0.0000 
     57 OD1        18.9100    0.5900  -59.2200 O.co2     3 ASP3        0.0000 
     58 OD1        19.7900   -0.6200  -59.1600 O.co2     3 ASP3        0.0000 
     59 OD1        18.3100    3.8400  -59.7400 O.co2     3 ASP3        0.0000 
     60 OD1        20.9700    0.2200  -59.5500 O.co2     3 ASP3        0.0000 
     61 OD1        19.4900    4.6900  -60.1300 O.co2     3 ASP3        0.0000 
     62 OD1        19.1800    0.8700  -57.7700 O.co2     3 ASP3        0.0000 
     63 OD1        20.0700   -0.3400  -57.7100 O.co2     3 ASP3        0.0000 
     64 OD1        18.5900    4.1300  -58.3000 O.co2     3 ASP3        0.0000 
     65 OD1        18.8800    6.1800  -58.7500 O.co2     3 ASP3        0.0000 
     66 OD1        19.7600    4.9700  -58.6900 O.co2     3 ASP3        0.0000 
     67 OD1        20.0500    7.0200  -59.1400 O.co2     3 ASP3        0.0000 
     68 OD1        19.7500    3.2000  -56.7800 O.co2     3 ASP3        0.0000 
     69 OD1        20.6400    1.9900  -56.7200 O.co2     3 ASP3        0.0000 
     70 OD1        20.0400    5.2500  -57.2400 O.co2     3 ASP3        0.0000 
     71 OD1        20.9300    4.0400  -57.1700 O.co2     3 ASP3        0.0000 
     72 OD1        21.8200    2.8400  -57.1100 O.co2     3 ASP3        0.0000 
     73 OD1        22.6900   -0.1400  -55.1400 O.co2     3 ASP3        0.0000 
     74 OD1        21.2100    4.3300  -55.7300 O.co2     3 ASP3        0.0000 
     75 OD1        21.5000    6.3800  -56.1800 O.co2     3 ASP3        0.0000 
     76 OD1        22.3800    5.1700  -56.1200 O.co2     3 ASP3        0.0000 
     77 OD1        22.0800    1.3500  -53.7600 O.co2     3 ASP3        0.0000 
     78 OD1        23.2600    2.1900  -54.1500 O.co2     3 ASP3        0.0000 
     79 OD1        19.4100    3.2000  -52.0500 O.co2     3 ASP3        0.0000 
     80 OD1        20.2900    2.0000  -51.9900 O.co2     3 ASP3        0.0000 
     81 OD1        22.3600    1.6300  -52.3100 O.co2     3 ASP3        0.0000 
     82 OD1        23.5400    2.4800  -52.7000 O.co2     3 ASP3        0.0000 
     83 OD1        23.8300    4.5300  -53.1600 O.co2     3 ASP3        0.0000 
     84 OD1        24.7100    3.3200  -53.0900 O.co2     3 ASP3        0.0000 
     85 OD1        21.7500    3.1200  -50.9300 O.co2     3 ASP3        0.0000 
     86 NZ         20.9000    0.5100  -53.3700 N.4       4 LYS4        0.0000 
     87 CZ         18.0800    1.5100  -65.4600 C.ar      5 PHE5        0.0000 
     88 CZ         17.4500   -0.5400  -60.2800 C.ar      5 PHE5        0.0000 
     89 CZ         18.3400   -1.7500  -60.2100 C.ar      5 PHE5        0.0000 
     90 CZ         20.4000   -2.1100  -60.5400 C.ar      5 PHE5        0.0000 
     91 CZ         17.4400   -2.3100  -58.3700 C.ar      5 PHE5        0.0000 
     92 CZ         17.7300   -0.2600  -58.8300 C.ar      5 PHE5        0.0000 
     93 CZ         18.6100   -1.4700  -58.7600 C.ar      5 PHE5        0.0000 
     94 CZ         17.1300    3.0000  -59.3500 C.ar      5 PHE5        0.0000 
     95 CZ         17.4200    5.0500  -59.8100 C.ar      5 PHE5        0.0000 
     96 CZ         17.7200   -2.0300  -56.9300 C.ar      5 PHE5        0.0000 
     97 CZ         17.4100    3.2800  -57.9000 C.ar      5 PHE5        0.0000 
     98 CZ         17.7000    5.3300  -58.3600 C.ar      5 PHE5        0.0000 
     99 CA         17.1800    0.9500  -63.6300 C.3       6 GLY6        0.0000 
    100 CA         18.3600    1.7900  -64.0200 C.3       6 GLY6        0.0000 
    101 CA         17.7500    3.2800  -62.6400 C.3       6 GLY6        0.0000 
    102 CA         18.6400    2.0700  -62.5700 C.3       6 GLY6        0.0000 
    103 CA         19.5300    0.8600  -62.5100 C.3       6 GLY6        0.0000 
    104 CA         20.4100   -0.3400  -62.4400 C.3       6 GLY6        0.0000 
    105 CA         15.9700    3.9300  -60.8600 C.3       6 GLY6        0.0000 
    106 CA         19.2100    4.4100  -61.5800 C.3       6 GLY6        0.0000 
    107 CA         19.5000    6.4600  -62.0400 C.3       6 GLY6        0.0000 
    108 CA         20.9400   -3.3200  -55.7400 C.3       6 GLY6        0.0000 
    109 CA         23.3000   -1.6300  -56.5200 C.3       6 GLY6        0.0000 
    110 CA         19.1500    6.4600  -57.3000 C.3       6 GLY6        0.0000 
    111 CA         20.3300    7.3000  -57.7000 C.3       6 GLY6        0.0000 
    112 CA         18.8500    2.6400  -54.9500 C.3       6 GLY6        0.0000 
    113 CA         21.5100   -0.9800  -54.7500 C.3       6 GLY6        0.0000 
    114 CA         22.4000   -2.1900  -54.6900 C.3       6 GLY6        0.0000 
    115 CA         19.1400    4.6900  -55.4000 C.3       6 GLY6        0.0000 
    116 CA         20.0300    3.4800  -55.3400 C.3       6 GLY6        0.0000 
    117 CA         20.3100    3.7700  -53.8900 C.3       6 GLY6        0.0000 
    118 CA         24.7300    5.0900  -55.0000 C.3       6 GLY6        0.0000 
    119 DU         20.3500   -0.0600  -56.2600 H         7 CUB7        0.0000 
    120 DU         20.6300    0.2200  -54.8200 H         7 CUB7        0.0000 
    121 DU         20.9200    2.2800  -55.2700 H         7 CUB7        0.0000 
    122 DU         21.1900    2.5600  -53.8200 H         7 CUB7        0.0000 
    123 DU         22.3700    3.4000  -54.2200 H         7 CUB7        0.0000 
    124 DU         22.6600    5.4500  -54.6700 H         7 CUB7        0.0000 
    125 DU         21.4700    2.8400  -52.3800 H         7 CUB7        0.0000 
    126 DU         22.6500    3.6800  -52.7700 H         7 CUB7        0.0000 
@<TRIPOS>BOND
@<TRIPOS>SUBSTRUCTURE
     1 SER1        1 GROUP   
     2 ALA2       21 GROUP   
     3 ASP3       50 GROUP   
     4 LYS4       86 GROUP   
     5 PHE5       87 GROUP   
     6 GLY6       99 GROUP   
     7 CUB7      119 GROUP   
@<TRIPOS>SET

