#    Name: 5y0q_2_APC
#    Modification time : Fri May 22 19:21:22 2020

@<TRIPOS>MOLECULE
5y0q_2_APC
   31    33     1     0     0
SMALL
NO_CHARGES


@<TRIPOS>ATOM
      1 PG         12.4350   -3.4180    3.5900 P.3       1 APC1001     0.0000 
      2 O1G        11.2280   -3.1280    2.7350 O.co2     1 APC1001     0.0000 
      3 O2G        12.7990   -2.3020    4.5390 O.co2     1 APC1001     0.0000 
      4 O3G        12.4580   -4.7920    4.2180 O.co2     1 APC1001     0.0000 
      5 PB         15.0880   -3.9490    3.0050 P.3       1 APC1001     0.0000 
      6 O1B        15.3830   -5.3260    2.4630 O.co2     1 APC1001     0.0000 
      7 O2B        15.1380   -3.7320    4.4930 O.co2     1 APC1001     0.0000 
      8 O3B        13.6390   -3.4630    2.5210 O.3       1 APC1001     0.0000 
      9 PA         17.8310   -2.8480    2.7850 P.3       1 APC1001     0.0000 
     10 O1A        18.4320   -4.1600    2.3520 O.co2     1 APC1001     0.0000 
     11 O2A        18.5030   -1.5260    2.5120 O.co2     1 APC1001     0.0000 
     12 C3A        16.1250   -2.7120    2.1710 C.3       1 APC1001     0.0000 
     13 O5'        17.6950   -2.9290    4.3890 O.3       1 APC1001     0.0000 
     14 C5'        18.8080   -2.6140    5.2310 C.3       1 APC1001     0.0000 
     15 C4'        18.5930   -3.1820    6.6300 C.3       1 APC1001     0.0000 
     16 O4'        17.7150   -2.3320    7.3700 O.3       1 APC1001     0.0000 
     17 C3'        17.9590   -4.5640    6.5460 C.3       1 APC1001     0.0000 
     18 O3'        18.7150   -5.5050    7.3170 O.3       1 APC1001     0.0000 
     19 C2'        16.5830   -4.4010    7.1460 C.3       1 APC1001     0.0000 
     20 O2'        16.2410   -5.5360    7.9450 O.3       1 APC1001     0.0000 
     21 C1'        16.7160   -3.1450    7.9780 C.3       1 APC1001     0.0000 
     22 N9         15.4630   -2.3770    8.0150 N.pl3     1 APC1001     0.0000 
     23 C8         14.9340   -1.6580    7.0130 C.2       1 APC1001     0.0000 
     24 N7         13.7710   -1.0740    7.4060 N.2       1 APC1001     0.0000 
     25 C5         13.5530   -1.4170    8.6900 C.ar      1 APC1001     0.0000 
     26 C6         12.5230   -1.1460    9.7230 C.ar      1 APC1001     0.0000 
     27 N6         11.4470   -0.3650    9.4590 N.pl3     1 APC1001     0.0000 
     28 N1         12.6960   -1.7100   10.9400 N.ar      1 APC1001     0.0000 
     29 C2         13.7520   -2.4950   11.2250 C.ar      1 APC1001     0.0000 
     30 N3         14.7190   -2.7810   10.3400 N.ar      1 APC1001     0.0000 
     31 C4         14.6760   -2.2790    9.0830 C.ar      1 APC1001     0.0000 
@<TRIPOS>BOND
     1    1    2 ar   
     2    1    3 ar   
     3    1    4 ar   
     4    1    8 1    
     5    5    6 ar   
     6    5    7 ar   
     7    5    8 1    
     8    5   12 1    
     9    9   10 ar   
    10    9   11 ar   
    11    9   12 1    
    12    9   13 1    
    13   13   14 1    
    14   14   15 1    
    15   15   16 1    
    16   15   17 1    
    17   16   21 1    
    18   17   18 1    
    19   17   19 1    
    20   19   20 1    
    21   19   21 1    
    22   21   22 1    
    23   22   23 1    
    24   22   31 1    
    25   23   24 2    
    26   24   25 1    
    27   25   26 ar   
    28   25   31 ar   
    29   26   27 1    
    30   26   28 ar   
    31   28   29 ar   
    32   29   30 ar   
    33   30   31 ar   
@<TRIPOS>SUBSTRUCTURE
     1 APC1001     1 GROUP   
@<TRIPOS>SET

