#    Name: 5y0q_1_APC
#    Modification time : Fri May 22 19:21:18 2020

@<TRIPOS>MOLECULE
5y0q_1_APC
   31    33     1     0     0
SMALL
NO_CHARGES


@<TRIPOS>ATOM
      1 PG         20.8600    4.8210  -54.9720 P.3       1 APC1001     0.0000 
      2 O1G        20.4740    5.6420  -56.1820 O.co2     1 APC1001     0.0000 
      3 O2G        20.4630    5.4310  -53.6440 O.co2     1 APC1001     0.0000 
      4 O3G        22.2760    4.2950  -55.0190 O.co2     1 APC1001     0.0000 
      5 PB         20.2900    2.3420  -56.1670 P.3       1 APC1001     0.0000 
      6 O1B        19.9970    2.8920  -57.5390 O.co2     1 APC1001     0.0000 
      7 O2B        21.6390    1.7100  -55.8930 O.co2     1 APC1001     0.0000 
      8 O3B        19.9590    3.4840  -55.0790 O.3       1 APC1001     0.0000 
      9 PA         19.1450   -0.6980  -55.9100 P.3       1 APC1001     0.0000 
     10 O1A        20.5990   -1.0570  -55.6940 O.co2     1 APC1001     0.0000 
     11 O2A        17.9940   -1.2760  -55.1150 O.co2     1 APC1001     0.0000 
     12 C3A        19.0120    1.1130  -55.8220 C.3       1 APC1001     0.0000 
     13 O5'        18.8440   -0.9790  -57.4640 O.3       1 APC1001     0.0000 
     14 C5'        19.0120   -2.2800  -58.0230 C.3       1 APC1001     0.0000 
     15 C4'        19.1390   -2.1680  -59.5380 C.3       1 APC1001     0.0000 
     16 O4'        18.1470   -1.2620  -60.0300 O.3       1 APC1001     0.0000 
     17 C3'        20.4990   -1.6060  -59.9260 C.3       1 APC1001     0.0000 
     18 O3'        21.0440   -2.3900  -60.9930 O.3       1 APC1001     0.0000 
     19 C2'        20.1890   -0.2070  -60.4070 C.3       1 APC1001     0.0000 
     20 O2'        21.0680    0.2330  -61.4390 O.3       1 APC1001     0.0000 
     21 C1'        18.7730   -0.3390  -60.9160 C.3       1 APC1001     0.0000 
     22 N9         18.1210    0.9840  -60.9400 N.pl3     1 APC1001     0.0000 
     23 C8         17.6090    1.6760  -59.9090 C.2       1 APC1001     0.0000 
     24 N7         17.1000    2.8640  -60.3310 N.2       1 APC1001     0.0000 
     25 C5         17.2940    2.9420  -61.6620 C.ar      1 APC1001     0.0000 
     26 C6         17.0050    3.9120  -62.7460 C.ar      1 APC1001     0.0000 
     27 N6         16.3870    5.0930  -62.5120 N.pl3     1 APC1001     0.0000 
     28 N1         17.3850    3.5760  -63.9910 N.ar      1 APC1001     0.0000 
     29 C2         17.9970    2.4100  -64.2590 C.ar      1 APC1001     0.0000 
     30 N3         18.2890    1.4880  -63.3370 N.ar      1 APC1001     0.0000 
     31 C4         17.9680    1.6950  -62.0460 C.ar      1 APC1001     0.0000 
@<TRIPOS>BOND
     1    1    2 ar   
     2    1    3 ar   
     3    1    4 ar   
     4    1    8 1    
     5    5    6 ar   
     6    5    7 ar   
     7    5    8 1    
     8    5   12 1    
     9    9   10 ar   
    10    9   11 ar   
    11    9   12 1    
    12    9   13 1    
    13   13   14 1    
    14   14   15 1    
    15   15   16 1    
    16   15   17 1    
    17   16   21 1    
    18   17   18 1    
    19   17   19 1    
    20   19   20 1    
    21   19   21 1    
    22   21   22 1    
    23   22   23 1    
    24   22   31 1    
    25   23   24 2    
    26   24   25 1    
    27   25   26 ar   
    28   25   31 ar   
    29   26   27 1    
    30   26   28 ar   
    31   28   29 ar   
    32   29   30 ar   
    33   30   31 ar   
@<TRIPOS>SUBSTRUCTURE
     1 APC1001     1 GROUP   
@<TRIPOS>SET

