#    Name: 6fkl_2_GDP
#    Modification time : Fri May 22 19:30:35 2020

@<TRIPOS>MOLECULE
6fkl_2_GDP
   28    30     1     0     1
SMALL
NO_CHARGES


@<TRIPOS>ATOM
      1 PB         18.7660   49.3560   15.9480 P.3       1 GDP501      0.0000 
      2 O1B        18.3720   50.2770   14.8270 O.co2     1 GDP501      0.0000 
      3 O2B        19.2400   50.1740   17.1320 O.co2     1 GDP501      0.0000 
      4 O3B        19.8950   48.4500   15.4870 O.co2     1 GDP501      0.0000 
      5 O3A        17.5250   48.4230   16.3590 O.3       1 GDP501      0.0000 
      6 PA         16.1690   48.9290   17.0760 P.3       1 GDP501      0.0000 
      7 O1A        15.0080   48.7950   16.1240 O.co2     1 GDP501      0.0000 
      8 O2A        16.2680   50.3390   17.6000 O.co2     1 GDP501      0.0000 
      9 O5'        16.0670   47.8600   18.2670 O.3       1 GDP501      0.0000 
     10 C5'        15.0130   46.9140   18.3570 C.3       1 GDP501      0.0000 
     11 C4'        14.4770   46.9860   19.7780 C.3       1 GDP501      0.0000 
     12 O4'        13.9340   48.2920   19.9620 O.3       1 GDP501      0.0000 
     13 C3'        13.3300   46.0290   20.0020 C.3       1 GDP501      0.0000 
     14 O3'        13.3200   45.7100   21.4000 O.3       1 GDP501      0.0000 
     15 C2'        12.0980   46.8310   19.6310 C.3       1 GDP501      0.0000 
     16 O2'        10.9610   46.3840   20.3750 O.3       1 GDP501      0.0000 
     17 C1'        12.5060   48.2280   20.0540 C.3       1 GDP501      0.0000 
     18 N9         12.0200   49.3350   19.2080 N.pl3     1 GDP501      0.0000 
     19 C8         12.3150   49.5580   17.9110 C.2       1 GDP501      0.0000 
     20 N7         11.7310   50.7090   17.4860 N.2       1 GDP501      0.0000 
     21 C5         11.0650   51.2380   18.5340 C.2       1 GDP501      0.0000 
     22 C6         10.2450   52.4400   18.7900 C.2       1 GDP501      0.0000 
     23 O6         10.0240   53.2570   17.8750 O.2       1 GDP501      0.0000 
     24 N1          9.7490   52.6220   20.0230 N.am      1 GDP501      0.0000 
     25 C2          9.9720   51.7530   21.0270 C.2       1 GDP501      0.0000 
     26 N2          9.4360   51.9940   22.2510 N.pl3     1 GDP501      0.0000 
     27 N3         10.7140   50.6330   20.8620 N.2       1 GDP501      0.0000 
     28 C4         11.2730   50.3370   19.6660 C.2       1 GDP501      0.0000 
@<TRIPOS>BOND
     1    1    2 ar   
     2    1    3 ar   
     3    1    4 ar   
     4    1    5 1    
     5    5    6 1    
     6    6    7 ar   
     7    6    8 ar   
     8    6    9 1    
     9    9   10 1    
    10   10   11 1    
    11   11   12 1    
    12   11   13 1    
    13   12   17 1    
    14   13   14 1    
    15   13   15 1    
    16   15   16 1    
    17   15   17 1    
    18   17   18 1    
    19   18   19 1    
    20   18   28 1    
    21   19   20 2    
    22   20   21 1    
    23   21   22 1    
    24   21   28 2    
    25   22   23 2    
    26   22   24 am   
    27   24   25 1    
    28   25   26 1    
    29   25   27 2    
    30   27   28 1    
@<TRIPOS>SUBSTRUCTURE
     1 GDP501      1 GROUP   
@<TRIPOS>SET
ATOM$ORANGE STATIC     ATOMS   COLORGROUP SYSTEM 
20 10 10 11 11 13 13 15 15 17 17 19 19 21 21 22 22 25 \
25 28 28 

