#    Name: 6fkl_2_GDP_CAVITY_N1_ALL
#    Modification time : Fri May 22 19:30:36 2020

@<TRIPOS>MOLECULE
6fkl_2_GDP_CAVITY_N1_ALL
   69     0     6     0     0
SMALL
NO_CHARGES


@<TRIPOS>ATOM
      1 OG          6.6900   44.7300   17.7100 O.3       1 SER1        0.0000 
      2 N           0.9800   42.1800   14.5000 N.am      2 ALA2        0.0000 
      3 N           2.4700   42.2300   16.0100 N.am      2 ALA2        0.0000 
      4 N           1.8400   41.0400   16.6700 N.am      2 ALA2        0.0000 
      5 N           6.5600   44.0600   16.3800 N.am      2 ALA2        0.0000 
      6 N           5.9400   42.8700   17.0400 N.am      2 ALA2        0.0000 
      7 O           1.2400   43.5200   17.1700 O.2       2 ALA2        0.0000 
      8 N           1.9700   41.7100   18.0000 N.am      2 ALA2        0.0000 
      9 N           3.2500   47.7700   16.5200 N.am      2 ALA2        0.0000 
     10 N           2.6200   46.5700   17.1800 N.am      2 ALA2        0.0000 
     11 N           6.0700   43.5400   18.3700 N.am      2 ALA2        0.0000 
     12 N           1.9900   45.3800   17.8400 N.am      2 ALA2        0.0000 
     13 N           4.0800   42.9600   18.8600 N.am      2 ALA2        0.0000 
     14 O           1.3700   44.1900   18.5000 O.2       2 ALA2        0.0000 
     15 N           3.4600   41.7700   19.5200 N.am      2 ALA2        0.0000 
     16 N           2.1000   42.3800   19.3400 N.am      2 ALA2        0.0000 
     17 O           0.7400   43.0000   19.1600 O.2       2 ALA2        0.0000 
     18 O           4.7300   47.8200   18.0300 O.2       2 ALA2        0.0000 
     19 N           3.3700   48.4400   17.8600 N.am      2 ALA2        0.0000 
     20 N           2.7500   47.2500   18.5200 N.am      2 ALA2        0.0000 
     21 N           4.2100   43.6300   20.1900 N.am      2 ALA2        0.0000 
     22 N           2.2300   43.0500   20.6700 N.am      2 ALA2        0.0000 
     23 N           2.8800   47.9200   19.8500 N.am      2 ALA2        0.0000 
     24 NZ          7.1900   45.2600   15.7200 N.4       3 LYS4        0.0000 
     25 CZ          6.4600   47.0600   14.8800 C.ar      4 PHE5        0.0000 
     26 CZ          5.8300   45.8700   15.5400 C.ar      4 PHE5        0.0000 
     27 CZ          5.9600   46.5400   16.8800 C.ar      4 PHE5        0.0000 
     28 CZ          4.6000   47.1500   16.7000 C.ar      4 PHE5        0.0000 
     29 CZ          3.4800   45.4400   19.3500 C.ar      4 PHE5        0.0000 
     30 CZ          2.1200   46.0500   19.1800 C.ar      4 PHE5        0.0000 
     31 CZ          2.8600   44.2500   20.0100 C.ar      4 PHE5        0.0000 
     32 CZ          4.8600   48.5000   19.3700 C.ar      4 PHE5        0.0000 
     33 CZ          3.6100   46.1100   20.6900 C.ar      4 PHE5        0.0000 
     34 CA          2.8600   45.7600   12.5200 C.3       5 GLY6        0.0000 
     35 CA          2.2300   44.5600   13.1800 C.3       5 GLY6        0.0000 
     36 CA          2.9600   42.7600   14.0100 C.3       5 GLY6        0.0000 
     37 CA          1.6100   43.3700   13.8400 C.3       5 GLY6        0.0000 
     38 CA          2.3400   41.5600   14.6700 C.3       5 GLY6        0.0000 
     39 CA          4.9700   47.0100   13.3700 C.3       5 GLY6        0.0000 
     40 CA          3.6100   47.6200   13.1900 C.3       5 GLY6        0.0000 
     41 CA          2.9900   46.4300   13.8500 C.3       5 GLY6        0.0000 
     42 CA          2.3600   45.2300   14.5100 C.3       5 GLY6        0.0000 
     43 CA          1.7300   44.0400   15.1700 C.3       5 GLY6        0.0000 
     44 CA          5.4600   46.0200   18.8700 C.3       5 GLY6        0.0000 
     45 CA          4.1100   46.6300   18.6900 C.3       5 GLY6        0.0000 
     46 CA          4.8400   44.8200   19.5300 C.3       5 GLY6        0.0000 
     47 CA          3.5000   49.1100   19.1900 C.3       5 GLY6        0.0000 
     48 CA          4.2400   47.3000   20.0300 C.3       5 GLY6        0.0000 
     49 DU          5.7000   45.2000   14.2000 H         6 CUB7        0.0000 
     50 DU          4.3400   45.8100   14.0300 H         6 CUB7        0.0000 
     51 DU          6.4300   43.3900   15.0400 H         6 CUB7        0.0000 
     52 DU          5.0700   44.0100   14.8600 H         6 CUB7        0.0000 
     53 DU          4.4500   42.8100   15.5200 H         6 CUB7        0.0000 
     54 DU          3.0900   43.4300   15.3500 H         6 CUB7        0.0000 
     55 DU          3.8200   41.6200   16.1800 H         6 CUB7        0.0000 
     56 DU          4.4700   46.4800   15.3600 H         6 CUB7        0.0000 
     57 DU          3.1200   47.1000   15.1900 H         6 CUB7        0.0000 
     58 DU          5.2000   44.6800   16.2000 H         6 CUB7        0.0000 
     59 DU          2.4900   45.9000   15.8500 H         6 CUB7        0.0000 
     60 DU          4.5800   43.4800   16.8600 H         6 CUB7        0.0000 
     61 DU          1.8600   44.7100   16.5100 H         6 CUB7        0.0000 
     62 DU          3.9500   42.2900   17.5200 H         6 CUB7        0.0000 
     63 DU          2.6000   42.9000   17.3400 H         6 CUB7        0.0000 
     64 DU          3.3300   41.1000   18.1800 H         6 CUB7        0.0000 
     65 DU          5.3300   45.3500   17.5400 H         6 CUB7        0.0000 
     66 DU          3.9800   45.9600   17.3600 H         6 CUB7        0.0000 
     67 DU          4.7100   44.1500   18.2000 H         6 CUB7        0.0000 
     68 DU          3.3500   44.7700   18.0200 H         6 CUB7        0.0000 
     69 DU          2.7300   43.5700   18.6800 H         6 CUB7        0.0000 
@<TRIPOS>BOND
@<TRIPOS>SUBSTRUCTURE
     1 SER1        1 GROUP   
     2 ALA2        2 GROUP   
     3 LYS4       24 GROUP   
     4 PHE5       25 GROUP   
     5 GLY6       34 GROUP   
     6 CUB7       49 GROUP   
@<TRIPOS>SET

