#    Name: 6fkl_5_ACP
#    Modification time : Fri May 22 19:30:42 2020

@<TRIPOS>MOLECULE
6fkl_5_ACP
   31    33     1     0     1
SMALL
NO_CHARGES


@<TRIPOS>ATOM
      1 PG          7.9870   49.5500   93.9020 P.3       1 ACP402      0.0000 
      2 O1G         8.9680   49.6420   92.7950 O.co2     1 ACP402      0.0000 
      3 O2G         6.7820   48.5760   93.4600 O.co2     1 ACP402      0.0000 
      4 O3G         7.3860   51.0040   94.2330 O.co2     1 ACP402      0.0000 
      5 PB         10.4900   49.4990   95.5700 P.3       1 ACP402      0.0000 
      6 O1B        10.7130   50.8590   94.7380 O.co2     1 ACP402      0.0000 
      7 O2B        11.4060   48.4680   95.0280 O.co2     1 ACP402      0.0000 
      8 C3B         8.7850   48.8980   95.3960 C.3       1 ACP402      0.0000 
      9 PA         10.1920   50.9440   97.9810 P.3       1 ACP402      0.0000 
     10 O1A         8.9800   51.4570   97.2410 O.co2     1 ACP402      0.0000 
     11 O2A        11.2920   51.9040   98.3680 O.co2     1 ACP402      0.0000 
     12 O3A        10.8410   49.7350   97.1280 O.3       1 ACP402      0.0000 
     13 O5'         9.6960   50.2240   99.3300 O.3       1 ACP402      0.0000 
     14 C5'         9.1720   48.9000   99.3010 C.3       1 ACP402      0.0000 
     15 C4'         8.4160   48.6380  100.5960 C.3       1 ACP402      0.0000 
     16 O4'         9.1460   49.1500  101.7130 O.3       1 ACP402      0.0000 
     17 C3'         7.0750   49.3490  100.6080 C.3       1 ACP402      0.0000 
     18 O3'         6.0280   48.4610  100.2040 O.3       1 ACP402      0.0000 
     19 C2'         6.8880   49.8120  102.0400 C.3       1 ACP402      0.0000 
     20 O2'         5.9660   48.9530  102.7150 O.3       1 ACP402      0.0000 
     21 C1'         8.2520   49.6850  102.6930 C.3       1 ACP402      0.0000 
     22 N9          8.7220   51.0260  103.1130 N.pl3     1 ACP402      0.0000 
     23 C8          9.5320   51.8280  102.3970 C.2       1 ACP402      0.0000 
     24 N7          9.7830   52.9880  103.0560 N.2       1 ACP402      0.0000 
     25 C5          9.1200   52.9380  104.2260 C.ar      1 ACP402      0.0000 
     26 C6          8.9550   53.8330  105.3980 C.ar      1 ACP402      0.0000 
     27 N6          9.5610   55.0450  105.4500 N.pl3     1 ACP402      0.0000 
     28 N1          8.1770   53.3940  106.4140 N.ar      1 ACP402      0.0000 
     29 C2          7.5680   52.1940  106.3730 C.ar      1 ACP402      0.0000 
     30 N3          7.6730   51.3330  105.3440 N.ar      1 ACP402      0.0000 
     31 C4          8.4230   51.6410  104.2600 C.ar      1 ACP402      0.0000 
@<TRIPOS>BOND
     1    1    2 ar   
     2    1    3 ar   
     3    1    4 ar   
     4    1    8 1    
     5    5    6 ar   
     6    5    7 ar   
     7    5    8 1    
     8    5   12 1    
     9    9   10 ar   
    10    9   11 ar   
    11    9   12 1    
    12    9   13 1    
    13   13   14 1    
    14   14   15 1    
    15   15   16 1    
    16   15   17 1    
    17   16   21 1    
    18   17   18 1    
    19   17   19 1    
    20   19   20 1    
    21   19   21 1    
    22   21   22 1    
    23   22   23 1    
    24   22   31 1    
    25   23   24 2    
    26   24   25 1    
    27   25   26 ar   
    28   25   31 ar   
    29   26   27 1    
    30   26   28 ar   
    31   28   29 ar   
    32   29   30 ar   
    33   30   31 ar   
@<TRIPOS>SUBSTRUCTURE
     1 ACP402      1 GROUP   
@<TRIPOS>SET
ATOM$ORANGE STATIC     ATOMS   COLORGROUP SYSTEM 
22 8 8 14 14 15 15 17 17 19 19 21 21 23 23 25 25 26 \
26 29 29 31 31 

