#    Name: 6fkl_2_GDP_CAVITY_N1_8
#    Modification time : Fri May 22 19:30:36 2020

@<TRIPOS>MOLECULE
6fkl_2_GDP_CAVITY_N1_8
   27     0     6     0     0
SMALL
NO_CHARGES


@<TRIPOS>ATOM
      1 OG          6.6900   44.7300   17.7100 O.3       1 SER1        0.0000 
      2 N           6.5600   44.0600   16.3800 N.am      2 ALA2        0.0000 
      3 N           5.9400   42.8700   17.0400 N.am      2 ALA2        0.0000 
      4 N           6.0700   43.5400   18.3700 N.am      2 ALA2        0.0000 
      5 N           4.0800   42.9600   18.8600 N.am      2 ALA2        0.0000 
      6 O           4.7300   47.8200   18.0300 O.2       2 ALA2        0.0000 
      7 N           3.3700   48.4400   17.8600 N.am      2 ALA2        0.0000 
      8 N           4.2100   43.6300   20.1900 N.am      2 ALA2        0.0000 
      9 NZ          7.1900   45.2600   15.7200 N.4       3 LYS4        0.0000 
     10 CZ          6.4600   47.0600   14.8800 C.ar      4 PHE5        0.0000 
     11 CZ          5.8300   45.8700   15.5400 C.ar      4 PHE5        0.0000 
     12 CZ          5.9600   46.5400   16.8800 C.ar      4 PHE5        0.0000 
     13 CZ          4.6000   47.1500   16.7000 C.ar      4 PHE5        0.0000 
     14 CZ          3.4800   45.4400   19.3500 C.ar      4 PHE5        0.0000 
     15 CZ          4.8600   48.5000   19.3700 C.ar      4 PHE5        0.0000 
     16 CZ          3.6100   46.1100   20.6900 C.ar      4 PHE5        0.0000 
     17 CA          5.4600   46.0200   18.8700 C.3       5 GLY6        0.0000 
     18 CA          4.1100   46.6300   18.6900 C.3       5 GLY6        0.0000 
     19 CA          4.8400   44.8200   19.5300 C.3       5 GLY6        0.0000 
     20 CA          3.5000   49.1100   19.1900 C.3       5 GLY6        0.0000 
     21 CA          4.2400   47.3000   20.0300 C.3       5 GLY6        0.0000 
     22 DU          6.4300   43.3900   15.0400 H         6 CUB7        0.0000 
     23 DU          5.2000   44.6800   16.2000 H         6 CUB7        0.0000 
     24 DU          4.5800   43.4800   16.8600 H         6 CUB7        0.0000 
     25 DU          5.3300   45.3500   17.5400 H         6 CUB7        0.0000 
     26 DU          3.9800   45.9600   17.3600 H         6 CUB7        0.0000 
     27 DU          4.7100   44.1500   18.2000 H         6 CUB7        0.0000 
@<TRIPOS>BOND
@<TRIPOS>SUBSTRUCTURE
     1 SER1        1 GROUP   
     2 ALA2        2 GROUP   
     3 LYS4        9 GROUP   
     4 PHE5       10 GROUP   
     5 GLY6       17 GROUP   
     6 CUB7       22 GROUP   
@<TRIPOS>SET

