#    Name: 6nf0_1_NDP
#    Modification time : Fri May 22 19:25:58 2020

@<TRIPOS>MOLECULE
6nf0_1_NDP
   48    52     1     0     1
SMALL
NO_CHARGES


@<TRIPOS>ATOM
      1 PA         -3.2300  -28.1990    4.4860 P.3       1 NDP502      0.0000 
      2 O1A        -2.5110  -28.7440    5.7000 O.co2     1 NDP502      0.0000 
      3 O2A        -4.2280  -29.2100    3.9700 O.co2     1 NDP502      0.0000 
      4 O5B        -2.1220  -27.8610    3.3110 O.3       1 NDP502      0.0000 
      5 C5B        -1.3030  -26.7290    3.4860 C.3       1 NDP502      0.0000 
      6 C4B        -1.3650  -25.8710    2.1890 C.3       1 NDP502      0.0000 
      7 O4B         0.0460  -25.4080    1.8030 O.3       1 NDP502      0.0000 
      8 C3B        -1.7720  -26.6020    1.1850 C.3       1 NDP502      0.0000 
      9 O3B        -2.4730  -25.7850    0.2490 O.3       1 NDP502      0.0000 
     10 C2B        -0.3870  -27.2930    0.4960 C.3       1 NDP502      0.0000 
     11 O2B        -0.5510  -27.4550   -0.9540 O.3       1 NDP502      0.0000 
     12 C1B         0.5780  -26.5170    0.7520 C.3       1 NDP502      0.0000 
     13 N9A         1.7280  -27.2570    1.3210 N.pl3     1 NDP502      0.0000 
     14 C8A         2.0960  -28.4870    0.9950 C.2       1 NDP502      0.0000 
     15 N7A         3.1690  -28.8370    1.6900 N.2       1 NDP502      0.0000 
     16 C5A         3.5140  -27.8110    2.4880 C.ar      1 NDP502      0.0000 
     17 C6A         4.5280  -27.5640    3.4360 C.ar      1 NDP502      0.0000 
     18 N6A         5.5200  -28.5860    3.7240 N.pl3     1 NDP502      0.0000 
     19 N1A         4.5740  -26.3940    4.0630 N.ar      1 NDP502      0.0000 
     20 C2A         3.6720  -25.4560    3.8030 C.ar      1 NDP502      0.0000 
     21 N3A         2.6980  -25.6380    2.9240 N.ar      1 NDP502      0.0000 
     22 C4A         2.5960  -26.8020    2.2540 C.ar      1 NDP502      0.0000 
     23 O3         -3.9810  -26.7630    4.8430 O.3       1 NDP502      0.0000 
     24 PN         -5.3210  -26.5380    5.7870 P.3       1 NDP502      0.0000 
     25 O1N        -6.5430  -26.4200    4.9110 O.co2     1 NDP502      0.0000 
     26 O2N        -5.5050  -27.6920    6.7420 O.co2     1 NDP502      0.0000 
     27 O5D        -5.1270  -25.1200    6.6190 O.3       1 NDP502      0.0000 
     28 C5D        -3.9910  -24.9330    7.4340 C.3       1 NDP502      0.0000 
     29 C4D        -4.4970  -24.4510    8.8350 C.3       1 NDP502      0.0000 
     30 O4D        -3.9000  -23.4010    9.2660 O.3       1 NDP502      0.0000 
     31 C3D        -5.9980  -24.0360    8.7240 C.3       1 NDP502      0.0000 
     32 O3D        -6.7890  -24.9270    9.3770 O.3       1 NDP502      0.0000 
     33 C2D        -6.0690  -22.6930    9.4200 C.3       1 NDP502      0.0000 
     34 O2D        -7.3470  -22.6070   10.2060 O.3       1 NDP502      0.0000 
     35 C1D        -5.0420  -22.7400   10.2130 C.3       1 NDP502      0.0000 
     36 N1N        -4.7190  -21.4330   10.7440 N.pl3     1 NDP502      0.0000 
     37 C2N        -5.4760  -20.2650   10.3520 C.2       1 NDP502      0.0000 
     38 C3N        -5.8300  -19.2350   11.4240 C.2       1 NDP502      0.0000 
     39 C7N        -6.9100  -18.1930   11.1250 C.2       1 NDP502      0.0000 
     40 O7N        -7.0150  -17.2270   11.8050 O.2       1 NDP502      0.0000 
     41 N7N        -7.8110  -18.3920   10.0010 N.am      1 NDP502      0.0000 
     42 C4N        -4.9430  -19.1050   12.6710 C.3       1 NDP502      0.0000 
     43 C5N        -3.8030  -20.1340   12.7570 C.2       1 NDP502      0.0000 
     44 C6N        -3.6770  -21.2660   11.7340 C.2       1 NDP502      0.0000 
     45 P2B        -0.7000  -28.9590   -1.6360 P.3       1 NDP502      0.0000 
     46 O1X        -2.1310  -29.4210   -1.5170 O.co2     1 NDP502      0.0000 
     47 O2X        -0.3120  -28.9160   -3.0920 O.co2     1 NDP502      0.0000 
     48 O3X         0.2140  -29.9320   -0.9320 O.co2     1 NDP502      0.0000 
@<TRIPOS>BOND
     1    1    2 ar   
     2    1    3 ar   
     3    1    4 1    
     4    1   23 1    
     5    4    5 1    
     6    5    6 1    
     7    6    7 1    
     8    6    8 1    
     9    7   12 1    
    10    8    9 1    
    11    8   10 1    
    12   10   11 1    
    13   10   12 1    
    14   11   45 1    
    15   12   13 1    
    16   13   14 1    
    17   13   22 1    
    18   14   15 2    
    19   15   16 1    
    20   16   17 ar   
    21   16   22 ar   
    22   17   18 1    
    23   17   19 ar   
    24   19   20 ar   
    25   20   21 ar   
    26   21   22 ar   
    27   23   24 1    
    28   24   25 ar   
    29   24   26 ar   
    30   24   27 1    
    31   27   28 1    
    32   28   29 1    
    33   29   30 1    
    34   29   31 1    
    35   30   35 1    
    36   31   32 1    
    37   31   33 1    
    38   33   34 1    
    39   33   35 1    
    40   35   36 1    
    41   36   37 1    
    42   36   44 1    
    43   37   38 2    
    44   38   39 1    
    45   38   42 1    
    46   39   40 2    
    47   39   41 am   
    48   42   43 1    
    49   43   44 2    
    50   45   46 ar   
    51   45   47 ar   
    52   45   48 ar   
@<TRIPOS>SUBSTRUCTURE
     1 NDP502      1 GROUP   
@<TRIPOS>SET
ATOM$ORANGE STATIC     ATOMS   COLORGROUP SYSTEM 
42 5 5 6 6 8 8 10 10 12 12 14 14 16 16 17 17 20 \
20 22 22 28 28 29 29 31 31 33 33 35 35 37 37 38 38 39 \
39 42 42 43 43 44 44 

