#    Name: 5oiu_5_ATP
#    Modification time : Fri May 22 19:14:10 2020

@<TRIPOS>MOLECULE
5oiu_5_ATP
   31    33     1     0     1
SMALL
NO_CHARGES


@<TRIPOS>ATOM
      1 PG         77.4700   79.9590   16.4400 P.3       1 ATP501      0.0000 
      2 O1G        76.7550   78.6420   16.2840 O.co2     1 ATP501      0.0000 
      3 O2G        76.7490   80.8620   17.4220 O.co2     1 ATP501      0.0000 
      4 O3G        78.9460   79.8510   16.6250 O.co2     1 ATP501      0.0000 
      5 PB         77.1570   80.1930   13.5340 P.3       1 ATP501      0.0000 
      6 O1B        78.4130   79.9570   12.7510 O.co2     1 ATP501      0.0000 
      7 O2B        76.1150   79.0940   13.6220 O.co2     1 ATP501      0.0000 
      8 O3B        77.5030   80.7450   15.0180 O.3       1 ATP501      0.0000 
      9 PA         75.1750   81.9980   12.4980 P.3       1 ATP501      0.0000 
     10 O1A        74.6130   81.2350   11.3250 O.co2     1 ATP501      0.0000 
     11 O2A        74.4290   81.9110   13.7950 O.co2     1 ATP501      0.0000 
     12 O3A        76.6750   81.5490   12.8280 O.3       1 ATP501      0.0000 
     13 O5'        75.4820   83.4850   11.9940 O.3       1 ATP501      0.0000 
     14 C5'        75.8530   84.5260   12.8880 C.3       1 ATP501      0.0000 
     15 C4'        75.5240   85.8140   12.1750 C.3       1 ATP501      0.0000 
     16 O4'        76.2080   85.9220   10.9350 O.3       1 ATP501      0.0000 
     17 C3'        74.0660   85.8360   11.7850 C.3       1 ATP501      0.0000 
     18 O3'        73.2740   86.3320   12.8640 O.3       1 ATP501      0.0000 
     19 C2'        74.0370   86.7910   10.6200 C.3       1 ATP501      0.0000 
     20 O2'        74.0300   88.1060   11.1590 O.3       1 ATP501      0.0000 
     21 C1'        75.3840   86.6190    9.9750 C.3       1 ATP501      0.0000 
     22 N9         75.2850   85.7800    8.7560 N.pl3     1 ATP501      0.0000 
     23 C8         75.0240   84.4580    8.7580 C.2       1 ATP501      0.0000 
     24 N7         75.0210   83.9540    7.5030 N.2       1 ATP501      0.0000 
     25 C5         75.2870   84.9600    6.6710 C.ar      1 ATP501      0.0000 
     26 C6         75.4340   85.1030    5.2180 C.ar      1 ATP501      0.0000 
     27 N6         75.2880   84.0360    4.4090 N.pl3     1 ATP501      0.0000 
     28 N1         75.7250   86.3280    4.7310 N.ar      1 ATP501      0.0000 
     29 C2         75.8630   87.3850    5.5420 C.ar      1 ATP501      0.0000 
     30 N3         75.7480   87.3240    6.8730 N.ar      1 ATP501      0.0000 
     31 C4         75.4720   86.1590    7.4940 C.ar      1 ATP501      0.0000 
@<TRIPOS>BOND
     1    1    2 ar   
     2    1    3 ar   
     3    1    4 ar   
     4    1    8 1    
     5    5    6 ar   
     6    5    7 ar   
     7    5    8 1    
     8    5   12 1    
     9    9   10 ar   
    10    9   11 ar   
    11    9   12 1    
    12    9   13 1    
    13   13   14 1    
    14   14   15 1    
    15   15   16 1    
    16   15   17 1    
    17   16   21 1    
    18   17   18 1    
    19   17   19 1    
    20   19   20 1    
    21   19   21 1    
    22   21   22 1    
    23   22   23 1    
    24   22   31 1    
    25   23   24 2    
    26   24   25 1    
    27   25   26 ar   
    28   25   31 ar   
    29   26   27 1    
    30   26   28 ar   
    31   28   29 ar   
    32   29   30 ar   
    33   30   31 ar   
@<TRIPOS>SUBSTRUCTURE
     1 ATP501      1 GROUP   
@<TRIPOS>SET
ATOM$ORANGE STATIC     ATOMS   COLORGROUP SYSTEM 
20 14 14 15 15 17 17 19 19 21 21 23 23 25 25 26 26 29 \
29 31 31 

