#    Name: 5oiu_6_ATP
#    Modification time : Fri May 22 19:14:25 2020

@<TRIPOS>MOLECULE
5oiu_6_ATP
   31    33     1     0     1
SMALL
NO_CHARGES


@<TRIPOS>ATOM
      1 PG        116.9150   23.7930   45.7680 P.3       1 ATP501      0.0000 
      2 O1G       116.6440   24.5220   44.4700 O.co2     1 ATP501      0.0000 
      3 O2G       117.2820   24.6910   46.9290 O.co2     1 ATP501      0.0000 
      4 O3G       115.9450   22.7050   46.1870 O.co2     1 ATP501      0.0000 
      5 PB        119.7510   23.5280   45.3450 P.3       1 ATP501      0.0000 
      6 O1B       120.2470   23.9870   44.0020 O.co2     1 ATP501      0.0000 
      7 O2B       119.9050   24.4410   46.5470 O.co2     1 ATP501      0.0000 
      8 O3B       118.2270   23.0220   45.2260 O.3       1 ATP501      0.0000 
      9 PA        121.2280   21.7580   46.9620 P.3       1 ATP501      0.0000 
     10 O1A       122.4150   22.6740   47.1610 O.co2     1 ATP501      0.0000 
     11 O2A       120.2530   21.7410   48.1070 O.co2     1 ATP501      0.0000 
     12 O3A       120.4730   22.1100   45.5780 O.3       1 ATP501      0.0000 
     13 O5'       121.7390   20.2760   46.6280 O.3       1 ATP501      0.0000 
     14 C5'       120.7980   19.2600   46.2860 C.3       1 ATP501      0.0000 
     15 C4'       121.4930   17.9320   46.4150 C.3       1 ATP501      0.0000 
     16 O4'       122.4490   17.6980   45.3680 O.3       1 ATP501      0.0000 
     17 C3'       122.2670   17.9000   47.7180 C.3       1 ATP501      0.0000 
     18 O3'       121.4450   17.3770   48.7540 O.3       1 ATP501      0.0000 
     19 C2'       123.3540   16.9200   47.4080 C.3       1 ATP501      0.0000 
     20 O2'       122.7430   15.6490   47.4400 O.3       1 ATP501      0.0000 
     21 C1'       123.6260   17.0840   45.9490 C.3       1 ATP501      0.0000 
     22 N9        124.8080   17.9670   45.7780 N.pl3     1 ATP501      0.0000 
     23 C8        124.8410   19.2950   46.0290 C.2       1 ATP501      0.0000 
     24 N7        126.0560   19.8150   45.7500 N.2       1 ATP501      0.0000 
     25 C5        126.8050   18.7960   45.3050 C.ar      1 ATP501      0.0000 
     26 C6        128.1820   18.6460   44.8440 C.ar      1 ATP501      0.0000 
     27 N6        128.9730   19.7310   44.8090 N.pl3     1 ATP501      0.0000 
     28 N1        128.6060   17.4130   44.4700 N.ar      1 ATP501      0.0000 
     29 C2        127.8020   16.3320   44.5240 C.ar      1 ATP501      0.0000 
     30 N3        126.5300   16.4070   44.9430 N.ar      1 ATP501      0.0000 
     31 C4        125.9900   17.5850   45.3340 C.ar      1 ATP501      0.0000 
@<TRIPOS>BOND
     1    1    2 ar   
     2    1    3 ar   
     3    1    4 ar   
     4    1    8 1    
     5    5    6 ar   
     6    5    7 ar   
     7    5    8 1    
     8    5   12 1    
     9    9   10 ar   
    10    9   11 ar   
    11    9   12 1    
    12    9   13 1    
    13   13   14 1    
    14   14   15 1    
    15   15   16 1    
    16   15   17 1    
    17   16   21 1    
    18   17   18 1    
    19   17   19 1    
    20   19   20 1    
    21   19   21 1    
    22   21   22 1    
    23   22   23 1    
    24   22   31 1    
    25   23   24 2    
    26   24   25 1    
    27   25   26 ar   
    28   25   31 ar   
    29   26   27 1    
    30   26   28 ar   
    31   28   29 ar   
    32   29   30 ar   
    33   30   31 ar   
@<TRIPOS>SUBSTRUCTURE
     1 ATP501      1 GROUP   
@<TRIPOS>SET
ATOM$ORANGE STATIC     ATOMS   COLORGROUP SYSTEM 
20 14 14 15 15 17 17 19 19 21 21 23 23 25 25 26 26 29 \
29 31 31 

