#    Name: 5oiu_2_ATP
#    Modification time : Fri May 22 19:13:44 2020

@<TRIPOS>MOLECULE
5oiu_2_ATP
   31    33     1     0     1
SMALL
NO_CHARGES


@<TRIPOS>ATOM
      1 PG         64.3620   48.7050    7.3650 P.3       1 ATP501      0.0000 
      2 O1G        65.5410   49.3380    6.6630 O.co2     1 ATP501      0.0000 
      3 O2G        64.6060   47.3580    7.9890 O.co2     1 ATP501      0.0000 
      4 O3G        63.5880   49.6440    8.2780 O.co2     1 ATP501      0.0000 
      5 PB         63.4730   47.2190    5.0540 P.3       1 ATP501      0.0000 
      6 O1B        64.3770   47.5340    3.8880 O.co2     1 ATP501      0.0000 
      7 O2B        63.6210   45.9070    5.8080 O.co2     1 ATP501      0.0000 
      8 O3B        63.3640   48.4390    6.1080 O.3       1 ATP501      0.0000 
      9 PA         60.8520   46.2600    4.7260 P.3       1 ATP501      0.0000 
     10 O1A        61.1730   44.9340    4.1210 O.co2     1 ATP501      0.0000 
     11 O2A        60.5080   46.3330    6.1950 O.co2     1 ATP501      0.0000 
     12 O3A        62.0070   47.3290    4.3980 O.3       1 ATP501      0.0000 
     13 O5'        59.6720   46.8990    3.8530 O.3       1 ATP501      0.0000 
     14 C5'        59.0660   48.1020    4.2850 C.3       1 ATP501      0.0000 
     15 C4'        57.6710   48.1220    3.7080 C.3       1 ATP501      0.0000 
     16 O4'        57.7450   48.1400    2.2840 O.3       1 ATP501      0.0000 
     17 C3'        56.9050   46.8530    4.0320 C.3       1 ATP501      0.0000 
     18 O3'        56.1880   47.0040    5.2510 O.3       1 ATP501      0.0000 
     19 C2'        55.9500   46.7510    2.8730 C.3       1 ATP501      0.0000 
     20 O2'        54.9060   47.6920    3.0830 O.3       1 ATP501      0.0000 
     21 C1'        56.6900   47.3420    1.7110 C.3       1 ATP501      0.0000 
     22 N9         57.2880   46.2940    0.8490 N.pl3     1 ATP501      0.0000 
     23 C8         58.3700   45.5380    1.1320 C.2       1 ATP501      0.0000 
     24 N7         58.6750   44.7130    0.0990 N.2       1 ATP501      0.0000 
     25 C5         57.7800   44.9400   -0.8710 C.ar      1 ATP501      0.0000 
     26 C6         57.5080   44.4140   -2.2270 C.ar      1 ATP501      0.0000 
     27 N6         58.2630   43.4510   -2.8060 N.pl3     1 ATP501      0.0000 
     28 N1         56.4540   44.9320   -2.8830 N.ar      1 ATP501      0.0000 
     29 C2         55.6740   45.8810   -2.3450 C.ar      1 ATP501      0.0000 
     30 N3         55.8640   46.4160   -1.1310 N.ar      1 ATP501      0.0000 
     31 C4         56.8780   45.9870   -0.3620 C.ar      1 ATP501      0.0000 
@<TRIPOS>BOND
     1    1    2 ar   
     2    1    3 ar   
     3    1    4 ar   
     4    1    8 1    
     5    5    6 ar   
     6    5    7 ar   
     7    5    8 1    
     8    5   12 1    
     9    9   10 ar   
    10    9   11 ar   
    11    9   12 1    
    12    9   13 1    
    13   13   14 1    
    14   14   15 1    
    15   15   16 1    
    16   15   17 1    
    17   16   21 1    
    18   17   18 1    
    19   17   19 1    
    20   19   20 1    
    21   19   21 1    
    22   21   22 1    
    23   22   23 1    
    24   22   31 1    
    25   23   24 2    
    26   24   25 1    
    27   25   26 ar   
    28   25   31 ar   
    29   26   27 1    
    30   26   28 ar   
    31   28   29 ar   
    32   29   30 ar   
    33   30   31 ar   
@<TRIPOS>SUBSTRUCTURE
     1 ATP501      1 GROUP   
@<TRIPOS>SET
ATOM$ORANGE STATIC     ATOMS   COLORGROUP SYSTEM 
20 14 14 15 15 17 17 19 19 21 21 23 23 25 25 26 26 29 \
29 31 31 

