#    Name: 5oiu_1_ATP
#    Modification time : Fri May 22 19:13:31 2020

@<TRIPOS>MOLECULE
5oiu_1_ATP
   31    33     1     0     1
SMALL
NO_CHARGES


@<TRIPOS>ATOM
      1 PG        128.7620   55.0810   56.7060 P.3       1 ATP501      0.0000 
      2 O1G       129.0310   54.2750   55.4500 O.co2     1 ATP501      0.0000 
      3 O2G       128.0380   54.3810   57.8290 O.co2     1 ATP501      0.0000 
      4 O3G       128.1880   56.4750   56.5020 O.co2     1 ATP501      0.0000 
      5 PB        131.2120   56.5600   56.8530 P.3       1 ATP501      0.0000 
      6 O1B       132.0250   56.3330   55.6030 O.co2     1 ATP501      0.0000 
      7 O2B       130.3690   57.8300   56.9730 O.co2     1 ATP501      0.0000 
      8 O3B       130.2710   55.3190   57.2610 O.3       1 ATP501      0.0000 
      9 PA        132.2160   57.5680   59.2250 P.3       1 ATP501      0.0000 
     10 O1A       132.5890   58.9590   58.7900 O.co2     1 ATP501      0.0000 
     11 O2A       130.8670   57.4210   59.8970 O.co2     1 ATP501      0.0000 
     12 O3A       132.2890   56.4790   58.0450 O.3       1 ATP501      0.0000 
     13 O5'       133.3860   57.0010   60.1550 O.3       1 ATP501      0.0000 
     14 C5'       133.2660   55.6780   60.6750 C.3       1 ATP501      0.0000 
     15 C4'       134.1020   55.6190   61.9320 C.3       1 ATP501      0.0000 
     16 O4'       135.4720   55.6050   61.5510 O.3       1 ATP501      0.0000 
     17 C3'       133.9070   56.8670   62.7730 C.3       1 ATP501      0.0000 
     18 O3'       132.9550   56.6090   63.7880 O.3       1 ATP501      0.0000 
     19 C2'       135.2430   57.0340   63.4220 C.3       1 ATP501      0.0000 
     20 O2'       135.2570   56.1330   64.5320 O.3       1 ATP501      0.0000 
     21 C1'       136.2240   56.4610   62.4180 C.3       1 ATP501      0.0000 
     22 N9        136.8570   57.5270   61.5980 N.pl3     1 ATP501      0.0000 
     23 C8        136.2370   58.3450   60.7200 C.2       1 ATP501      0.0000 
     24 N7        137.1250   59.1880   60.1380 N.2       1 ATP501      0.0000 
     25 C5        138.3470   58.9180   60.6390 C.ar      1 ATP501      0.0000 
     26 C6        139.7310   59.4440   60.4470 C.ar      1 ATP501      0.0000 
     27 N6        140.0060   60.4550   59.5770 N.pl3     1 ATP501      0.0000 
     28 N1        140.7170   58.8760   61.1780 N.ar      1 ATP501      0.0000 
     29 C2        140.4380   57.8630   62.0330 C.ar      1 ATP501      0.0000 
     30 N3        139.2070   57.3380   62.2600 N.ar      1 ATP501      0.0000 
     31 C4        138.1470   57.8210   61.6030 C.ar      1 ATP501      0.0000 
@<TRIPOS>BOND
     1    1    2 ar   
     2    1    3 ar   
     3    1    4 ar   
     4    1    8 1    
     5    5    6 ar   
     6    5    7 ar   
     7    5    8 1    
     8    5   12 1    
     9    9   10 ar   
    10    9   11 ar   
    11    9   12 1    
    12    9   13 1    
    13   13   14 1    
    14   14   15 1    
    15   15   16 1    
    16   15   17 1    
    17   16   21 1    
    18   17   18 1    
    19   17   19 1    
    20   19   20 1    
    21   19   21 1    
    22   21   22 1    
    23   22   23 1    
    24   22   31 1    
    25   23   24 2    
    26   24   25 1    
    27   25   26 ar   
    28   25   31 ar   
    29   26   27 1    
    30   26   28 ar   
    31   28   29 ar   
    32   29   30 ar   
    33   30   31 ar   
@<TRIPOS>SUBSTRUCTURE
     1 ATP501      1 GROUP   
@<TRIPOS>SET
ATOM$ORANGE STATIC     ATOMS   COLORGROUP SYSTEM 
20 14 14 15 15 17 17 19 19 21 21 23 23 25 25 26 26 29 \
29 31 31 

