#    Name: 5oiu_3_ATP
#    Modification time : Fri May 22 19:13:50 2020

@<TRIPOS>MOLECULE
5oiu_3_ATP
   31    33     1     0     1
SMALL
NO_CHARGES


@<TRIPOS>ATOM
      1 PG         88.3250   21.8130   25.6050 P.3       1 ATP501      0.0000 
      2 O1G        88.2510   23.2270   25.0370 O.co2     1 ATP501      0.0000 
      3 O2G        89.3300   21.6520   26.7260 O.co2     1 ATP501      0.0000 
      4 O3G        86.9920   21.1980   25.9460 O.co2     1 ATP501      0.0000 
      5 PB         90.2700   20.6460   23.8370 P.3       1 ATP501      0.0000 
      6 O1B        90.7160   21.9310   23.1880 O.co2     1 ATP501      0.0000 
      7 O2B        91.0940   19.9920   24.9210 O.co2     1 ATP501      0.0000 
      8 O3B        88.7730   20.8330   24.3950 O.3       1 ATP501      0.0000 
      9 PA         90.0680   17.9610   23.0140 P.3       1 ATP501      0.0000 
     10 O1A        91.3970   17.2630   23.1210 O.co2     1 ATP501      0.0000 
     11 O2A        89.0700   17.7850   24.1330 O.co2     1 ATP501      0.0000 
     12 O3A        90.1430   19.5350   22.6850 O.3       1 ATP501      0.0000 
     13 O5'        89.4560   17.3770   21.6520 O.3       1 ATP501      0.0000 
     14 C5'        88.1600   17.7400   21.1820 C.3       1 ATP501      0.0000 
     15 C4'        87.7420   16.6660   20.1860 C.3       1 ATP501      0.0000 
     16 O4'        88.5930   16.6800   19.0340 O.3       1 ATP501      0.0000 
     17 C3'        87.8650   15.2970   20.8250 C.3       1 ATP501      0.0000 
     18 O3'        86.6800   14.5930   20.4050 O.3       1 ATP501      0.0000 
     19 C2'        89.1690   14.7520   20.2490 C.3       1 ATP501      0.0000 
     20 O2'        89.2520   13.3150   20.2130 O.3       1 ATP501      0.0000 
     21 C1'        89.2440   15.4230   18.8750 C.3       1 ATP501      0.0000 
     22 N9         90.6260   15.6810   18.4250 N.pl3     1 ATP501      0.0000 
     23 C8         91.5690   16.3130   19.1580 C.2       1 ATP501      0.0000 
     24 N7         92.7350   16.4100   18.4670 N.2       1 ATP501      0.0000 
     25 C5         92.5550   15.8270   17.2710 C.ar      1 ATP501      0.0000 
     26 C6         93.3920   15.5890   16.0740 C.ar      1 ATP501      0.0000 
     27 N6         94.6870   15.9940   16.0250 N.pl3     1 ATP501      0.0000 
     28 N1         92.8230   14.9530   15.0290 N.ar      1 ATP501      0.0000 
     29 C2         91.5360   14.5510   15.0740 C.ar      1 ATP501      0.0000 
     30 N3         90.7150   14.7350   16.1280 N.ar      1 ATP501      0.0000 
     31 C4         91.1570   15.3560   17.2430 C.ar      1 ATP501      0.0000 
@<TRIPOS>BOND
     1    1    2 ar   
     2    1    3 ar   
     3    1    4 ar   
     4    1    8 1    
     5    5    6 ar   
     6    5    7 ar   
     7    5    8 1    
     8    5   12 1    
     9    9   10 ar   
    10    9   11 ar   
    11    9   12 1    
    12    9   13 1    
    13   13   14 1    
    14   14   15 1    
    15   15   16 1    
    16   15   17 1    
    17   16   21 1    
    18   17   18 1    
    19   17   19 1    
    20   19   20 1    
    21   19   21 1    
    22   21   22 1    
    23   22   23 1    
    24   22   31 1    
    25   23   24 2    
    26   24   25 1    
    27   25   26 ar   
    28   25   31 ar   
    29   26   27 1    
    30   26   28 ar   
    31   28   29 ar   
    32   29   30 ar   
    33   30   31 ar   
@<TRIPOS>SUBSTRUCTURE
     1 ATP501      1 GROUP   
@<TRIPOS>SET
ATOM$ORANGE STATIC     ATOMS   COLORGROUP SYSTEM 
20 14 14 15 15 17 17 19 19 21 21 23 23 25 25 26 26 29 \
29 31 31 

