#    Name: 5oiu_4_ATP
#    Modification time : Fri May 22 19:13:57 2020

@<TRIPOS>MOLECULE
5oiu_4_ATP
   31    33     1     0     1
SMALL
NO_CHARGES


@<TRIPOS>ATOM
      1 PG        104.6200   81.8240   38.5510 P.3       1 ATP501      0.0000 
      2 O1G       103.3290   82.0610   37.8050 O.co2     1 ATP501      0.0000 
      3 O2G       104.6710   82.4720   39.9150 O.co2     1 ATP501      0.0000 
      4 O3G       105.0870   80.3800   38.4620 O.co2     1 ATP501      0.0000 
      5 PB        105.8150   82.9890   36.2410 P.3       1 ATP501      0.0000 
      6 O1B       106.3290   81.7500   35.5520 O.co2     1 ATP501      0.0000 
      7 O2B       104.5420   83.6640   35.8060 O.co2     1 ATP501      0.0000 
      8 O3B       105.7320   82.7530   37.8290 O.3       1 ATP501      0.0000 
      9 PA        106.6180   85.6560   36.1740 P.3       1 ATP501      0.0000 
     10 O1A       106.1180   86.1590   34.8350 O.co2     1 ATP501      0.0000 
     11 O2A       105.7860   85.8890   37.4010 O.co2     1 ATP501      0.0000 
     12 O3A       106.9670   84.0850   36.1360 O.3       1 ATP501      0.0000 
     13 O5'       108.0500   86.3270   36.4190 O.3       1 ATP501      0.0000 
     14 C5'       108.7580   86.0840   37.6450 C.3       1 ATP501      0.0000 
     15 C4'       109.8440   87.1470   37.7980 C.3       1 ATP501      0.0000 
     16 O4'       110.7970   87.0150   36.7280 O.3       1 ATP501      0.0000 
     17 C3'       109.2370   88.5410   37.7190 C.3       1 ATP501      0.0000 
     18 O3'       109.8880   89.3930   38.6730 O.3       1 ATP501      0.0000 
     19 C2'       109.5800   88.9980   36.3250 C.3       1 ATP501      0.0000 
     20 O2'       109.7640   90.4140   36.2600 O.3       1 ATP501      0.0000 
     21 C1'       110.8560   88.2250   35.9860 C.3       1 ATP501      0.0000 
     22 N9        110.8600   87.9530   34.5340 N.pl3     1 ATP501      0.0000 
     23 C8        109.8740   87.3540   33.8180 C.2       1 ATP501      0.0000 
     24 N7        110.2200   87.3040   32.5050 N.2       1 ATP501      0.0000 
     25 C5        111.4180   87.8990   32.3700 C.ar      1 ATP501      0.0000 
     26 C6        112.3430   88.1880   31.2660 C.ar      1 ATP501      0.0000 
     27 N6        112.0480   87.8320   29.9960 N.pl3     1 ATP501      0.0000 
     28 N1        113.4920   88.8160   31.5540 N.ar      1 ATP501      0.0000 
     29 C2        113.7980   89.1900   32.8060 C.ar      1 ATP501      0.0000 
     30 N3        113.0080   88.9600   33.8660 N.ar      1 ATP501      0.0000 
     31 C4        111.8330   88.3260   33.7080 C.ar      1 ATP501      0.0000 
@<TRIPOS>BOND
     1    1    2 ar   
     2    1    3 ar   
     3    1    4 ar   
     4    1    8 1    
     5    5    6 ar   
     6    5    7 ar   
     7    5    8 1    
     8    5   12 1    
     9    9   10 ar   
    10    9   11 ar   
    11    9   12 1    
    12    9   13 1    
    13   13   14 1    
    14   14   15 1    
    15   15   16 1    
    16   15   17 1    
    17   16   21 1    
    18   17   18 1    
    19   17   19 1    
    20   19   20 1    
    21   19   21 1    
    22   21   22 1    
    23   22   23 1    
    24   22   31 1    
    25   23   24 2    
    26   24   25 1    
    27   25   26 ar   
    28   25   31 ar   
    29   26   27 1    
    30   26   28 ar   
    31   28   29 ar   
    32   29   30 ar   
    33   30   31 ar   
@<TRIPOS>SUBSTRUCTURE
     1 ATP501      1 GROUP   
@<TRIPOS>SET
ATOM$ORANGE STATIC     ATOMS   COLORGROUP SYSTEM 
20 14 14 15 15 17 17 19 19 21 21 23 23 25 25 26 26 29 \
29 31 31 

