#    Name: 5w7p_1_SAM_CAVITY_N1_6
#    Modification time : Fri May 22 19:15:57 2020

@<TRIPOS>MOLECULE
5w7p_1_SAM_CAVITY_N1_6
   78     0     7     0     0
SMALL
NO_CHARGES


@<TRIPOS>ATOM
      1 OG         17.5700  132.7000   21.5100 O.3       1 SER1        0.0000 
      2 OG         12.3300  137.5900   23.7200 O.3       1 SER1        0.0000 
      3 OG         10.9500  139.1500   24.1200 O.3       1 SER1        0.0000 
      4 OG         16.5100  133.2300   27.0000 O.3       1 SER1        0.0000 
      5 N          15.4900  132.2900   21.5600 N.am      2 ALA2        0.0000 
      6 N          16.5900  132.0800   20.5600 N.am      2 ALA2        0.0000 
      7 N          13.0100  134.0600   22.9600 N.am      2 ALA2        0.0000 
      8 N          16.7500  131.5600   23.1000 N.am      2 ALA2        0.0000 
      9 N          15.3700  133.1200   23.5100 N.am      2 ALA2        0.0000 
     10 N          16.4700  132.9100   22.5100 N.am      2 ALA2        0.0000 
     11 N          13.9900  134.6800   23.9100 N.am      2 ALA2        0.0000 
     12 N          15.0900  134.4700   22.9100 N.am      2 ALA2        0.0000 
     13 N          16.6300  132.4000   25.0500 N.am      2 ALA2        0.0000 
     14 N          15.2500  133.9600   25.4500 N.am      2 ALA2        0.0000 
     15 N          16.3500  133.7500   24.4600 N.am      2 ALA2        0.0000 
     16 N          17.4500  133.5300   23.4600 N.am      2 ALA2        0.0000 
     17 OD1        17.7300  132.1900   24.0500 O.co2     3 ASP3        0.0000 
     18 OD1        17.8900  131.6700   26.5900 O.co2     3 ASP3        0.0000 
     19 OD1        17.6100  133.0200   26.0000 O.co2     3 ASP3        0.0000 
     20 OD1        18.7100  132.8100   25.0000 O.co2     3 ASP3        0.0000 
     21 NZ          4.3100  140.1100   25.6200 N.4       4 LYS4        0.0000 
     22 NZ          4.0300  141.4500   25.0300 N.4       4 LYS4        0.0000 
     23 NZ          3.7500  142.8000   24.4300 N.4       4 LYS4        0.0000 
     24 NZ          4.8500  142.5900   23.4300 N.4       4 LYS4        0.0000 
     25 NZ         10.8100  134.4900   24.9600 N.4       4 LYS4        0.0000 
     26 NZ         11.3500  136.9700   22.7700 N.4       4 LYS4        0.0000 
     27 NZ          5.2900  140.7300   26.5700 N.4       4 LYS4        0.0000 
     28 NZ         13.1700  133.5500   25.5000 N.4       4 LYS4        0.0000 
     29 NZ         11.7900  135.1100   25.9100 N.4       4 LYS4        0.0000 
     30 NZ         12.8900  134.9000   24.9100 N.4       4 LYS4        0.0000 
     31 NZ         13.7100  136.0300   23.3200 N.4       4 LYS4        0.0000 
     32 NZ         13.4300  137.3800   22.7200 N.4       4 LYS4        0.0000 
     33 NZ         14.6900  136.6600   24.2700 N.4       4 LYS4        0.0000 
     34 NZ         15.1300  134.7900   27.4000 N.4       4 LYS4        0.0000 
     35 CZ          8.2900  135.9400   21.8700 C.ar      5 PHE5        0.0000 
     36 CZ          9.5500  135.2100   23.4100 C.ar      5 PHE5        0.0000 
     37 CZ          7.0700  136.9900   24.8200 C.ar      5 PHE5        0.0000 
     38 CZ          8.1700  136.7700   23.8200 C.ar      5 PHE5        0.0000 
     39 CZ          9.2700  136.5600   22.8200 C.ar      5 PHE5        0.0000 
     40 CZ          5.6900  138.5500   25.2200 C.ar      5 PHE5        0.0000 
     41 CZ          9.4300  136.0500   25.3600 C.ar      5 PHE5        0.0000 
     42 CZ         10.5300  135.8300   24.3600 C.ar      5 PHE5        0.0000 
     43 CZ          8.0500  137.6100   25.7600 C.ar      5 PHE5        0.0000 
     44 CZ          9.1500  137.4000   24.7700 C.ar      5 PHE5        0.0000 
     45 CZ          6.6700  139.1700   26.1700 C.ar      5 PHE5        0.0000 
     46 CZ         11.5100  136.4600   25.3100 C.ar      5 PHE5        0.0000 
     47 CZ         12.6100  136.2400   24.3100 C.ar      5 PHE5        0.0000 
     48 CZ         11.2300  137.8100   24.7200 C.ar      5 PHE5        0.0000 
     49 CZ         13.8700  135.5200   25.8600 C.ar      5 PHE5        0.0000 
     50 CZ         14.8500  136.1400   26.8100 C.ar      5 PHE5        0.0000 
     51 CA         10.3700  136.3500   21.8200 C.3       6 GLY6        0.0000 
     52 CA          4.5900  138.7600   26.2200 C.3       6 GLY6        0.0000 
     53 CA          6.7900  138.3300   24.2200 C.3       6 GLY6        0.0000 
     54 CA          7.8900  138.1200   23.2200 C.3       6 GLY6        0.0000 
     55 CA          8.9900  137.9100   22.2200 C.3       6 GLY6        0.0000 
     56 CA          5.4100  139.8900   24.6200 C.3       6 GLY6        0.0000 
     57 CA          5.1300  141.2400   24.0300 C.3       6 GLY6        0.0000 
     58 CA          5.9500  142.3800   22.4400 C.3       6 GLY6        0.0000 
     59 CA         11.9100  134.2700   23.9600 C.3       6 GLY6        0.0000 
     60 CA         11.6300  135.6200   23.3600 C.3       6 GLY6        0.0000 
     61 CA         12.7300  135.4100   22.3700 C.3       6 GLY6        0.0000 
     62 CA          7.7700  138.9600   25.1700 C.3       6 GLY6        0.0000 
     63 CA          8.8700  138.7400   24.1700 C.3       6 GLY6        0.0000 
     64 CA          9.9700  138.5300   23.1700 C.3       6 GLY6        0.0000 
     65 CA          6.3900  140.5200   25.5700 C.3       6 GLY6        0.0000 
     66 CA          5.0100  142.0800   25.9800 C.3       6 GLY6        0.0000 
     67 CA          6.1100  141.8600   24.9800 C.3       6 GLY6        0.0000 
     68 CA          4.7300  143.4200   25.3800 C.3       6 GLY6        0.0000 
     69 CA          5.8300  143.2100   24.3800 C.3       6 GLY6        0.0000 
     70 CA         16.1900  134.2600   21.9100 C.3       6 GLY6        0.0000 
     71 CA          9.8500  139.3700   25.1200 C.3       6 GLY6        0.0000 
     72 CA         14.9700  135.3100   24.8600 C.3       6 GLY6        0.0000 
     73 CA         16.0700  135.0900   23.8600 C.3       6 GLY6        0.0000 
     74 CA         17.1700  134.8800   22.8600 C.3       6 GLY6        0.0000 
     75 CA         16.2300  134.5800   26.4000 C.3       6 GLY6        0.0000 
     76 CA         17.3300  134.3700   25.4100 C.3       6 GLY6        0.0000 
     77 CA         15.9500  135.9300   25.8100 C.3       6 GLY6        0.0000 
     78 DU         10.2500  137.1800   23.7700 H         7 CUB7        0.0000 
@<TRIPOS>BOND
@<TRIPOS>SUBSTRUCTURE
     1 SER1        1 GROUP   
     2 ALA2        5 GROUP   
     3 ASP3       17 GROUP   
     4 LYS4       21 GROUP   
     5 PHE5       35 GROUP   
     6 GLY6       51 GROUP   
     7 CUB7       78 GROUP   
@<TRIPOS>SET

