#    Name: 5w7p_1_SAM
#    Modification time : Fri May 22 19:15:55 2020

@<TRIPOS>MOLECULE
5w7p_1_SAM
   27    29     1     0     0
SMALL
NO_CHARGES


@<TRIPOS>ATOM
      1 N          15.3910  131.5550   20.6550 N.4       1 SAM501      0.0000 
      2 CA         16.3980  132.5420   21.0320 C.3       1 SAM501      0.0000 
      3 C          17.6270  131.8580   21.6140 C.2       1 SAM501      0.0000 
      4 O          18.7120  132.4340   21.6230 O.co2     1 SAM501      0.0000 
      5 OXT        17.5770  130.7190   22.0820 O.co2     1 SAM501      0.0000 
      6 CB         15.8620  133.5630   22.0390 C.3       1 SAM501      0.0000 
      7 CG         15.6230  133.1250   23.4910 C.3       1 SAM501      0.0000 
      8 SD         15.3120  134.5490   24.5730 S.3       1 SAM501      0.0000 
      9 CE         15.6430  133.8890   26.2360 C.3       1 SAM501      0.0000 
     10 C5'        13.4950  134.6270   24.5660 C.3       1 SAM501      0.0000 
     11 C4'        12.9350  135.4340   23.3940 C.3       1 SAM501      0.0000 
     12 O4'        11.5190  135.4410   23.3950 O.3       1 SAM501      0.0000 
     13 C3'        13.3690  136.8920   23.3990 C.3       1 SAM501      0.0000 
     14 O3'        13.9970  137.1320   22.1620 O.3       1 SAM501      0.0000 
     15 C2'        12.0800  137.6970   23.5020 C.3       1 SAM501      0.0000 
     16 O2'        12.0650  138.8520   22.6930 O.3       1 SAM501      0.0000 
     17 C1'        11.0490  136.7130   22.9850 C.3       1 SAM501      0.0000 
     18 N9          9.6910  137.0150   23.4820 N.pl3     1 SAM501      0.0000 
     19 C8          9.3240  137.3840   24.7500 C.2       1 SAM501      0.0000 
     20 N7          7.9790  137.5630   24.7800 N.2       1 SAM501      0.0000 
     21 C5          7.4820  137.3180   23.5470 C.ar      1 SAM501      0.0000 
     22 C6          6.1910  137.3560   23.0220 C.ar      1 SAM501      0.0000 
     23 N6          5.1370  137.6830   23.7760 N.pl3     1 SAM501      0.0000 
     24 N1          6.0070  137.0420   21.6950 N.ar      1 SAM501      0.0000 
     25 C2          7.0830  136.7090   20.8970 C.ar      1 SAM501      0.0000 
     26 N3          8.3540  136.6710   21.4240 N.ar      1 SAM501      0.0000 
     27 C4          8.5510  136.9740   22.7240 C.ar      1 SAM501      0.0000 
@<TRIPOS>BOND
     1    1    2 1    
     2    2    3 1    
     3    2    6 1    
     4    3    4 ar   
     5    3    5 ar   
     6    6    7 1    
     7    7    8 1    
     8    8    9 1    
     9    8   10 1    
    10   10   11 1    
    11   11   12 1    
    12   11   13 1    
    13   12   17 1    
    14   13   14 1    
    15   13   15 1    
    16   15   16 1    
    17   15   17 1    
    18   17   18 1    
    19   18   19 1    
    20   18   27 1    
    21   19   20 2    
    22   20   21 1    
    23   21   22 ar   
    24   21   27 ar   
    25   22   23 1    
    26   22   24 ar   
    27   24   25 ar   
    28   25   26 ar   
    29   26   27 ar   
@<TRIPOS>SUBSTRUCTURE
     1 SAM501      1 GROUP   
@<TRIPOS>SET

