#    Name: 5zsn_1_ACK
#    Modification time : Fri May 22 19:31:05 2020

@<TRIPOS>MOLECULE
5zsn_1_ACK
   22    25     1     0     0
SMALL
NO_CHARGES


@<TRIPOS>ATOM
      1 O3P       -15.0110  -30.3330   -7.3500 O.co2     1 ACK1011     0.0000 
      2 P         -15.7370  -30.3780   -8.6930 P.3       1 ACK1011     0.0000 
      3 O1P       -16.7830  -31.4790   -8.8360 O.co2     1 ACK1011     0.0000 
      4 O2'       -14.7270  -30.4820   -9.9490 O.3       1 ACK1011     0.0000 
      5 O3'       -16.3420  -28.9090   -9.0480 O.3       1 ACK1011     0.0000 
      6 C3'       -15.5630  -28.2240  -10.0360 C.3       1 ACK1011     0.0000 
      7 C4'       -16.3840  -27.5270  -11.1060 C.3       1 ACK1011     0.0000 
      8 O4'       -16.0610  -28.1980  -12.3530 O.3       1 ACK1011     0.0000 
      9 C5'       -16.0830  -26.0210  -11.1360 C.3       1 ACK1011     0.0000 
     10 O5'       -14.6790  -25.7570  -11.2970 O.3       1 ACK1011     0.0000 
     11 C1'       -15.3550  -29.4470  -12.1350 C.3       1 ACK1011     0.0000 
     12 N9        -14.3740  -29.7300  -13.2350 N.pl3     1 ACK1011     0.0000 
     13 C8        -14.3660  -30.8600  -13.9860 C.2       1 ACK1011     0.0000 
     14 N7        -13.3780  -30.8070  -14.9170 N.2       1 ACK1011     0.0000 
     15 C5        -12.7220  -29.6280  -14.7910 C.ar      1 ACK1011     0.0000 
     16 C6        -11.5520  -28.9470  -15.4530 C.ar      1 ACK1011     0.0000 
     17 N6        -10.9060  -29.5530  -16.4950 N.pl3     1 ACK1011     0.0000 
     18 N1        -11.1670  -27.7120  -14.9640 N.ar      1 ACK1011     0.0000 
     19 C2        -11.7960  -27.0720  -13.9240 C.ar      1 ACK1011     0.0000 
     20 N3        -12.8660  -27.6310  -13.2810 N.ar      1 ACK1011     0.0000 
     21 C4        -13.3730  -28.8960  -13.6580 C.ar      1 ACK1011     0.0000 
     22 C2'       -14.7240  -29.2870  -10.7550 C.3       1 ACK1011     0.0000 
@<TRIPOS>BOND
     1    1    2 ar   
     2    2    3 ar   
     3    2    4 1    
     4    2    5 1    
     5    4   22 1    
     6    5    6 1    
     7    6    7 1    
     8    6   22 1    
     9    7    8 1    
    10    7    9 1    
    11    8   11 1    
    12    9   10 1    
    13   11   12 1    
    14   11   22 1    
    15   12   13 1    
    16   12   21 1    
    17   13   14 2    
    18   14   15 1    
    19   15   16 ar   
    20   15   21 ar   
    21   16   17 1    
    22   16   18 ar   
    23   18   19 ar   
    24   19   20 ar   
    25   20   21 ar   
@<TRIPOS>SUBSTRUCTURE
     1 ACK1011     1 GROUP   
@<TRIPOS>SET

