#    Name: 5zsn_2_ACK
#    Modification time : Fri May 22 19:31:18 2020

@<TRIPOS>MOLECULE
5zsn_2_ACK
   22    25     1     0     0
SMALL
NO_CHARGES


@<TRIPOS>ATOM
      1 O3P        12.0940  -15.0620  -43.8260 O.co2     1 ACK1021     0.0000 
      2 P          10.7570  -14.4390  -43.4500 P.3       1 ACK1021     0.0000 
      3 O1P        10.0310  -13.8140  -44.6260 O.co2     1 ACK1021     0.0000 
      4 O2'         9.7690  -15.5080  -42.7550 O.3       1 ACK1021     0.0000 
      5 O3'        10.9520  -13.4240  -42.2090 O.3       1 ACK1021     0.0000 
      6 C3'        10.2560  -13.8770  -41.0490 C.3       1 ACK1021     0.0000 
      7 C4'        11.1930  -14.1480  -39.8860 C.3       1 ACK1021     0.0000 
      8 O4'        10.8430  -15.4840  -39.4440 O.3       1 ACK1021     0.0000 
      9 C5'        11.0330  -13.0750  -38.8090 C.3       1 ACK1021     0.0000 
     10 O5'         9.6560  -13.0350  -38.3690 O.3       1 ACK1021     0.0000 
     11 C1'        10.2180  -16.2580  -40.4900 C.3       1 ACK1021     0.0000 
     12 N9          9.2210  -17.2370  -39.9750 N.pl3     1 ACK1021     0.0000 
     13 C8          9.1610  -18.5790  -40.2140 C.2       1 ACK1021     0.0000 
     14 N7          8.1100  -19.1420  -39.5350 N.2       1 ACK1021     0.0000 
     15 C5          7.4810  -18.1530  -38.8470 C.ar      1 ACK1021     0.0000 
     16 C6          6.3040  -18.0070  -37.9200 C.ar      1 ACK1021     0.0000 
     17 N6          5.5350  -19.0820  -37.5890 N.pl3     1 ACK1021     0.0000 
     18 N1          6.0060  -16.7520  -37.4320 N.ar      1 ACK1021     0.0000 
     19 C2          6.7080  -15.6310  -37.7470 C.ar      1 ACK1021     0.0000 
     20 N3          7.7900  -15.6940  -38.5640 N.ar      1 ACK1021     0.0000 
     21 C4          8.2140  -16.8900  -39.1390 C.ar      1 ACK1021     0.0000 
     22 C2'         9.5660  -15.2100  -41.3730 C.3       1 ACK1021     0.0000 
@<TRIPOS>BOND
     1    1    2 ar   
     2    2    3 ar   
     3    2    4 1    
     4    2    5 1    
     5    4   22 1    
     6    5    6 1    
     7    6    7 1    
     8    6   22 1    
     9    7    8 1    
    10    7    9 1    
    11    8   11 1    
    12    9   10 1    
    13   11   12 1    
    14   11   22 1    
    15   12   13 1    
    16   12   21 1    
    17   13   14 2    
    18   14   15 1    
    19   15   16 ar   
    20   15   21 ar   
    21   16   17 1    
    22   16   18 ar   
    23   18   19 ar   
    24   19   20 ar   
    25   20   21 ar   
@<TRIPOS>SUBSTRUCTURE
     1 ACK1021     1 GROUP   
@<TRIPOS>SET

