#    Name: 6sem_1_FAD
#    Modification time : Fri May 22 19:35:32 2020

@<TRIPOS>MOLECULE
6sem_1_FAD
   53    58     1     0     1
SMALL
NO_CHARGES


@<TRIPOS>ATOM
      1 PA         43.3460   -0.2360   30.5030 P.3       1 FAD601      0.0000 
      2 O1A        43.0840   -1.7630   30.5400 O.co2     1 FAD601      0.0000 
      3 O2A        44.3880    0.4580   29.6450 O.co2     1 FAD601      0.0000 
      4 O5B        41.8800    0.2300   30.0010 O.3       1 FAD601      0.0000 
      5 C5B        41.5800    1.5590   29.5760 C.3       1 FAD601      0.0000 
      6 C4B        40.4610    1.5960   28.5440 C.3       1 FAD601      0.0000 
      7 O4B        40.2610    2.9680   28.2160 O.3       1 FAD601      0.0000 
      8 C3B        40.8210    0.8960   27.2360 C.3       1 FAD601      0.0000 
      9 O3B        39.8090   -0.0660   26.8670 O.3       1 FAD601      0.0000 
     10 C2B        41.0010    2.0300   26.2270 C.3       1 FAD601      0.0000 
     11 O2B        40.6070    1.6460   24.9100 O.3       1 FAD601      0.0000 
     12 C1B        40.1020    3.1070   26.7990 C.3       1 FAD601      0.0000 
     13 N9A        40.3600    4.5200   26.4370 N.pl3     1 FAD601      0.0000 
     14 C8A        41.5480    5.1300   26.3620 C.2       1 FAD601      0.0000 
     15 N7A        41.3730    6.4460   26.0240 N.2       1 FAD601      0.0000 
     16 C5A        40.0670    6.6880   25.9200 C.ar      1 FAD601      0.0000 
     17 C6A        39.2150    7.8550   25.6100 C.ar      1 FAD601      0.0000 
     18 N6A        39.7230    9.0800   25.3430 N.pl3     1 FAD601      0.0000 
     19 N1A        37.8840    7.6450   25.5860 N.ar      1 FAD601      0.0000 
     20 C2A        37.3060    6.4580   25.8340 C.ar      1 FAD601      0.0000 
     21 N3A        38.0490    5.3740   26.1330 N.ar      1 FAD601      0.0000 
     22 C4A        39.4010    5.4150   26.1890 C.ar      1 FAD601      0.0000 
     23 N1         47.5520   -6.2180   37.6540 N.2       1 FAD601      0.0000 
     24 C2         47.1620   -7.2580   38.4350 C.2       1 FAD601      0.0000 
     25 O2         46.3350   -7.0370   39.3470 O.2       1 FAD601      0.0000 
     26 N3         47.6430   -8.5120   38.2570 N.am      1 FAD601      0.0000 
     27 C4         48.5470   -8.8120   37.3010 C.2       1 FAD601      0.0000 
     28 O4         49.0170   -9.9570   37.1290 O.2       1 FAD601      0.0000 
     29 C4X        49.0150   -7.7470   36.4170 C.2       1 FAD601      0.0000 
     30 N5         49.9140   -8.0310   35.4580 N.2       1 FAD601      0.0000 
     31 C5X        50.3500   -7.0440   34.6320 C.ar      1 FAD601      0.0000 
     32 C6         51.2870   -7.3670   33.6370 C.ar      1 FAD601      0.0000 
     33 C7         51.7540   -6.3910   32.7560 C.ar      1 FAD601      0.0000 
     34 C7M        52.7720   -6.7930   31.7160 C.3       1 FAD601      0.0000 
     35 C8         51.2400   -4.9860   32.8850 C.ar      1 FAD601      0.0000 
     36 C8M        51.7030   -3.8670   31.9870 C.3       1 FAD601      0.0000 
     37 C9         50.3190   -4.6590   33.8770 C.ar      1 FAD601      0.0000 
     38 C9A        49.8330   -5.6210   34.7710 C.ar      1 FAD601      0.0000 
     39 N10        48.8580   -5.3100   35.7870 N.pl3     1 FAD601      0.0000 
     40 C10        48.4550   -6.3830   36.6430 C.2       1 FAD601      0.0000 
     41 C1'        48.2800   -3.9420   35.9860 C.3       1 FAD601      0.0000 
     42 C2'        46.7980   -3.6310   35.5380 C.3       1 FAD601      0.0000 
     43 O2'        45.9270   -4.7520   35.4080 O.3       1 FAD601      0.0000 
     44 C3'        46.6460   -2.8610   34.2340 C.3       1 FAD601      0.0000 
     45 O3'        47.2640   -1.5710   34.4080 O.3       1 FAD601      0.0000 
     46 C4'        45.1560   -2.7740   33.8100 C.3       1 FAD601      0.0000 
     47 O4'        45.0670   -2.6140   32.3860 O.3       1 FAD601      0.0000 
     48 C5'        44.3430   -1.6270   34.4310 C.3       1 FAD601      0.0000 
     49 O5'        43.0480   -1.4290   33.8100 O.3       1 FAD601      0.0000 
     50 P          42.5970    0.0230   33.2520 P.3       1 FAD601      0.0000 
     51 O1P        41.1580   -0.1080   32.7940 O.co2     1 FAD601      0.0000 
     52 O2P        42.7990    1.1160   34.2560 O.co2     1 FAD601      0.0000 
     53 O3P        43.5990    0.3430   32.0040 O.3       1 FAD601      0.0000 
@<TRIPOS>BOND
     1    1    2 ar   
     2    1    3 ar   
     3    1    4 1    
     4    1   53 1    
     5    4    5 1    
     6    5    6 1    
     7    6    7 1    
     8    6    8 1    
     9    7   12 1    
    10    8    9 1    
    11    8   10 1    
    12   10   11 1    
    13   10   12 1    
    14   12   13 1    
    15   13   14 1    
    16   13   22 1    
    17   14   15 2    
    18   15   16 1    
    19   16   17 ar   
    20   16   22 ar   
    21   17   18 1    
    22   17   19 ar   
    23   19   20 ar   
    24   20   21 ar   
    25   21   22 ar   
    26   23   24 1    
    27   23   40 2    
    28   24   25 2    
    29   24   26 am   
    30   26   27 am   
    31   27   28 2    
    32   27   29 1    
    33   29   30 2    
    34   29   40 1    
    35   30   31 1    
    36   31   32 ar   
    37   31   38 ar   
    38   32   33 ar   
    39   33   34 1    
    40   33   35 ar   
    41   35   36 1    
    42   35   37 ar   
    43   37   38 ar   
    44   38   39 1    
    45   39   40 1    
    46   39   41 1    
    47   41   42 1    
    48   42   43 1    
    49   42   44 1    
    50   44   45 1    
    51   44   46 1    
    52   46   47 1    
    53   46   48 1    
    54   48   49 1    
    55   49   50 1    
    56   50   51 ar   
    57   50   52 ar   
    58   50   53 1    
@<TRIPOS>SUBSTRUCTURE
     1 FAD601      1 GROUP   
@<TRIPOS>SET
ATOM$ORANGE STATIC     ATOMS   COLORGROUP SYSTEM 
54 5 5 6 6 8 8 10 10 12 12 14 14 16 16 17 17 20 \
20 22 22 24 24 27 27 29 29 31 31 32 32 33 33 34 34 35 \
35 36 36 37 37 38 38 40 40 41 41 42 42 44 44 46 46 48 \
48 

