#    Name: 6sem_3_FAD
#    Modification time : Fri May 22 19:35:45 2020

@<TRIPOS>MOLECULE
6sem_3_FAD
   53    58     1     0     1
SMALL
NO_CHARGES


@<TRIPOS>ATOM
      1 PA        -32.8290   -9.3260   40.7590 P.3       1 FAD601      0.0000 
      2 O1A       -31.3450   -8.9310   40.9250 O.co2     1 FAD601      0.0000 
      3 O2A       -33.5200  -10.4690   41.5090 O.co2     1 FAD601      0.0000 
      4 O5B       -33.6730   -8.0670   41.3250 O.3       1 FAD601      0.0000 
      5 C5B       -34.9350   -8.2300   42.0000 C.3       1 FAD601      0.0000 
      6 C4B       -35.1770   -7.1220   43.0240 C.3       1 FAD601      0.0000 
      7 O4B       -36.5920   -6.8690   43.0960 O.3       1 FAD601      0.0000 
      8 C3B       -34.6920   -7.5450   44.4050 C.3       1 FAD601      0.0000 
      9 O3B       -33.9270   -6.5090   45.0640 O.3       1 FAD601      0.0000 
     10 C2B       -35.9740   -7.8560   45.1230 C.3       1 FAD601      0.0000 
     11 O2B       -35.8160   -7.5290   46.4850 O.3       1 FAD601      0.0000 
     12 C1B       -36.9560   -6.9150   44.4660 C.3       1 FAD601      0.0000 
     13 N9A       -38.3830   -7.2440   44.4490 N.pl3     1 FAD601      0.0000 
     14 C8A       -38.9810   -8.3700   44.0300 C.2       1 FAD601      0.0000 
     15 N7A       -40.3430   -8.2680   44.1080 N.2       1 FAD601      0.0000 
     16 C5A       -40.6120   -7.0330   44.5780 C.ar      1 FAD601      0.0000 
     17 C6A       -41.8110   -6.2270   44.9050 C.ar      1 FAD601      0.0000 
     18 N6A       -43.0650   -6.6970   44.7640 N.pl3     1 FAD601      0.0000 
     19 N1A       -41.6120   -4.9750   45.3700 N.ar      1 FAD601      0.0000 
     20 C2A       -40.3970   -4.4220   45.5310 C.ar      1 FAD601      0.0000 
     21 N3A       -39.2670   -5.0830   45.2500 N.ar      1 FAD601      0.0000 
     22 C4A       -39.3120   -6.3630   44.7860 C.ar      1 FAD601      0.0000 
     23 N1        -25.4880  -12.0510   34.1150 N.2       1 FAD601      0.0000 
     24 C2        -24.3780  -11.5020   33.5870 C.2       1 FAD601      0.0000 
     25 O2        -24.5220  -10.4990   32.8790 O.2       1 FAD601      0.0000 
     26 N3        -23.1370  -11.9940   33.7850 N.am      1 FAD601      0.0000 
     27 C4        -22.9200  -13.0790   34.5400 C.2       1 FAD601      0.0000 
     28 O4        -21.7520  -13.4770   34.6970 O.2       1 FAD601      0.0000 
     29 C4X       -24.0970  -13.7510   35.1770 C.2       1 FAD601      0.0000 
     30 N5        -24.0000  -14.8440   35.9690 N.2       1 FAD601      0.0000 
     31 C5X       -25.0900  -15.4240   36.5320 C.ar      1 FAD601      0.0000 
     32 C6        -24.9160  -16.5480   37.3290 C.ar      1 FAD601      0.0000 
     33 C7        -26.0030  -17.1830   37.9320 C.ar      1 FAD601      0.0000 
     34 C7M       -25.7860  -18.4160   38.7910 C.3       1 FAD601      0.0000 
     35 C8        -27.3640  -16.6430   37.7180 C.ar      1 FAD601      0.0000 
     36 C8M       -28.5500  -17.3160   38.3580 C.3       1 FAD601      0.0000 
     37 C9        -27.5470  -15.5270   36.9190 C.ar      1 FAD601      0.0000 
     38 C9A       -26.4640  -14.8790   36.3110 C.ar      1 FAD601      0.0000 
     39 N10       -26.6030  -13.7010   35.5000 N.pl3     1 FAD601      0.0000 
     40 C10       -25.4300  -13.1480   34.9070 C.2       1 FAD601      0.0000 
     41 C1'       -27.9200  -13.0930   35.1760 C.3       1 FAD601      0.0000 
     42 C2'       -28.2940  -11.7560   35.8010 C.3       1 FAD601      0.0000 
     43 O2'       -27.1990  -10.9230   36.1550 O.3       1 FAD601      0.0000 
     44 C3'       -29.0740  -11.9580   37.0450 C.3       1 FAD601      0.0000 
     45 O3'       -30.2480  -12.6250   36.6570 O.3       1 FAD601      0.0000 
     46 C4'       -29.3690  -10.5650   37.5570 C.3       1 FAD601      0.0000 
     47 O4'       -28.9510  -10.4890   38.9150 O.3       1 FAD601      0.0000 
     48 C5'       -30.8340  -10.1810   37.4570 C.3       1 FAD601      0.0000 
     49 O5'       -30.9650   -8.8840   38.0330 O.3       1 FAD601      0.0000 
     50 P         -32.4350   -8.2720   38.0930 P.3       1 FAD601      0.0000 
     51 O1P       -32.2930   -6.9290   38.7380 O.co2     1 FAD601      0.0000 
     52 O2P       -33.0670   -8.3090   36.7190 O.co2     1 FAD601      0.0000 
     53 O3P       -33.1520   -9.3180   39.1420 O.3       1 FAD601      0.0000 
@<TRIPOS>BOND
     1    1    2 ar   
     2    1    3 ar   
     3    1    4 1    
     4    1   53 1    
     5    4    5 1    
     6    5    6 1    
     7    6    7 1    
     8    6    8 1    
     9    7   12 1    
    10    8    9 1    
    11    8   10 1    
    12   10   11 1    
    13   10   12 1    
    14   12   13 1    
    15   13   14 1    
    16   13   22 1    
    17   14   15 2    
    18   15   16 1    
    19   16   17 ar   
    20   16   22 ar   
    21   17   18 1    
    22   17   19 ar   
    23   19   20 ar   
    24   20   21 ar   
    25   21   22 ar   
    26   23   24 1    
    27   23   40 2    
    28   24   25 2    
    29   24   26 am   
    30   26   27 am   
    31   27   28 2    
    32   27   29 1    
    33   29   30 2    
    34   29   40 1    
    35   30   31 1    
    36   31   32 ar   
    37   31   38 ar   
    38   32   33 ar   
    39   33   34 1    
    40   33   35 ar   
    41   35   36 1    
    42   35   37 ar   
    43   37   38 ar   
    44   38   39 1    
    45   39   40 1    
    46   39   41 1    
    47   41   42 1    
    48   42   43 1    
    49   42   44 1    
    50   44   45 1    
    51   44   46 1    
    52   46   47 1    
    53   46   48 1    
    54   48   49 1    
    55   49   50 1    
    56   50   51 ar   
    57   50   52 ar   
    58   50   53 1    
@<TRIPOS>SUBSTRUCTURE
     1 FAD601      1 GROUP   
@<TRIPOS>SET
ATOM$ORANGE STATIC     ATOMS   COLORGROUP SYSTEM 
54 5 5 6 6 8 8 10 10 12 12 14 14 16 16 17 17 20 \
20 22 22 24 24 27 27 29 29 31 31 32 32 33 33 34 34 35 \
35 36 36 37 37 38 38 40 40 41 41 42 42 44 44 46 46 48 \
48 

