#    Name: 6sem_2_FAD
#    Modification time : Fri May 22 19:35:39 2020

@<TRIPOS>MOLECULE
6sem_2_FAD
   53    58     1     0     1
SMALL
NO_CHARGES


@<TRIPOS>ATOM
      1 PA          7.5840  -42.0110   52.0520 P.3       1 FAD601      0.0000 
      2 O1A         6.1850  -42.4530   51.6070 O.co2     1 FAD601      0.0000 
      3 O2A         7.9460  -40.7110   52.7640 O.co2     1 FAD601      0.0000 
      4 O5B         8.1090  -43.1670   53.0060 O.3       1 FAD601      0.0000 
      5 C5B         8.2960  -42.9590   54.4040 C.3       1 FAD601      0.0000 
      6 C4B         7.9400  -44.2660   55.1110 C.3       1 FAD601      0.0000 
      7 O4B         9.1210  -44.7810   55.7250 O.3       1 FAD601      0.0000 
      8 C3B         6.9170  -44.0290   56.2030 C.3       1 FAD601      0.0000 
      9 O3B         6.1240  -45.2080   56.3910 O.3       1 FAD601      0.0000 
     10 C2B         7.8330  -43.6740   57.3530 C.3       1 FAD601      0.0000 
     11 O2B         7.2820  -43.8320   58.6580 O.3       1 FAD601      0.0000 
     12 C1B         8.9370  -44.6760   57.1310 C.3       1 FAD601      0.0000 
     13 N9A        10.1660  -44.3080   57.8720 N.pl3     1 FAD601      0.0000 
     14 C8A        10.8140  -43.1340   57.9000 C.2       1 FAD601      0.0000 
     15 N7A        11.8790  -43.2130   58.7340 N.2       1 FAD601      0.0000 
     16 C5A        11.8800  -44.4510   59.2420 C.ar      1 FAD601      0.0000 
     17 C6A        12.7110  -45.2130   60.1720 C.ar      1 FAD601      0.0000 
     18 N6A        13.8030  -44.6660   60.7610 N.pl3     1 FAD601      0.0000 
     19 N1A        12.3440  -46.4800   60.4250 N.ar      1 FAD601      0.0000 
     20 C2A        11.2710  -47.0810   59.8760 C.ar      1 FAD601      0.0000 
     21 N3A        10.4800  -46.4490   59.0210 N.ar      1 FAD601      0.0000 
     22 C4A        10.7550  -45.1680   58.6780 C.ar      1 FAD601      0.0000 
     23 N1          4.7520  -39.1180   42.5390 N.2       1 FAD601      0.0000 
     24 C2          4.0060  -39.5500   41.4870 C.2       1 FAD601      0.0000 
     25 O2          4.4380  -40.4660   40.7850 O.2       1 FAD601      0.0000 
     26 N3          2.8170  -39.0460   41.1510 N.am      1 FAD601      0.0000 
     27 C4          2.2690  -38.0500   41.8530 C.2       1 FAD601      0.0000 
     28 O4          1.1550  -37.5870   41.5120 O.2       1 FAD601      0.0000 
     29 C4X         3.0150  -37.4970   43.0230 C.2       1 FAD601      0.0000 
     30 N5          2.5100  -36.5040   43.7810 N.2       1 FAD601      0.0000 
     31 C5X         3.1870  -36.0110   44.8400 C.ar      1 FAD601      0.0000 
     32 C6          2.5940  -34.9740   45.5460 C.ar      1 FAD601      0.0000 
     33 C7          3.2320  -34.4070   46.6370 C.ar      1 FAD601      0.0000 
     34 C7M         2.5810  -33.2790   47.3870 C.3       1 FAD601      0.0000 
     35 C8          4.5520  -34.9170   47.0560 C.ar      1 FAD601      0.0000 
     36 C8M         5.2070  -34.2830   48.2530 C.3       1 FAD601      0.0000 
     37 C9          5.1630  -35.9640   46.3570 C.ar      1 FAD601      0.0000 
     38 C9A         4.5330  -36.5410   45.2390 C.ar      1 FAD601      0.0000 
     39 N10         5.0920  -37.6200   44.4730 N.pl3     1 FAD601      0.0000 
     40 C10         4.3380  -38.1030   43.3470 C.2       1 FAD601      0.0000 
     41 C1'         6.4120  -38.2320   44.7940 C.3       1 FAD601      0.0000 
     42 C2'         6.2740  -39.4930   45.6590 C.3       1 FAD601      0.0000 
     43 O2'         5.0220  -40.1410   45.3850 O.3       1 FAD601      0.0000 
     44 C3'         6.3120  -39.2050   47.1490 C.3       1 FAD601      0.0000 
     45 O3'         7.4080  -38.3210   47.4520 O.3       1 FAD601      0.0000 
     46 C4'         6.2660  -40.5150   47.9830 C.3       1 FAD601      0.0000 
     47 O4'         6.3760  -40.1630   49.3540 O.3       1 FAD601      0.0000 
     48 C5'         7.3070  -41.6130   47.7950 C.3       1 FAD601      0.0000 
     49 O5'         7.1920  -42.6200   48.8440 O.3       1 FAD601      0.0000 
     50 P           8.4630  -43.2130   49.6900 P.3       1 FAD601      0.0000 
     51 O1P         8.1570  -44.6440   50.1060 O.co2     1 FAD601      0.0000 
     52 O2P         9.7650  -42.9750   48.9810 O.co2     1 FAD601      0.0000 
     53 O3P         8.6530  -42.1550   50.8750 O.3       1 FAD601      0.0000 
@<TRIPOS>BOND
     1    1    2 ar   
     2    1    3 ar   
     3    1    4 1    
     4    1   53 1    
     5    4    5 1    
     6    5    6 1    
     7    6    7 1    
     8    6    8 1    
     9    7   12 1    
    10    8    9 1    
    11    8   10 1    
    12   10   11 1    
    13   10   12 1    
    14   12   13 1    
    15   13   14 1    
    16   13   22 1    
    17   14   15 2    
    18   15   16 1    
    19   16   17 ar   
    20   16   22 ar   
    21   17   18 1    
    22   17   19 ar   
    23   19   20 ar   
    24   20   21 ar   
    25   21   22 ar   
    26   23   24 1    
    27   23   40 2    
    28   24   25 2    
    29   24   26 am   
    30   26   27 am   
    31   27   28 2    
    32   27   29 1    
    33   29   30 2    
    34   29   40 1    
    35   30   31 1    
    36   31   32 ar   
    37   31   38 ar   
    38   32   33 ar   
    39   33   34 1    
    40   33   35 ar   
    41   35   36 1    
    42   35   37 ar   
    43   37   38 ar   
    44   38   39 1    
    45   39   40 1    
    46   39   41 1    
    47   41   42 1    
    48   42   43 1    
    49   42   44 1    
    50   44   45 1    
    51   44   46 1    
    52   46   47 1    
    53   46   48 1    
    54   48   49 1    
    55   49   50 1    
    56   50   51 ar   
    57   50   52 ar   
    58   50   53 1    
@<TRIPOS>SUBSTRUCTURE
     1 FAD601      1 GROUP   
@<TRIPOS>SET
ATOM$ORANGE STATIC     ATOMS   COLORGROUP SYSTEM 
54 5 5 6 6 8 8 10 10 12 12 14 14 16 16 17 17 20 \
20 22 22 24 24 27 27 29 29 31 31 32 32 33 33 34 34 35 \
35 36 36 37 37 38 38 40 40 41 41 42 42 44 44 46 46 48 \
48 

