#    Name: 6sem_4_FAD
#    Modification time : Fri May 22 19:35:51 2020

@<TRIPOS>MOLECULE
6sem_4_FAD
   53    58     1     0     1
SMALL
NO_CHARGES


@<TRIPOS>ATOM
      1 PA         75.6820  -41.3690   20.7850 P.3       1 FAD601      0.0000 
      2 O1A        76.1000  -39.8800   20.8770 O.co2     1 FAD601      0.0000 
      3 O2A        74.3480  -41.8310   20.2180 O.co2     1 FAD601      0.0000 
      4 O5B        76.7560  -42.1690   19.9060 O.3       1 FAD601      0.0000 
      5 C5B        76.3220  -42.8130   18.7190 C.3       1 FAD601      0.0000 
      6 C4B        77.2940  -42.3510   17.6650 C.3       1 FAD601      0.0000 
      7 O4B        77.7500  -43.5550   17.0980 O.3       1 FAD601      0.0000 
      8 C3B        76.6690  -41.5470   16.5470 C.3       1 FAD601      0.0000 
      9 O3B        77.5850  -40.5500   16.0400 O.3       1 FAD601      0.0000 
     10 C2B        76.3330  -42.6560   15.5610 C.3       1 FAD601      0.0000 
     11 O2B        76.2730  -42.2900   14.1870 O.3       1 FAD601      0.0000 
     12 C1B        77.5070  -43.5630   15.7260 C.3       1 FAD601      0.0000 
     13 N9A        77.1800  -44.9090   15.3130 N.pl3     1 FAD601      0.0000 
     14 C8A        76.2010  -45.6460   15.8280 C.2       1 FAD601      0.0000 
     15 N7A        76.1850  -46.8550   15.2100 N.2       1 FAD601      0.0000 
     16 C5A        77.1690  -46.8820   14.2950 C.ar      1 FAD601      0.0000 
     17 C6A        77.6960  -47.8490   13.3070 C.ar      1 FAD601      0.0000 
     18 N6A        77.1510  -49.0930   13.1590 N.pl3     1 FAD601      0.0000 
     19 N1A        78.7490  -47.4540   12.5570 N.ar      1 FAD601      0.0000 
     20 C2A        79.3110  -46.2460   12.6820 C.ar      1 FAD601      0.0000 
     21 N3A        78.8680  -45.3400   13.5640 N.ar      1 FAD601      0.0000 
     22 C4A        77.8280  -45.5890   14.3800 C.ar      1 FAD601      0.0000 
     23 N1         73.9730  -36.9480   29.9450 N.2       1 FAD601      0.0000 
     24 C2         74.5920  -36.0790   30.7930 C.2       1 FAD601      0.0000 
     25 O2         75.6530  -36.4350   31.3650 O.2       1 FAD601      0.0000 
     26 N3         74.1210  -34.8540   31.0410 N.am      1 FAD601      0.0000 
     27 C4         73.0140  -34.4020   30.4630 C.2       1 FAD601      0.0000 
     28 O4         72.6230  -33.2330   30.7360 O.2       1 FAD601      0.0000 
     29 C4X        72.2840  -35.3060   29.5170 C.2       1 FAD601      0.0000 
     30 N5         71.1420  -34.9350   28.8840 N.2       1 FAD601      0.0000 
     31 C5X        70.4750  -35.7540   28.0150 C.ar      1 FAD601      0.0000 
     32 C6         69.3050  -35.2720   27.4250 C.ar      1 FAD601      0.0000 
     33 C7         68.5860  -36.0490   26.5370 C.ar      1 FAD601      0.0000 
     34 C7M        67.3330  -35.4960   25.9170 C.3       1 FAD601      0.0000 
     35 C8         69.0570  -37.4230   26.2070 C.ar      1 FAD601      0.0000 
     36 C8M        68.2460  -38.2650   25.2430 C.3       1 FAD601      0.0000 
     37 C9         70.2290  -37.9240   26.7990 C.ar      1 FAD601      0.0000 
     38 C9A        70.9790  -37.1420   27.7060 C.ar      1 FAD601      0.0000 
     39 N10        72.1940  -37.5750   28.3500 N.pl3     1 FAD601      0.0000 
     40 C10        72.8360  -36.6610   29.2680 C.2       1 FAD601      0.0000 
     41 C1'        72.7610  -38.9370   28.1100 C.3       1 FAD601      0.0000 
     42 C2'        74.0230  -39.0440   27.2070 C.3       1 FAD601      0.0000 
     43 O2'        74.8170  -37.8530   27.2360 O.3       1 FAD601      0.0000 
     44 C3'        73.7710  -39.3610   25.7310 C.3       1 FAD601      0.0000 
     45 O3'        73.1750  -40.6520   25.5740 O.3       1 FAD601      0.0000 
     46 C4'        75.0830  -39.3740   24.9540 C.3       1 FAD601      0.0000 
     47 O4'        74.9100  -38.9420   23.5950 O.3       1 FAD601      0.0000 
     48 C5'        75.7000  -40.7650   24.9550 C.3       1 FAD601      0.0000 
     49 O5'        76.8170  -40.7130   24.0700 O.3       1 FAD601      0.0000 
     50 P          77.0710  -42.0270   23.2090 P.3       1 FAD601      0.0000 
     51 O1P        78.3710  -41.8490   22.3950 O.co2     1 FAD601      0.0000 
     52 O2P        76.8130  -43.0450   24.2940 O.co2     1 FAD601      0.0000 
     53 O3P        75.7710  -42.0850   22.2390 O.3       1 FAD601      0.0000 
@<TRIPOS>BOND
     1    1    2 ar   
     2    1    3 ar   
     3    1    4 1    
     4    1   53 1    
     5    4    5 1    
     6    5    6 1    
     7    6    7 1    
     8    6    8 1    
     9    7   12 1    
    10    8    9 1    
    11    8   10 1    
    12   10   11 1    
    13   10   12 1    
    14   12   13 1    
    15   13   14 1    
    16   13   22 1    
    17   14   15 2    
    18   15   16 1    
    19   16   17 ar   
    20   16   22 ar   
    21   17   18 1    
    22   17   19 ar   
    23   19   20 ar   
    24   20   21 ar   
    25   21   22 ar   
    26   23   24 1    
    27   23   40 2    
    28   24   25 2    
    29   24   26 am   
    30   26   27 am   
    31   27   28 2    
    32   27   29 1    
    33   29   30 2    
    34   29   40 1    
    35   30   31 1    
    36   31   32 ar   
    37   31   38 ar   
    38   32   33 ar   
    39   33   34 1    
    40   33   35 ar   
    41   35   36 1    
    42   35   37 ar   
    43   37   38 ar   
    44   38   39 1    
    45   39   40 1    
    46   39   41 1    
    47   41   42 1    
    48   42   43 1    
    49   42   44 1    
    50   44   45 1    
    51   44   46 1    
    52   46   47 1    
    53   46   48 1    
    54   48   49 1    
    55   49   50 1    
    56   50   51 ar   
    57   50   52 ar   
    58   50   53 1    
@<TRIPOS>SUBSTRUCTURE
     1 FAD601      1 GROUP   
@<TRIPOS>SET
ATOM$ORANGE STATIC     ATOMS   COLORGROUP SYSTEM 
54 5 5 6 6 8 8 10 10 12 12 14 14 16 16 17 17 20 \
20 22 22 24 24 27 27 29 29 31 31 32 32 33 33 34 34 35 \
35 36 36 37 37 38 38 40 40 41 41 42 42 44 44 46 46 48 \
48 

