#    Name: 6l0z_2_ASO_CAVITY_N1_6
#    Modification time : Fri May 22 19:31:39 2020

@<TRIPOS>MOLECULE
6l0z_2_ASO_CAVITY_N1_6
   13     0     5     0     0
SMALL
NO_CHARGES


@<TRIPOS>ATOM
      1 OD1       -37.9300   -7.5700    7.3600 O.co2     1 ASP3        0.0000 
      2 OD1       -35.9500   -4.6700    6.2800 O.co2     1 ASP3        0.0000 
      3 NZ        -35.9800   -8.2900    6.9200 N.4       2 LYS4        0.0000 
      4 NZ        -37.3700   -6.7500    8.4800 N.4       2 LYS4        0.0000 
      5 NZ        -36.5500   -7.9300    8.9300 N.4       2 LYS4        0.0000 
      6 NZ        -35.4300   -7.4700    8.0500 N.4       2 LYS4        0.0000 
      7 NZ        -36.8200   -5.9400    9.6100 N.4       2 LYS4        0.0000 
      8 CZ        -36.5200   -4.3100    8.2900 C.ar      3 PHE5        0.0000 
      9 CZ        -35.6900   -5.4800    8.7300 C.ar      3 PHE5        0.0000 
     10 CA        -35.1200   -5.8400    6.7200 C.3       4 GLY6        0.0000 
     11 CA        -35.3900   -3.8500    7.4100 C.3       4 GLY6        0.0000 
     12 DU        -37.1100   -8.7400    7.8000 H         5 CUB7        0.0000 
     13 DU        -36.2500   -6.3000    7.6000 H         5 CUB7        0.0000 
@<TRIPOS>BOND
@<TRIPOS>SUBSTRUCTURE
     1 ASP3        1 GROUP   
     2 LYS4        3 GROUP   
     3 PHE5        8 GROUP   
     4 GLY6       10 GROUP   
     5 CUB7       12 GROUP   
@<TRIPOS>SET

