#    Name: 6l0z_3_ASO
#    Modification time : Fri May 22 19:31:43 2020

@<TRIPOS>MOLECULE
6l0z_3_ASO
   23    23     1     0     0
SMALL
NO_CHARGES


@<TRIPOS>ATOM
      1 C1        -31.6250   -6.5190   11.6370 C.3       1 ASO412      0.0000 
      2 C2        -32.9660   -6.8140   12.3610 C.3       1 ASO412      0.0000 
      3 C3        -34.0010   -7.3580   11.5660 C.3       1 ASO412      0.0000 
      4 C4        -33.7700   -6.4100   10.4990 C.3       1 ASO412      0.0000 
      5 C5        -32.7700   -6.4250    9.4340 C.3       1 ASO412      0.0000 
      6 C6        -32.9780   -5.4510    8.3140 C.3       1 ASO412      0.0000 
      7 O2        -32.6250   -7.7390   13.4410 O.3       1 ASO412      0.0000 
      8 O3        -35.2730   -7.1170   12.2320 O.3       1 ASO412      0.0000 
      9 O4        -34.6090   -7.0050    9.5290 O.3       1 ASO412      0.0000 
     10 O5        -31.6620   -6.0300   10.1990 O.3       1 ASO412      0.0000 
     11 O6        -31.8190   -5.7450    7.4560 O.3       1 ASO412      0.0000 
     12 H11       -31.1620   -5.8430   12.1550 H         1 ASO412      0.0000 
     13 H12       -31.1080   -7.3400   11.6450 H         1 ASO412      0.0000 
     14 H2        -33.3330   -5.9780   12.6880 H         1 ASO412      0.0000 
     15 H3        -34.0380   -8.3040   11.3550 H         1 ASO412      0.0000 
     16 H4        -33.7320   -5.5810   11.0010 H         1 ASO412      0.0000 
     17 H5        -32.7430   -7.2560    8.9330 H         1 ASO412      0.0000 
     18 H61       -33.8130   -5.6180    7.8490 H         1 ASO412      0.0000 
     19 H62       -32.9580   -4.5350    8.6330 H         1 ASO412      0.0000 
     20 HO2       -32.4580   -7.2390   14.1020 H         1 ASO412      0.0000 
     21 HO3       -35.5850   -7.8920   12.4050 H         1 ASO412      0.0000 
     22 HO4       -34.7910   -6.2840    9.5830 H         1 ASO412      0.0000 
     23 HO6       -31.8280   -5.2580    6.7780 H         1 ASO412      0.0000 
@<TRIPOS>BOND
     1    1    2 1    
     2    1   10 1    
     3    1   12 1    
     4    1   13 1    
     5    2    3 1    
     6    2    7 1    
     7    2   14 1    
     8    7   20 1    
     9    3    4 1    
    10    3    8 1    
    11    3   15 1    
    12    4   16 1    
    13    8   21 1    
    14    4    5 1    
    15    4    9 1    
    16    9   22 1    
    17    5    6 1    
    18    5   10 1    
    19    5   17 1    
    20    6   11 1    
    21    6   18 1    
    22    6   19 1    
    23   11   23 1    
@<TRIPOS>SUBSTRUCTURE
     1 ASO412      1 GROUP   
@<TRIPOS>SET

