#    Name: 6l0z_1_ASO
#    Modification time : Fri May 22 19:31:35 2020

@<TRIPOS>MOLECULE
6l0z_1_ASO
   23    23     1     0     0
SMALL
NO_CHARGES


@<TRIPOS>ATOM
      1 C1        -37.3290   -6.5380    9.5180 C.3       1 ASO409      0.0000 
      2 C2        -37.8880   -7.8550    8.7540 C.3       1 ASO409      0.0000 
      3 C3        -37.5900   -7.7380    7.3700 C.3       1 ASO409      0.0000 
      4 C4        -37.7020   -6.3160    7.1920 C.3       1 ASO409      0.0000 
      5 C5        -36.5870   -5.3560    7.4270 C.3       1 ASO409      0.0000 
      6 C6        -36.7450   -3.9990    6.8240 C.3       1 ASO409      0.0000 
      7 O2        -37.2360   -8.9970    9.3870 O.3       1 ASO409      0.0000 
      8 O3        -38.7530   -8.5190    7.0050 O.3       1 ASO409      0.0000 
      9 O4        -37.4910   -6.1190    5.8000 O.3       1 ASO409      0.0000 
     10 O5        -36.6980   -5.2940    8.8390 O.3       1 ASO409      0.0000 
     11 O6        -37.9490   -3.3760    7.3370 O.3       1 ASO409      0.0000 
     12 H11       -36.6520   -6.8640   10.1300 H         1 ASO409      0.0000 
     13 H12       -38.0820   -6.1960   10.0250 H         1 ASO409      0.0000 
     14 H2        -38.8450   -7.9890    8.8400 H         1 ASO409      0.0000 
     15 H3        -36.7860   -8.0290    6.9120 H         1 ASO409      0.0000 
     16 H4        -38.4910   -6.1410    7.7290 H         1 ASO409      0.0000 
     17 H5        -35.7430   -5.6070    7.0220 H         1 ASO409      0.0000 
     18 H61       -36.8130   -4.0800    5.8590 H         1 ASO409      0.0000 
     19 H62       -35.9780   -3.4520    7.0540 H         1 ASO409      0.0000 
     20 HO2       -37.7350   -9.1170   10.0730 H         1 ASO409      0.0000 
     21 HO3       -38.4490   -9.1620    6.5550 H         1 ASO409      0.0000 
     22 HO4       -38.0250   -5.6830    5.7880 H         1 ASO409      0.0000 
     23 HO6       -37.8680   -2.5410    7.2000 H         1 ASO409      0.0000 
@<TRIPOS>BOND
     1    1    2 1    
     2    1   10 1    
     3    1   12 1    
     4    1   13 1    
     5    2    3 1    
     6    2    7 1    
     7    2   14 1    
     8    7   20 1    
     9    3    4 1    
    10    3    8 1    
    11    3   15 1    
    12    4   16 1    
    13    8   21 1    
    14    4    5 1    
    15    4    9 1    
    16    9   22 1    
    17    5    6 1    
    18    5   10 1    
    19    5   17 1    
    20    6   11 1    
    21    6   18 1    
    22    6   19 1    
    23   11   23 1    
@<TRIPOS>SUBSTRUCTURE
     1 ASO409      1 GROUP   
@<TRIPOS>SET

