#    Name: 6l0z_2_ASO
#    Modification time : Fri May 22 19:31:39 2020

@<TRIPOS>MOLECULE
6l0z_2_ASO
   23    23     1     0     0
SMALL
NO_CHARGES


@<TRIPOS>ATOM
      1 C1        -39.6470   -7.1770    4.1940 C.3       1 ASO410      0.0000 
      2 C2        -38.6950   -6.8380    2.9250 C.3       1 ASO410      0.0000 
      3 C3        -38.2830   -5.4520    2.7020 C.3       1 ASO410      0.0000 
      4 C4        -39.3930   -4.5160    2.9360 C.3       1 ASO410      0.0000 
      5 C5        -39.7860   -4.4950    4.3880 C.3       1 ASO410      0.0000 
      6 C6        -41.0530   -3.6950    4.5930 C.3       1 ASO410      0.0000 
      7 O2        -37.5190   -7.7590    3.0600 O.3       1 ASO410      0.0000 
      8 O3        -38.0810   -5.5810    1.2410 O.3       1 ASO410      0.0000 
      9 O4        -38.9260   -3.2000    2.6290 O.3       1 ASO410      0.0000 
     10 O5        -40.0610   -5.8630    4.9330 O.3       1 ASO410      0.0000 
     11 O6        -40.7770   -2.6270    5.5720 O.3       1 ASO410      0.0000 
     12 H11       -39.1670   -7.7520    4.8110 H         1 ASO410      0.0000 
     13 H12       -40.4450   -7.6340    3.8840 H         1 ASO410      0.0000 
     14 H2        -39.2070   -7.0060    2.1180 H         1 ASO410      0.0000 
     15 H3        -37.5380   -5.1270    3.2330 H         1 ASO410      0.0000 
     16 H4        -40.1490   -4.7600    2.3780 H         1 ASO410      0.0000 
     17 H5        -39.0510   -4.0770    4.8630 H         1 ASO410      0.0000 
     18 H61       -41.7540   -4.2730    4.9310 H         1 ASO410      0.0000 
     19 H62       -41.3310   -3.3000    3.7510 H         1 ASO410      0.0000 
     20 HO2       -37.8360   -8.5200    2.8400 H         1 ASO410      0.0000 
     21 HO3       -37.2820   -5.4170    1.0400 H         1 ASO410      0.0000 
     22 HO4       -39.2100   -3.0260    1.8620 H         1 ASO410      0.0000 
     23 HO6       -41.5210   -2.3100    5.8420 H         1 ASO410      0.0000 
@<TRIPOS>BOND
     1    1    2 1    
     2    1   10 1    
     3    1   12 1    
     4    1   13 1    
     5    2    3 1    
     6    2    7 1    
     7    2   14 1    
     8    7   20 1    
     9    3    4 1    
    10    3    8 1    
    11    3   15 1    
    12    4    5 1    
    13    4    9 1    
    14    4   16 1    
    15    9   22 1    
    16    5    6 1    
    17    5   10 1    
    18    5   17 1    
    19    6   11 1    
    20    6   18 1    
    21    6   19 1    
    22    8   21 1    
    23   11   23 1    
@<TRIPOS>SUBSTRUCTURE
     1 ASO410      1 GROUP   
@<TRIPOS>SET

