#    Name: 6l0z_2_ASO_CAVITY_N1_8
#    Modification time : Fri May 22 19:31:39 2020

@<TRIPOS>MOLECULE
6l0z_2_ASO_CAVITY_N1_8
   35     0     6     0     0
SMALL
NO_CHARGES


@<TRIPOS>ATOM
      1 OG        -35.4400   -6.2900   11.1900 O.3       1 SER1        0.0000 
      2 OD1       -36.0200  -11.9100    7.5600 O.co2     2 ASP3        0.0000 
      3 OD1       -35.2000  -13.0800    8.0000 O.co2     2 ASP3        0.0000 
      4 OD1       -37.9300   -7.5700    7.3600 O.co2     2 ASP3        0.0000 
      5 OD1       -35.4700  -11.0900    8.6900 O.co2     2 ASP3        0.0000 
      6 OD1       -35.9500   -4.6700    6.2800 O.co2     2 ASP3        0.0000 
      7 NZ        -35.9800   -8.2900    6.9200 N.4       3 LYS4        0.0000 
      8 NZ        -34.3400  -10.6400    7.8000 N.4       3 LYS4        0.0000 
      9 NZ        -32.3900  -11.3600    7.3700 N.4       3 LYS4        0.0000 
     10 NZ        -37.3700   -6.7500    8.4800 N.4       3 LYS4        0.0000 
     11 NZ        -36.5500   -7.9300    8.9300 N.4       3 LYS4        0.0000 
     12 NZ        -35.7300   -9.1000    9.3700 N.4       3 LYS4        0.0000 
     13 NZ        -34.9100  -10.2700    9.8200 N.4       3 LYS4        0.0000 
     14 NZ        -35.4300   -7.4700    8.0500 N.4       3 LYS4        0.0000 
     15 NZ        -34.6100   -8.6500    8.4900 N.4       3 LYS4        0.0000 
     16 NZ        -33.7800   -9.8200    8.9300 N.4       3 LYS4        0.0000 
     17 NZ        -36.8200   -5.9400    9.6100 N.4       3 LYS4        0.0000 
     18 NZ        -36.0000   -7.1100   10.0600 N.4       3 LYS4        0.0000 
     19 NZ        -34.0500   -7.8300    9.6200 N.4       3 LYS4        0.0000 
     20 NZ        -33.7500   -6.2000    8.2900 N.4       3 LYS4        0.0000 
     21 NZ        -32.9300   -7.3800    8.7400 N.4       3 LYS4        0.0000 
     22 NZ        -32.6200   -5.7500    7.4100 N.4       3 LYS4        0.0000 
     23 CZ        -36.5200   -4.3100    8.2900 C.ar      4 PHE5        0.0000 
     24 CZ        -35.6900   -5.4800    8.7300 C.ar      4 PHE5        0.0000 
     25 CZ        -34.3200   -5.8400   10.3000 C.ar      4 PHE5        0.0000 
     26 CZ        -34.0100   -4.2100    8.9800 C.ar      4 PHE5        0.0000 
     27 CA        -35.1200   -5.8400    6.7200 C.3       5 GLY6        0.0000 
     28 CA        -35.3900   -3.8500    7.4100 C.3       5 GLY6        0.0000 
     29 CA        -34.5700   -5.0300    7.8500 C.3       5 GLY6        0.0000 
     30 CA        -32.8900   -3.7600    8.1000 C.3       5 GLY6        0.0000 
     31 DU        -34.0800  -12.6300    7.1200 H         6 CUB7        0.0000 
     32 DU        -37.1100   -8.7400    7.8000 H         6 CUB7        0.0000 
     33 DU        -33.5200  -11.8100    8.2500 H         6 CUB7        0.0000 
     34 DU        -36.2500   -6.3000    7.6000 H         6 CUB7        0.0000 
     35 DU        -34.8700   -6.6600    9.1700 H         6 CUB7        0.0000 
@<TRIPOS>BOND
@<TRIPOS>SUBSTRUCTURE
     1 SER1        1 GROUP   
     2 ASP3        2 GROUP   
     3 LYS4        7 GROUP   
     4 PHE5       23 GROUP   
     5 GLY6       27 GROUP   
     6 CUB7       31 GROUP   
@<TRIPOS>SET

