#    Name: 6l0z_2_ASO_CAVITY_N1_4
#    Modification time : Fri May 22 19:31:39 2020

@<TRIPOS>MOLECULE
6l0z_2_ASO_CAVITY_N1_4
    1     0     1     0     0
SMALL
NO_CHARGES


@<TRIPOS>ATOM
      1 OD1       -37.9300   -7.5700    7.3600 O.co2     1 ASP3        0.0000 
@<TRIPOS>BOND
@<TRIPOS>SUBSTRUCTURE
     1 ASP3        1 GROUP   
@<TRIPOS>SET

