#    Name: 6l0z_1_ASO_CAVITY_N1_8
#    Modification time : Fri May 22 19:31:36 2020

@<TRIPOS>MOLECULE
6l0z_1_ASO_CAVITY_N1_8
   89     0     7     0     0
SMALL
NO_CHARGES


@<TRIPOS>ATOM
      1 OG        -35.4400   -6.2900   11.1900 O.3       1 SER1        0.0000 
      2 O         -33.2500  -13.8000    7.5600 O.2       2 ALA2        0.0000 
      3 O         -31.8800  -14.1600    9.1400 O.2       2 ALA2        0.0000 
      4 O         -31.0300  -10.5400   12.0800 O.2       2 ALA2        0.0000 
      5 N         -32.0700   -4.9300    8.5400 N.am      2 ALA2        0.0000 
      6 O         -32.4200   -9.0000   13.6500 O.2       2 ALA2        0.0000 
      7 OD1       -36.0200  -11.9100    7.5600 O.co2     3 ASP3        0.0000 
      8 OD1       -35.2000  -13.0800    8.0000 O.co2     3 ASP3        0.0000 
      9 OD1       -36.2900   -9.9200    8.2400 O.co2     3 ASP3        0.0000 
     10 OD1       -35.4700  -11.0900    8.6900 O.co2     3 ASP3        0.0000 
     11 OD1       -34.6400  -12.2600    9.1300 O.co2     3 ASP3        0.0000 
     12 OD1       -35.9500   -4.6700    6.2800 O.co2     3 ASP3        0.0000 
     13 OD1       -34.0600   -6.6500   12.7600 O.co2     3 ASP3        0.0000 
     14 OD1       -33.2400   -7.8300   13.2000 O.co2     3 ASP3        0.0000 
     15 OD1       -32.9400   -6.2000   11.8800 O.co2     3 ASP3        0.0000 
     16 OD1       -32.3800   -5.3800   13.0100 O.co2     3 ASP3        0.0000 
     17 NZ        -34.9000  -11.4500    6.6800 N.4       4 LYS4        0.0000 
     18 NZ        -35.9800   -8.2900    6.9200 N.4       4 LYS4        0.0000 
     19 NZ        -35.1600   -9.4600    7.3600 N.4       4 LYS4        0.0000 
     20 NZ        -34.3400  -10.6400    7.8000 N.4       4 LYS4        0.0000 
     21 NZ        -32.3900  -11.3600    7.3700 N.4       4 LYS4        0.0000 
     22 NZ        -37.3700   -6.7500    8.4800 N.4       4 LYS4        0.0000 
     23 NZ        -36.5500   -7.9300    8.9300 N.4       4 LYS4        0.0000 
     24 NZ        -35.7300   -9.1000    9.3700 N.4       4 LYS4        0.0000 
     25 NZ        -34.9100  -10.2700    9.8200 N.4       4 LYS4        0.0000 
     26 NZ        -35.4300   -7.4700    8.0500 N.4       4 LYS4        0.0000 
     27 NZ        -34.6100   -8.6500    8.4900 N.4       4 LYS4        0.0000 
     28 NZ        -33.7800   -9.8200    8.9300 N.4       4 LYS4        0.0000 
     29 NZ        -31.8400  -10.5400    8.5000 N.4       4 LYS4        0.0000 
     30 NZ        -36.8200   -5.9400    9.6100 N.4       4 LYS4        0.0000 
     31 NZ        -36.0000   -7.1100   10.0600 N.4       4 LYS4        0.0000 
     32 NZ        -34.3500   -9.4600   10.9400 N.4       4 LYS4        0.0000 
     33 NZ        -34.0500   -7.8300    9.6200 N.4       4 LYS4        0.0000 
     34 NZ        -33.7500   -6.2000    8.2900 N.4       4 LYS4        0.0000 
     35 NZ        -32.9300   -7.3800    8.7400 N.4       4 LYS4        0.0000 
     36 NZ        -32.1000   -8.5500    9.1800 N.4       4 LYS4        0.0000 
     37 NZ        -31.2800   -9.7200    9.6200 N.4       4 LYS4        0.0000 
     38 NZ        -32.6200   -5.7500    7.4100 N.4       4 LYS4        0.0000 
     39 NZ        -30.1600   -9.2700    8.7400 N.4       4 LYS4        0.0000 
     40 NZ        -34.6200   -7.4700   11.6300 N.4       4 LYS4        0.0000 
     41 NZ        -33.8000   -8.6400   12.0700 N.4       4 LYS4        0.0000 
     42 NZ        -31.2400   -6.1100    8.9800 N.4       4 LYS4        0.0000 
     43 NZ        -30.4200   -7.2800    9.4300 N.4       4 LYS4        0.0000 
     44 NZ        -31.2900   -8.5500   12.7600 N.4       4 LYS4        0.0000 
     45 NZ        -30.4700   -9.7200   13.2100 N.4       4 LYS4        0.0000 
     46 CZ        -32.7000  -12.9800    8.6900 C.ar      5 PHE5        0.0000 
     47 CZ        -32.9600  -10.9900    9.3800 C.ar      5 PHE5        0.0000 
     48 CZ        -32.1400  -12.1700    9.8200 C.ar      5 PHE5        0.0000 
     49 CZ        -36.5200   -4.3100    8.2900 C.ar      5 PHE5        0.0000 
     50 CZ        -35.6900   -5.4800    8.7300 C.ar      5 PHE5        0.0000 
     51 CZ        -32.4100  -10.1800   10.5100 C.ar      5 PHE5        0.0000 
     52 CZ        -31.5900  -11.3500   10.9500 C.ar      5 PHE5        0.0000 
     53 CZ        -30.7600  -12.5300   11.3900 C.ar      5 PHE5        0.0000 
     54 CZ        -34.3200   -5.8400   10.3000 C.ar      5 PHE5        0.0000 
     55 CZ        -31.8500   -9.3600   11.6400 C.ar      5 PHE5        0.0000 
     56 CZ        -34.0100   -4.2100    8.9800 C.ar      5 PHE5        0.0000 
     57 CZ        -33.1900   -5.3900    9.4200 C.ar      5 PHE5        0.0000 
     58 CZ        -29.6000   -8.4500    9.8700 C.ar      5 PHE5        0.0000 
     59 CZ        -33.7600   -5.0200   11.4300 C.ar      5 PHE5        0.0000 
     60 CZ        -32.6300   -4.5700   10.5500 C.ar      5 PHE5        0.0000 
     61 CZ        -30.9900   -6.9200   11.4400 C.ar      5 PHE5        0.0000 
     62 CZ        -30.1700   -8.0900   11.8800 C.ar      5 PHE5        0.0000 
     63 CZ        -31.5600   -6.5600   13.4500 C.ar      5 PHE5        0.0000 
     64 CA        -32.9500  -12.1700    6.2400 C.3       6 GLY6        0.0000 
     65 CA        -30.4500  -12.0800    6.9300 C.3       6 GLY6        0.0000 
     66 CA        -35.1200   -5.8400    6.7200 C.3       6 GLY6        0.0000 
     67 CA        -29.8900  -11.2600    8.0600 C.3       6 GLY6        0.0000 
     68 CA        -35.3900   -3.8500    7.4100 C.3       6 GLY6        0.0000 
     69 CA        -34.5700   -5.0300    7.8500 C.3       6 GLY6        0.0000 
     70 CA        -32.8900   -3.7600    8.1000 C.3       6 GLY6        0.0000 
     71 CA        -31.8100   -5.7400   10.9900 C.3       6 GLY6        0.0000 
     72 CA        -31.5100   -4.1200    9.6700 C.3       6 GLY6        0.0000 
     73 DU        -34.0800  -12.6300    7.1200 H         7 CUB7        0.0000 
     74 DU        -32.1300  -13.3500    6.6800 H         7 CUB7        0.0000 
     75 DU        -37.1100   -8.7400    7.8000 H         7 CUB7        0.0000 
     76 DU        -33.5200  -11.8100    8.2500 H         7 CUB7        0.0000 
     77 DU        -31.5700  -12.5300    7.8100 H         7 CUB7        0.0000 
     78 DU        -36.2500   -6.3000    7.6000 H         7 CUB7        0.0000 
     79 DU        -31.0200  -11.7100    8.9400 H         7 CUB7        0.0000 
     80 DU        -34.8700   -6.6600    9.1700 H         7 CUB7        0.0000 
     81 DU        -33.2300   -9.0000   10.0600 H         7 CUB7        0.0000 
     82 DU        -30.4600  -10.9000   10.0700 H         7 CUB7        0.0000 
     83 DU        -33.4900   -7.0100   10.7500 H         7 CUB7        0.0000 
     84 DU        -32.6700   -8.1900   11.1900 H         7 CUB7        0.0000 
     85 DU        -32.3700   -6.5600    9.8700 H         7 CUB7        0.0000 
     86 DU        -31.5500   -7.7300   10.3100 H         7 CUB7        0.0000 
     87 DU        -30.7300   -8.9100   10.7500 H         7 CUB7        0.0000 
     88 DU        -29.9000  -10.0800   11.2000 H         7 CUB7        0.0000 
     89 DU        -32.1200   -7.3700   12.3200 H         7 CUB7        0.0000 
@<TRIPOS>BOND
@<TRIPOS>SUBSTRUCTURE
     1 SER1        1 GROUP   
     2 ALA2        2 GROUP   
     3 ASP3        7 GROUP   
     4 LYS4       17 GROUP   
     5 PHE5       46 GROUP   
     6 GLY6       64 GROUP   
     7 CUB7       73 GROUP   
@<TRIPOS>SET

