#    Name: 6etj_1_ADP
#    Modification time : Fri May 22 19:25:55 2020

@<TRIPOS>MOLECULE
6etj_1_ADP
   27    29     1     0     1
SMALL
NO_CHARGES


@<TRIPOS>ATOM
      1 PB         44.3570   40.6250   -4.5210 P.3       1 ADP604      0.0000 
      2 O1B        45.4750   40.2480   -5.4620 O.co2     1 ADP604      0.0000 
      3 O2B        43.7120   39.4310   -3.8360 O.co2     1 ADP604      0.0000 
      4 O3B        44.7200   41.6950   -3.4980 O.co2     1 ADP604      0.0000 
      5 PA         41.6590   41.1290   -5.3940 P.3       1 ADP604      0.0000 
      6 O1A        41.2320   39.7220   -5.7810 O.co2     1 ADP604      0.0000 
      7 O2A        41.2950   41.5850   -4.0180 O.co2     1 ADP604      0.0000 
      8 O3A        43.2730   41.2510   -5.5750 O.3       1 ADP604      0.0000 
      9 O5'        41.0130   42.1840   -6.4400 O.3       1 ADP604      0.0000 
     10 C5'        39.8190   41.9120   -7.1790 C.3       1 ADP604      0.0000 
     11 C4'        39.9120   42.6530   -8.4980 C.3       1 ADP604      0.0000 
     12 O4'        40.8400   42.0010   -9.3670 O.3       1 ADP604      0.0000 
     13 C3'        38.6010   42.7780   -9.2710 C.3       1 ADP604      0.0000 
     14 O3'        38.4190   44.1680   -9.5950 O.3       1 ADP604      0.0000 
     15 C2'        38.8650   41.9890  -10.5350 C.3       1 ADP604      0.0000 
     16 O2'        38.2210   42.5370  -11.6680 O.3       1 ADP604      0.0000 
     17 C1'        40.3650   42.1110  -10.7050 C.3       1 ADP604      0.0000 
     18 N9         40.9630   41.0200  -11.5080 N.pl3     1 ADP604      0.0000 
     19 C8         40.4390   39.8000  -11.7370 C.2       1 ADP604      0.0000 
     20 N7         41.2720   39.0600  -12.5160 N.2       1 ADP604      0.0000 
     21 C5         42.3600   39.8080  -12.7830 C.ar      1 ADP604      0.0000 
     22 C6         43.6330   39.6490  -13.5310 C.ar      1 ADP604      0.0000 
     23 N6         43.9540   38.5070  -14.1840 N.pl3     1 ADP604      0.0000 
     24 N1         44.4900   40.7020  -13.5470 N.ar      1 ADP604      0.0000 
     25 C2         44.2090   41.8520  -12.9200 C.ar      1 ADP604      0.0000 
     26 N3         43.0830   42.0450  -12.2140 N.ar      1 ADP604      0.0000 
     27 C4         42.1450   41.0910  -12.1060 C.ar      1 ADP604      0.0000 
@<TRIPOS>BOND
     1    1    2 ar   
     2    1    3 ar   
     3    1    4 ar   
     4    1    8 1    
     5    5    6 ar   
     6    5    7 ar   
     7    5    8 1    
     8    5    9 1    
     9    9   10 1    
    10   10   11 1    
    11   11   12 1    
    12   11   13 1    
    13   12   17 1    
    14   13   14 1    
    15   13   15 1    
    16   15   16 1    
    17   15   17 1    
    18   17   18 1    
    19   18   19 1    
    20   18   27 1    
    21   19   20 2    
    22   20   21 1    
    23   21   22 ar   
    24   21   27 ar   
    25   22   23 1    
    26   22   24 ar   
    27   24   25 ar   
    28   25   26 ar   
    29   26   27 ar   
@<TRIPOS>SUBSTRUCTURE
     1 ADP604      1 GROUP   
@<TRIPOS>SET
ATOM$ORANGE STATIC     ATOMS   COLORGROUP SYSTEM 
20 10 10 11 11 13 13 15 15 17 17 19 19 21 21 22 22 25 \
25 27 27 

