#    Name: 6gcn_4_ADP
#    Modification time : Fri May 22 19:31:23 2020

@<TRIPOS>MOLECULE
6gcn_4_ADP
   38    40     1     0     1
SMALL
NO_CHARGES


@<TRIPOS>ATOM
      1 PB        -61.0580  159.3100   85.3640 P.3       1 ADP701      0.0000 
      2 O1B       -61.2670  158.1690   84.3980 O.co2     1 ADP701      0.0000 
      3 O2B       -61.8080  160.5790   85.0220 O.co2     1 ADP701      0.0000 
      4 O3B       -61.1840  158.9090   86.8110 O.co2     1 ADP701      0.0000 
      5 PA        -58.6210  159.0290   84.0100 P.3       1 ADP701      0.0000 
      6 O1A       -58.9170  159.8030   82.7450 O.co2     1 ADP701      0.0000 
      7 O2A       -58.8370  157.5320   84.0410 O.co2     1 ADP701      0.0000 
      8 O3A       -59.4990  159.6880   85.1900 O.3       1 ADP701      0.0000 
      9 O5'       -57.0930  159.3290   84.4310 O.3       1 ADP701      0.0000 
     10 C5'       -56.5430  160.6360   84.2750 C.3       1 ADP701      0.0000 
     11 C4'       -55.0180  160.5570   84.2230 C.3       1 ADP701      0.0000 
     12 O4'       -54.5010  160.2820   85.5280 O.3       1 ADP701      0.0000 
     13 C3'       -54.5300  159.4650   83.2800 C.3       1 ADP701      0.0000 
     14 O3'       -53.6470  159.9860   82.2800 O.3       1 ADP701      0.0000 
     15 C2'       -53.7870  158.4780   84.1530 C.3       1 ADP701      0.0000 
     16 O2'       -52.5050  158.1770   83.5920 O.3       1 ADP701      0.0000 
     17 C1'       -53.6530  159.1330   85.5210 C.3       1 ADP701      0.0000 
     18 N9        -54.1210  158.2030   86.5730 N.pl3     1 ADP701      0.0000 
     19 C8        -55.2660  158.3490   87.2720 C.2       1 ADP701      0.0000 
     20 N7        -55.4210  157.3350   88.1600 N.2       1 ADP701      0.0000 
     21 C5        -54.3600  156.5220   88.0290 C.ar      1 ADP701      0.0000 
     22 C6        -53.9040  155.2700   88.6660 C.ar      1 ADP701      0.0000 
     23 N6        -54.6500  154.6870   89.6370 N.pl3     1 ADP701      0.0000 
     24 N1        -52.7360  154.7400   88.2430 N.ar      1 ADP701      0.0000 
     25 C2        -51.9980  155.3180   87.2750 C.ar      1 ADP701      0.0000 
     26 N3        -52.3570  156.4590   86.6580 N.ar      1 ADP701      0.0000 
     27 C4        -53.5030  157.0970   86.9850 C.ar      1 ADP701      0.0000 
     28 H5'1      -56.8500  161.2670   85.1120 H         1 ADP701      0.0000 
     29 H5'2      -56.9190  161.0860   83.3540 H         1 ADP701      0.0000 
     30 H4'       -54.6310  161.5220   83.8690 H         1 ADP701      0.0000 
     31 H3'       -55.3930  158.9670   82.8160 H         1 ADP701      0.0000 
     32 H2'       -54.3860  157.5620   84.2500 H         1 ADP701      0.0000 
     33 HO2'      -52.6210  157.7710   82.7220 H         1 ADP701      0.0000 
     34 H1'       -52.6060  159.4210   85.6920 H         1 ADP701      0.0000 
     35 H8        -55.9660  159.1650   87.1420 H         1 ADP701      0.0000 
     36 HN61      -55.5180  155.1120   89.9300 H         1 ADP701      0.0000 
     37 HN62      -54.3340  153.8320   90.0710 H         1 ADP701      0.0000 
     38 H2        -51.0700  154.8440   86.9820 H         1 ADP701      0.0000 
@<TRIPOS>BOND
     1    1    2 ar   
     2    1    3 ar   
     3    1    4 ar   
     4    1    8 1    
     5    5    6 ar   
     6    5    7 ar   
     7    5    8 1    
     8    5    9 1    
     9    9   10 1    
    10   10   11 1    
    11   10   28 1    
    12   10   29 1    
    13   11   12 1    
    14   11   13 1    
    15   11   30 1    
    16   12   17 1    
    17   13   14 1    
    18   13   15 1    
    19   13   31 1    
    20   15   16 1    
    21   15   17 1    
    22   15   32 1    
    23   16   33 1    
    24   17   18 1    
    25   17   34 1    
    26   18   19 1    
    27   18   27 1    
    28   19   20 2    
    29   19   35 1    
    30   20   21 1    
    31   21   22 ar   
    32   21   27 ar   
    33   22   23 1    
    34   22   24 ar   
    35   23   36 1    
    36   23   37 1    
    37   24   25 ar   
    38   25   26 ar   
    39   25   38 1    
    40   26   27 ar   
@<TRIPOS>SUBSTRUCTURE
     1 ADP701      1 GROUP   
@<TRIPOS>SET
ATOM$ORANGE STATIC     ATOMS   COLORGROUP SYSTEM 
20 10 10 11 11 13 13 15 15 17 17 19 19 21 21 22 22 25 \
25 27 27 

