#    Name: 6c90_1_ADP_CAVITY_N1_ALL
#    Modification time : Fri May 22 19:25:04 2020

@<TRIPOS>MOLECULE
6c90_1_ADP_CAVITY_N1_ALL
   92     0     7     0     0
SMALL
NO_CHARGES


@<TRIPOS>ATOM
      1 OG         64.4000   -0.8700   -3.2500 O.3       1 SER1        0.0000 
      2 OG         65.2700    0.1100   -2.5200 O.3       1 SER1        0.0000 
      3 OG         64.8400   -0.4800   -1.2100 O.3       1 SER1        0.0000 
      4 OG         63.7000    0.4900   -1.1500 O.3       1 SER1        0.0000 
      5 O          65.7000    0.7000   -3.8300 O.2       2 ALA2        0.0000 
      6 O          64.1300    1.0800   -2.4600 O.2       2 ALA2        0.0000 
      7 N          65.9800   -1.4500   -1.2800 N.am      2 ALA2        0.0000 
      8 O          67.2800    0.1200   -1.8500 O.2       2 ALA2        0.0000 
      9 O          66.1400    1.0900   -1.7900 O.2       2 ALA2        0.0000 
     10 N          66.8500   -0.4800   -0.5500 N.am      2 ALA2        0.0000 
     11 N          65.7100    0.4900   -0.4800 N.am      2 ALA2        0.0000 
     12 N          65.2800   -0.1000    0.8300 N.am      2 ALA2        0.0000 
     13 O          64.8500   -0.6900    2.1400 O.2       2 ALA2        0.0000 
     14 O          63.2800   -0.3200    3.5100 O.2       2 ALA2        0.0000 
     15 N          67.3000   -0.0900    1.4900 N.am      2 ALA2        0.0000 
     16 N          66.1500    0.8800    1.5600 N.am      2 ALA2        0.0000 
     17 O          66.8700   -0.6900    2.8000 O.2       2 ALA2        0.0000 
     18 O          65.7200    0.2800    2.8700 O.2       2 ALA2        0.0000 
     19 N          67.4500    2.4500    0.9800 N.am      2 ALA2        0.0000 
     20 O          71.0500    1.8700    3.6200 O.2       2 ALA2        0.0000 
     21 N          69.4800    2.2500    4.9900 N.am      2 ALA2        0.0000 
     22 OD1        66.3100    3.4200    1.0400 O.co2     3 ASP3        0.0000 
     23 OD1        65.1700    4.3900    1.1100 O.co2     3 ASP3        0.0000 
     24 OD1        64.0300    5.3600    1.1700 O.co2     3 ASP3        0.0000 
     25 OD1        68.3300    3.4300    1.7100 O.co2     3 ASP3        0.0000 
     26 OD1        64.9000    6.3400    1.9000 O.co2     3 ASP3        0.0000 
     27 OD1        67.9000    2.8300    3.0200 O.co2     3 ASP3        0.0000 
     28 OD1        66.7500    3.8000    3.0800 O.co2     3 ASP3        0.0000 
     29 OD1        65.6100    4.7700    3.1500 O.co2     3 ASP3        0.0000 
     30 OD1        69.7500    0.3000    4.2000 O.co2     3 ASP3        0.0000 
     31 OD1        68.6100    1.2700    4.2600 O.co2     3 ASP3        0.0000 
     32 OD1        64.6300    8.2900    2.7000 O.co2     3 ASP3        0.0000 
     33 OD1        65.3400    6.7200    3.9400 O.co2     3 ASP3        0.0000 
     34 OD1        70.6200    1.2800    4.9300 O.co2     3 ASP3        0.0000 
     35 NZ         62.8400   -0.7000    1.4700 N.4       4 LYS4        0.0000 
     36 NZ         62.4100   -1.3000    2.7800 N.4       4 LYS4        0.0000 
     37 NZ         61.2600   -0.3300    2.8400 N.4       4 LYS4        0.0000 
     38 NZ         61.9800   -1.8900    4.0900 N.4       4 LYS4        0.0000 
     39 NZ         60.4000   -1.5100    5.4600 N.4       4 LYS4        0.0000 
     40 NZ         62.1400    0.6500    3.5700 N.4       4 LYS4        0.0000 
     41 NZ         61.7100    0.0600    4.8800 N.4       4 LYS4        0.0000 
     42 CZ         61.8700    2.6000    4.3700 C.ar      5 PHE5        0.0000 
     43 CZ         63.6000    4.7700    2.4800 C.ar      5 PHE5        0.0000 
     44 CZ         63.1700    4.1700    3.7900 C.ar      5 PHE5        0.0000 
     45 CZ         63.7600    7.3100    1.9700 C.ar      5 PHE5        0.0000 
     46 CZ         64.4700    5.7400    3.2100 C.ar      5 PHE5        0.0000 
     47 CZ         64.0400    5.1500    4.5200 C.ar      5 PHE5        0.0000 
     48 CZ         64.9100    6.1300    5.2500 C.ar      5 PHE5        0.0000 
     49 CA         65.9700   -1.2500   -4.6200 C.3       6 GLY6        0.0000 
     50 CA         64.8300   -0.2800   -4.5600 C.3       6 GLY6        0.0000 
     51 CA         65.5400   -1.8400   -3.3100 C.3       6 GLY6        0.0000 
     52 CA         66.8400   -0.2700   -3.8900 C.3       6 GLY6        0.0000 
     53 CA         67.5500   -1.8300   -2.6500 C.3       6 GLY6        0.0000 
     54 CA         66.4100   -0.8600   -2.5800 C.3       6 GLY6        0.0000 
     55 CA         63.2700   -0.1100    0.1600 C.3       6 GLY6        0.0000 
     56 CA         62.1200    0.8600    0.2300 C.3       6 GLY6        0.0000 
     57 CA         61.6900    0.2700    1.5400 C.3       6 GLY6        0.0000 
     58 CA         64.5700    1.4600   -0.4200 C.3       6 GLY6        0.0000 
     59 CA         63.0000    1.8400    0.9600 C.3       6 GLY6        0.0000 
     60 CA         61.4200    2.2200    2.3300 C.3       6 GLY6        0.0000 
     61 CA         67.0100    2.0700   -1.0600 C.3       6 GLY6        0.0000 
     62 CA         65.4400    2.4400    0.3100 C.3       6 GLY6        0.0000 
     63 CA         64.3000    3.4100    0.3800 C.3       6 GLY6        0.0000 
     64 CA         63.1600    4.3800    0.4400 C.3       6 GLY6        0.0000 
     65 CA         63.8700    2.8200    1.6900 C.3       6 GLY6        0.0000 
     66 CA         62.7300    3.7900    1.7500 C.3       6 GLY6        0.0000 
     67 CA         62.3000    3.1900    3.0600 C.3       6 GLY6        0.0000 
     68 CA         68.6000    1.4800    0.9100 C.3       6 GLY6        0.0000 
     69 CA         69.4700    2.4600    1.6400 C.3       6 GLY6        0.0000 
     70 CA         70.1800    0.8900    2.8900 C.3       6 GLY6        0.0000 
     71 CA         69.9100    2.8400    3.6800 C.3       6 GLY6        0.0000 
     72 CA         68.3400    3.2200    5.0600 C.3       6 GLY6        0.0000 
     73 DU         64.1400    0.8700    0.8900 H         7 CUB7        0.0000 
     74 DU         63.7100    0.2800    2.2000 H         7 CUB7        0.0000 
     75 DU         62.5700    1.2500    2.2700 H         7 CUB7        0.0000 
     76 DU         66.5800    1.4700    0.2500 H         7 CUB7        0.0000 
     77 DU         65.0100    1.8500    1.6200 H         7 CUB7        0.0000 
     78 DU         64.5800    1.2500    2.9300 H         7 CUB7        0.0000 
     79 DU         63.4400    2.2200    3.0000 H         7 CUB7        0.0000 
     80 DU         64.1500    0.6600    4.2400 H         7 CUB7        0.0000 
     81 DU         63.0100    1.6300    4.3000 H         7 CUB7        0.0000 
     82 DU         62.5800    1.0400    5.6100 H         7 CUB7        0.0000 
     83 DU         69.3100   -0.0800    2.1600 H         7 CUB7        0.0000 
     84 DU         68.1700    0.8900    2.2200 H         7 CUB7        0.0000 
     85 DU         67.0200    1.8600    2.2900 H         7 CUB7        0.0000 
     86 DU         65.8800    2.8300    2.3500 H         7 CUB7        0.0000 
     87 DU         64.7400    3.8000    2.4200 H         7 CUB7        0.0000 
     88 DU         67.7400    0.2900    3.5300 H         7 CUB7        0.0000 
     89 DU         66.5900    1.2600    3.6000 H         7 CUB7        0.0000 
     90 DU         64.3100    3.2000    3.7300 H         7 CUB7        0.0000 
     91 DU         69.0400    1.8600    2.9500 H         7 CUB7        0.0000 
     92 DU         67.4700    2.2400    4.3300 H         7 CUB7        0.0000 
@<TRIPOS>BOND
@<TRIPOS>SUBSTRUCTURE
     1 SER1        1 GROUP   
     2 ALA2        5 GROUP   
     3 ASP3       22 GROUP   
     4 LYS4       35 GROUP   
     5 PHE5       42 GROUP   
     6 GLY6       49 GROUP   
     7 CUB7       73 GROUP   
@<TRIPOS>SET

