#    Name: 6c90_1_ADP
#    Modification time : Fri May 22 19:25:02 2020

@<TRIPOS>MOLECULE
6c90_1_ADP
   27    29     1     0     1
SMALL
NO_CHARGES


@<TRIPOS>ATOM
      1 PB         65.4690    0.5350   -3.2470 P.3       1 ADP1101     0.0000 
      2 O1B        64.7120    1.5050   -4.1190 O.co2     1 ADP1101     0.0000 
      3 O2B        66.8670    0.2320   -3.7280 O.co2     1 ADP1101     0.0000 
      4 O3B        64.6500   -0.6670   -2.8320 O.co2     1 ADP1101     0.0000 
      5 PA         65.1980    0.7320   -0.4670 P.3       1 ADP1101     0.0000 
      6 O1A        63.6960    0.8920   -0.4100 O.co2     1 ADP1101     0.0000 
      7 O2A        65.8300   -0.6320   -0.3220 O.co2     1 ADP1101     0.0000 
      8 O3A        65.7220    1.3280   -1.8680 O.3       1 ADP1101     0.0000 
      9 O5'        65.8740    1.7340    0.6020 O.3       1 ADP1101     0.0000 
     10 C5'        67.0150    1.3460    1.3700 C.3       1 ADP1101     0.0000 
     11 C4'        66.9650    1.9860    2.7510 C.3       1 ADP1101     0.0000 
     12 O4'        66.7460    3.3940    2.6390 O.3       1 ADP1101     0.0000 
     13 C3'        65.8330    1.4220    3.5990 C.3       1 ADP1101     0.0000 
     14 O3'        66.3550    1.0010    4.8630 O.3       1 ADP1101     0.0000 
     15 C2'        64.8400    2.5590    3.7690 C.3       1 ADP1101     0.0000 
     16 O2'        64.2750    2.5710    5.0810 O.3       1 ADP1101     0.0000 
     17 C1'        65.6720    3.8040    3.4950 C.3       1 ADP1101     0.0000 
     18 N9         64.9520    4.9180    2.8300 N.pl3     1 ADP1101     0.0000 
     19 C8         64.1460    4.8430    1.7510 C.2       1 ADP1101     0.0000 
     20 N7         63.6790    6.0760    1.4190 N.2       1 ADP1101     0.0000 
     21 C5         64.1970    6.9570    2.2940 C.ar      1 ADP1101     0.0000 
     22 C6         64.1190    8.4170    2.5180 C.ar      1 ADP1101     0.0000 
     23 N6         63.3650    9.1860    1.7060 N.pl3     1 ADP1101     0.0000 
     24 N1         64.8170    8.9440    3.5490 N.ar      1 ADP1101     0.0000 
     25 C2         65.5710    8.1800    4.3630 C.ar      1 ADP1101     0.0000 
     26 N3         65.6840    6.8470    4.2130 N.ar      1 ADP1101     0.0000 
     27 C4         65.0340    6.1900    3.2210 C.ar      1 ADP1101     0.0000 
@<TRIPOS>BOND
     1    1    2 ar   
     2    1    3 ar   
     3    1    4 ar   
     4    1    8 1    
     5    5    6 ar   
     6    5    7 ar   
     7    5    8 1    
     8    5    9 1    
     9    9   10 1    
    10   10   11 1    
    11   11   12 1    
    12   11   13 1    
    13   12   17 1    
    14   13   14 1    
    15   13   15 1    
    16   15   16 1    
    17   15   17 1    
    18   17   18 1    
    19   18   19 1    
    20   18   27 1    
    21   19   20 2    
    22   20   21 1    
    23   21   22 ar   
    24   21   27 ar   
    25   22   23 1    
    26   22   24 ar   
    27   24   25 ar   
    28   25   26 ar   
    29   26   27 ar   
@<TRIPOS>SUBSTRUCTURE
     1 ADP1101     1 GROUP   
@<TRIPOS>SET
ATOM$ORANGE STATIC     ATOMS   COLORGROUP SYSTEM 
20 10 10 11 11 13 13 15 15 17 17 19 19 21 21 22 22 25 \
25 27 27 

