#    Name: 6rka_2_ATP
#    Modification time : Fri May 22 19:26:48 2020

@<TRIPOS>MOLECULE
6rka_2_ATP
   31    33     1     0     1
SMALL
NO_CHARGES


@<TRIPOS>ATOM
      1 PG         36.4650  -17.4920    1.8270 P.3       1 ATP401      0.0000 
      2 O1G        37.3240  -18.6180    1.3050 O.co2     1 ATP401      0.0000 
      3 O2G        35.0020  -17.8660    1.9170 O.co2     1 ATP401      0.0000 
      4 O3G        36.6890  -16.2040    1.0730 O.co2     1 ATP401      0.0000 
      5 PB         37.2080  -15.9390    4.2690 P.3       1 ATP401      0.0000 
      6 O1B        36.7580  -14.7200    3.5240 O.co2     1 ATP401      0.0000 
      7 O2B        36.6440  -16.2170    5.6170 O.co2     1 ATP401      0.0000 
      8 O3B        36.9690  -17.2310    3.3490 O.3       1 ATP401      0.0000 
      9 PA         39.8050  -16.8560    5.3130 P.3       1 ATP401      0.0000 
     10 O1A        39.9190  -18.1670    4.6100 O.co2     1 ATP401      0.0000 
     11 O2A        39.3570  -16.9240    6.7330 O.co2     1 ATP401      0.0000 
     12 O3A        38.8020  -15.9290    4.4590 O.3       1 ATP401      0.0000 
     13 O5'        41.2070  -16.0590    5.2090 O.3       1 ATP401      0.0000 
     14 C5'        41.4560  -14.7840    5.8710 C.3       1 ATP401      0.0000 
     15 C4'        41.5990  -14.9990    7.3600 C.3       1 ATP401      0.0000 
     16 O4'        42.9440  -15.4200    7.6870 O.3       1 ATP401      0.0000 
     17 C3'        41.4160  -13.7800    8.2670 C.3       1 ATP401      0.0000 
     18 O3'        40.0540  -13.3930    8.4080 O.3       1 ATP401      0.0000 
     19 C2'        42.0070  -14.3190    9.5730 C.3       1 ATP401      0.0000 
     20 O2'        41.0960  -15.0910   10.3250 O.3       1 ATP401      0.0000 
     21 C1'        43.1550  -15.1920    9.0640 C.3       1 ATP401      0.0000 
     22 N9         44.4530  -14.5640    9.2450 N.pl3     1 ATP401      0.0000 
     23 C8         44.7670  -13.2310    9.1220 C.2       1 ATP401      0.0000 
     24 N7         46.0330  -12.9900    9.3740 N.2       1 ATP401      0.0000 
     25 C5         46.5760  -14.2320    9.6800 C.ar      1 ATP401      0.0000 
     26 C6         47.8750  -14.6450   10.0360 C.ar      1 ATP401      0.0000 
     27 N6         48.9060  -13.8140   10.1560 N.pl3     1 ATP401      0.0000 
     28 N1         48.0650  -15.9660   10.2770 N.ar      1 ATP401      0.0000 
     29 C2         47.0200  -16.7980   10.1600 C.ar      1 ATP401      0.0000 
     30 N3         45.7600  -16.5220    9.8340 N.ar      1 ATP401      0.0000 
     31 C4         45.6050  -15.2070    9.6050 C.ar      1 ATP401      0.0000 
@<TRIPOS>BOND
     1    1    2 ar   
     2    1    3 ar   
     3    1    4 ar   
     4    1    8 1    
     5    5    6 ar   
     6    5    7 ar   
     7    5    8 1    
     8    5   12 1    
     9    9   10 ar   
    10    9   11 ar   
    11    9   12 1    
    12    9   13 1    
    13   13   14 1    
    14   14   15 1    
    15   15   16 1    
    16   15   17 1    
    17   16   21 1    
    18   17   18 1    
    19   17   19 1    
    20   19   20 1    
    21   19   21 1    
    22   21   22 1    
    23   22   23 1    
    24   22   31 1    
    25   23   24 2    
    26   24   25 1    
    27   25   26 ar   
    28   25   31 ar   
    29   26   27 1    
    30   26   28 ar   
    31   28   29 ar   
    32   29   30 ar   
    33   30   31 ar   
@<TRIPOS>SUBSTRUCTURE
     1 ATP401      1 GROUP   
@<TRIPOS>SET
ATOM$ORANGE STATIC     ATOMS   COLORGROUP SYSTEM 
20 14 14 15 15 17 17 19 19 21 21 23 23 25 25 26 26 29 \
29 31 31 

