#    Name: 6rka_2_ATP_CAVITY_N1_4
#    Modification time : Fri May 22 19:26:49 2020

@<TRIPOS>MOLECULE
6rka_2_ATP_CAVITY_N1_4
   77     0     7     0     0
SMALL
NO_CHARGES


@<TRIPOS>ATOM
      1 OG         45.8800  -17.9200    9.5400 O.3       1 SER1        0.0000 
      2 OG         47.4600  -16.9200   10.5400 O.3       1 SER1        0.0000 
      3 OG         46.1900  -16.4900    9.8700 O.3       1 SER1        0.0000 
      4 OG         47.7800  -15.4900   10.8600 O.3       1 SER1        0.0000 
      5 OG         49.5500  -13.7900    8.5800 O.3       1 SER1        0.0000 
      6 N          48.8200  -13.9200    9.8800 N.am      2 ALA2        0.0000 
      7 N          51.1400  -12.7900    9.5700 N.am      2 ALA2        0.0000 
      8 N          49.1400  -12.4900   10.2100 N.am      2 ALA2        0.0000 
      9 N          49.8700  -12.3600    8.9100 N.am      2 ALA2        0.0000 
     10 N          47.8700  -12.0600    9.5400 N.am      2 ALA2        0.0000 
     11 N          46.5900  -11.6300    8.8700 N.am      2 ALA2        0.0000 
     12 N          44.5900  -11.3400    9.5000 N.am      2 ALA2        0.0000 
     13 N          45.3200  -11.2000    8.2000 N.am      2 ALA2        0.0000 
     14 N          45.6400   -9.7700    8.5300 N.am      2 ALA2        0.0000 
     15 N          43.6300   -9.4800    9.1600 N.am      2 ALA2        0.0000 
     16 OD1        42.0600  -16.6300    7.5400 O.co2     3 ASP3        0.0000 
     17 OD1        40.7900  -16.2000    6.8700 O.co2     3 ASP3        0.0000 
     18 NZ         44.6100  -17.4900    8.8700 N.4       4 LYS4        0.0000 
     19 NZ         45.3400  -17.3500    7.5700 N.4       4 LYS4        0.0000 
     20 NZ         42.8000  -16.4900    6.2300 N.4       4 LYS4        0.0000 
     21 NZ         41.5200  -16.0600    5.5600 N.4       4 LYS4        0.0000 
     22 NZ         44.3800  -15.4900    7.2300 N.4       4 LYS4        0.0000 
     23 NZ         45.1100  -15.3600    5.9200 N.4       4 LYS4        0.0000 
     24 NZ         43.1100  -15.0600    6.5600 N.4       4 LYS4        0.0000 
     25 NZ         43.8400  -14.9300    5.2600 N.4       4 LYS4        0.0000 
     26 NZ         41.9600  -13.9000    9.4900 N.4       4 LYS4        0.0000 
     27 NZ         41.4200  -13.3400    7.5200 N.4       4 LYS4        0.0000 
     28 NZ         42.1500  -13.2000    6.2100 N.4       4 LYS4        0.0000 
     29 NZ         42.2700  -12.4700    9.8100 N.4       4 LYS4        0.0000 
     30 NZ         43.0100  -12.3400    8.5100 N.4       4 LYS4        0.0000 
     31 NZ         43.7400  -12.2000    7.2100 N.4       4 LYS4        0.0000 
     32 NZ         41.0000  -12.0400    9.1400 N.4       4 LYS4        0.0000 
     33 NZ         43.2000  -11.6400    5.2400 N.4       4 LYS4        0.0000 
     34 NZ         42.5900  -11.0400   10.1400 N.4       4 LYS4        0.0000 
     35 NZ         43.3200  -10.9100    8.8300 N.4       4 LYS4        0.0000 
     36 NZ         44.0500  -10.7700    7.5300 N.4       4 LYS4        0.0000 
     37 NZ         42.7800  -10.3400    6.8600 N.4       4 LYS4        0.0000 
     38 CZ         44.1900  -16.1900   10.5000 C.ar      5 PHE5        0.0000 
     39 CZ         40.3800  -14.9000    8.4900 C.ar      5 PHE5        0.0000 
     40 CZ         41.1100  -14.7700    7.1900 C.ar      5 PHE5        0.0000 
     41 CZ         39.8400  -14.3400    6.5200 C.ar      5 PHE5        0.0000 
     42 CZ         46.5100  -15.0600   10.1900 C.ar      5 PHE5        0.0000 
     43 CZ         44.5000  -14.7600   10.8300 C.ar      5 PHE5        0.0000 
     44 CZ         45.2400  -14.6300    9.5200 C.ar      5 PHE5        0.0000 
     45 CZ         43.2300  -14.3300   10.1600 C.ar      5 PHE5        0.0000 
     46 CZ         40.6900  -13.4700    8.8200 C.ar      5 PHE5        0.0000 
     47 CZ         48.0900  -14.0600   11.1900 C.ar      5 PHE5        0.0000 
     48 CZ         46.8200  -13.6300   10.5200 C.ar      5 PHE5        0.0000 
     49 CZ         45.5500  -13.2000    9.8500 C.ar      5 PHE5        0.0000 
     50 CZ         43.5500  -12.9000   10.4800 C.ar      5 PHE5        0.0000 
     51 CZ         44.2800  -12.7700    9.1800 C.ar      5 PHE5        0.0000 
     52 CZ         47.1300  -12.2000   10.8400 C.ar      5 PHE5        0.0000 
     53 CZ         45.8600  -11.7700   10.1700 C.ar      5 PHE5        0.0000 
     54 CA         43.8800  -17.6200   10.1800 C.3       6 GLY6        0.0000 
     55 CA         43.3400  -17.0600    8.2100 C.3       6 GLY6        0.0000 
     56 CA         45.4600  -16.6200   11.1700 C.3       6 GLY6        0.0000 
     57 CA         46.9200  -16.3500    8.5700 C.3       6 GLY6        0.0000 
     58 CA         45.6500  -15.9200    7.9000 C.3       6 GLY6        0.0000 
     59 CA         42.9200  -15.7600    9.8300 C.3       6 GLY6        0.0000 
     60 CA         43.6500  -15.6300    8.5300 C.3       6 GLY6        0.0000 
     61 CA         41.6500  -15.3300    9.1600 C.3       6 GLY6        0.0000 
     62 CA         42.3800  -15.2000    7.8600 C.3       6 GLY6        0.0000 
     63 CA         47.2400  -14.9200    8.8900 C.3       6 GLY6        0.0000 
     64 CA         45.9700  -14.4900    8.2200 C.3       6 GLY6        0.0000 
     65 DU         44.9200  -16.0600    9.2000 H         7 CUB7        0.0000 
     66 DU         41.8400  -14.6300    5.8900 H         7 CUB7        0.0000 
     67 DU         43.9600  -14.2000    8.8500 H         7 CUB7        0.0000 
     68 DU         44.6900  -14.0600    7.5500 H         7 CUB7        0.0000 
     69 DU         45.4300  -13.9300    6.2500 H         7 CUB7        0.0000 
     70 DU         42.6900  -13.7700    8.1900 H         7 CUB7        0.0000 
     71 DU         43.4200  -13.6300    6.8800 H         7 CUB7        0.0000 
     72 DU         44.1500  -13.5000    5.5800 H         7 CUB7        0.0000 
     73 DU         47.5500  -13.4900    9.2100 H         7 CUB7        0.0000 
     74 DU         46.2800  -13.0600    8.5500 H         7 CUB7        0.0000 
     75 DU         44.4700  -12.0700    5.9000 H         7 CUB7        0.0000 
     76 DU         44.7800  -10.6400    6.2300 H         7 CUB7        0.0000 
     77 DU         46.3700   -9.6400    7.2200 H         7 CUB7        0.0000 
@<TRIPOS>BOND
@<TRIPOS>SUBSTRUCTURE
     1 SER1        1 GROUP   
     2 ALA2        6 GROUP   
     3 ASP3       16 GROUP   
     4 LYS4       18 GROUP   
     5 PHE5       38 GROUP   
     6 GLY6       54 GROUP   
     7 CUB7       65 GROUP   
@<TRIPOS>SET

