#    Name: 6rka_1_SAM
#    Modification time : Fri May 22 19:26:41 2020

@<TRIPOS>MOLECULE
6rka_1_SAM
   27    29     1     0     0
SMALL
NO_CHARGES


@<TRIPOS>ATOM
      1 N          28.5010   21.0610  -11.2150 N.4       1 SAM401      0.0000 
      2 CA         28.4190   22.0200  -12.3500 C.3       1 SAM401      0.0000 
      3 C          29.4970   21.6560  -13.3940 C.2       1 SAM401      0.0000 
      4 O          29.3470   22.0970  -14.5510 O.co2     1 SAM401      0.0000 
      5 OXT        30.4420   20.9190  -13.0340 O.co2     1 SAM401      0.0000 
      6 CB         28.6100   23.4560  -11.8350 C.3       1 SAM401      0.0000 
      7 CG         27.4640   24.4810  -12.0370 C.3       1 SAM401      0.0000 
      8 SD         25.8020   23.9050  -12.5290 S.3       1 SAM401      0.0000 
      9 CE         25.5220   24.8700  -14.0060 C.3       1 SAM401      0.0000 
     10 C5'        24.8050   24.8160  -11.3210 C.3       1 SAM401      0.0000 
     11 C4'        23.2950   24.7850  -11.5410 C.3       1 SAM401      0.0000 
     12 O4'        22.9640   25.1360  -12.9050 O.3       1 SAM401      0.0000 
     13 C3'        22.5960   23.4460  -11.3430 C.3       1 SAM401      0.0000 
     14 O3'        22.3190   23.1690   -9.9790 O.3       1 SAM401      0.0000 
     15 C2'        21.2800   23.7040  -12.0690 C.3       1 SAM401      0.0000 
     16 O2'        20.4100   24.4420  -11.2410 O.3       1 SAM401      0.0000 
     17 C1'        21.7520   24.5080  -13.2780 C.3       1 SAM401      0.0000 
     18 N9         21.9580   23.7130  -14.4910 N.pl3     1 SAM401      0.0000 
     19 C8         22.1790   22.3580  -14.5830 C.2       1 SAM401      0.0000 
     20 N7         22.3030   21.9290  -15.8160 N.2       1 SAM401      0.0000 
     21 C5         22.1570   23.0710  -16.5920 C.ar      1 SAM401      0.0000 
     22 C6         22.1860   23.2820  -17.9870 C.ar      1 SAM401      0.0000 
     23 N6         22.3670   22.3090  -18.8750 N.pl3     1 SAM401      0.0000 
     24 N1         22.0100   24.5520  -18.4370 N.ar      1 SAM401      0.0000 
     25 C2         21.8140   25.5250  -17.5340 C.ar      1 SAM401      0.0000 
     26 N3         21.7610   25.4420  -16.2060 N.ar      1 SAM401      0.0000 
     27 C4         21.9420   24.1770  -15.7880 C.ar      1 SAM401      0.0000 
@<TRIPOS>BOND
     1    1    2 1    
     2    2    3 1    
     3    2    6 1    
     4    3    4 ar   
     5    3    5 ar   
     6    6    7 1    
     7    7    8 1    
     8    8    9 1    
     9    8   10 1    
    10   10   11 1    
    11   11   12 1    
    12   11   13 1    
    13   12   17 1    
    14   13   14 1    
    15   13   15 1    
    16   15   16 1    
    17   15   17 1    
    18   17   18 1    
    19   18   19 1    
    20   18   27 1    
    21   19   20 2    
    22   20   21 1    
    23   21   22 ar   
    24   21   27 ar   
    25   22   23 1    
    26   22   24 ar   
    27   24   25 ar   
    28   25   26 ar   
    29   26   27 ar   
@<TRIPOS>SUBSTRUCTURE
     1 SAM401      1 GROUP   
@<TRIPOS>SET

