#    Name: 6e8q_1_X2N
#    Modification time : Fri May 22 19:30:52 2020

@<TRIPOS>MOLECULE
6e8q_1_X2N
   51    57     1     0     0
SMALL
NO_CHARGES


@<TRIPOS>ATOM
      1 CAA         2.3980   14.0270   18.5830 C.3       1 X2N602      0.0000 
      2 CAB         3.2640   17.8490   21.4460 C.3       1 X2N602      0.0000 
      3 OAC         6.2380   15.8930   20.0120 O.2       1 X2N602      0.0000 
      4 OAD         3.4230   15.8840   22.8160 O.3       1 X2N602      0.0000 
      5 FAE        22.5890   12.9700   14.0240 F         1 X2N602      0.0000 
      6 FAF        26.5510   11.4300   12.0840 F         1 X2N602      0.0000 
      7 CAG        24.5860   12.1690   13.0880 C.ar      1 X2N602      0.0000 
      8 CAH        17.2060    9.8070   18.5580 C.ar      1 X2N602      0.0000 
      9 CAI        17.5860   12.1110   18.0970 C.ar      1 X2N602      0.0000 
     10 CAJ        16.0290   10.1390   19.2390 C.ar      1 X2N602      0.0000 
     11 CAK        16.4180   12.4330   18.7870 C.ar      1 X2N602      0.0000 
     12 CAL         9.5600   11.9550   21.4060 C.ar      1 X2N602      0.0000 
     13 CAM         9.8810   13.8810   20.0410 C.ar      1 X2N602      0.0000 
     14 CAN         8.2010   12.2880   21.4850 C.ar      1 X2N602      0.0000 
     15 CAO         8.5370   14.1800   20.1400 C.ar      1 X2N602      0.0000 
     16 CAP        25.6190   11.2490   13.0330 C.ar      1 X2N602      0.0000 
     17 CAQ        25.7530   13.6460   17.6440 C.2       1 X2N602      0.0000 
     18 CAR        23.6590   10.9460   14.9780 C.ar      1 X2N602      0.0000 
     19 CAS        24.8040   11.7020   18.2030 C.2       1 X2N602      0.0000 
     20 CAT         5.3880   12.8060   21.3190 C.2       1 X2N602      0.0000 
     21 CAU         2.0240   14.7440   19.8680 C.3       1 X2N602      0.0000 
     22 CAV        21.2480   10.5180   15.4640 C.3       1 X2N602      0.0000 
     23 CAW        13.3910   10.7960   20.1180 C.3       1 X2N602      0.0000 
     24 CAX        13.9310   13.1820   19.7420 C.3       1 X2N602      0.0000 
     25 CAY        12.2920   11.2550   21.0800 C.3       1 X2N602      0.0000 
     26 CAZ        12.7730   13.5890   20.6600 C.3       1 X2N602      0.0000 
     27 CBB        19.3840    9.2880   16.5710 C.3       1 X2N602      0.0000 
     28 CBC        22.6600   12.1130   16.8290 C.3       1 X2N602      0.0000 
     29 NBD        25.8860   12.4930   18.3610 N.2       1 X2N602      0.0000 
     30 NBE        24.5630   13.5950   17.0200 N.2       1 X2N602      0.0000 
     31 NBF         4.1580   13.3980   21.2000 N.2       1 X2N602      0.0000 
     32 OBG        19.1710   10.4990   17.3050 O.3       1 X2N602      0.0000 
     33 OBH        22.9700    9.7420   16.9300 O.3       1 X2N602      0.0000 
     34 CBI        23.5910   12.0690   14.0260 C.ar      1 X2N602      0.0000 
     35 CBJ        24.7180   10.0500   14.9160 C.ar      1 X2N602      0.0000 
     36 CBK        17.9970   10.7900   17.9720 C.ar      1 X2N602      0.0000 
     37 CBL        15.6110   11.4580   19.3530 C.ar      1 X2N602      0.0000 
     38 CBM        10.4180   12.7770   20.6830 C.ar      1 X2N602      0.0000 
     39 CBN         7.6260   13.4150   20.8660 C.ar      1 X2N602      0.0000 
     40 CBO        25.6950   10.1970   13.9320 C.ar      1 X2N602      0.0000 
     41 CBP         5.6890   14.8160   20.4750 C.2       1 X2N602      0.0000 
     42 CBQ         2.8070   16.4040   21.6320 C.3       1 X2N602      0.0000 
     43 CBS         3.1920   15.5650   20.4100 C.3       1 X2N602      0.0000 
     44 NBT        14.4400   11.8290   20.0850 N.3       1 X2N602      0.0000 
     45 NBU        11.7930   12.5010   20.4850 N.3       1 X2N602      0.0000 
     46 NBV        23.9920   12.3710   17.3770 N.pl3     1 X2N602      0.0000 
     47 NBW         6.3030   13.7100   20.9230 N.am      1 X2N602      0.0000 
     48 NBX         4.3760   14.6880   20.6690 N.am      1 X2N602      0.0000 
     49 C2         22.6310   10.8080   16.0420 C.3       1 X2N602      0.0000 
     50 C32        21.7920    8.9870   17.2500 C.3       1 X2N602      0.0000 
     51 C7         20.8270    9.1930   16.0870 C.3       1 X2N602      0.0000 
@<TRIPOS>BOND
     1    1   21 1    
     2    2   42 1    
     3    3   41 2    
     4    4   42 1    
     5    5   34 1    
     6    6   16 1    
     7    7   16 ar   
     8    7   34 ar   
     9    8   10 ar   
    10    8   36 ar   
    11    9   11 ar   
    12    9   36 ar   
    13   10   37 ar   
    14   11   37 ar   
    15   12   14 ar   
    16   12   38 ar   
    17   13   15 ar   
    18   13   38 ar   
    19   14   39 ar   
    20   15   39 ar   
    21   16   40 ar   
    22   17   29 1    
    23   17   30 2    
    24   18   34 ar   
    25   18   35 ar   
    26   18   49 1    
    27   19   29 2    
    28   19   46 1    
    29   20   31 2    
    30   20   47 1    
    31   21   43 1    
    32   22   49 1    
    33   22   51 1    
    34   23   25 1    
    35   23   44 1    
    36   24   26 1    
    37   24   44 1    
    38   25   45 1    
    39   26   45 1    
    40   27   32 1    
    41   27   51 1    
    42   28   46 1    
    43   28   49 1    
    44   30   46 1    
    45   31   48 1    
    46   32   36 1    
    47   33   49 1    
    48   33   50 1    
    49   35   40 ar   
    50   37   44 1    
    51   38   45 1    
    52   39   47 1    
    53   41   47 am   
    54   41   48 am   
    55   42   43 1    
    56   43   48 1    
    57   50   51 1    
@<TRIPOS>SUBSTRUCTURE
     1 X2N602      1 GROUP   
@<TRIPOS>SET

