#    Name: 6p1i_1_DCP_CAVITY_N1_6
#    Modification time : Fri May 22 19:29:38 2020

@<TRIPOS>MOLECULE
6p1i_1_DCP_CAVITY_N1_6
   94     0     6     0     0
SMALL
NO_CHARGES


@<TRIPOS>ATOM
      1 N          44.2700   -7.2500  -27.9800 N.am      1 ALA2        0.0000 
      2 N          43.4200   -6.3900  -28.8800 N.am      1 ALA2        0.0000 
      3 N          45.9300   -5.9800  -28.3300 N.am      1 ALA2        0.0000 
      4 N          43.9700   -5.1600  -28.2300 N.am      1 ALA2        0.0000 
      5 N          46.4800   -4.7400  -27.6800 N.am      1 ALA2        0.0000 
      6 N          47.5900   -4.7100  -28.6800 N.am      1 ALA2        0.0000 
      7 O          43.4100   -3.9700  -26.5700 O.2       1 ALA2        0.0000 
      8 N          45.6300   -3.8900  -28.5800 N.am      1 ALA2        0.0000 
      9 N          46.7400   -3.8500  -29.5900 N.am      1 ALA2        0.0000 
     10 O          42.0000   -1.9200  -25.8100 O.2       1 ALA2        0.0000 
     11 O          47.3100   -3.1700  -24.4600 O.2       1 ALA2        0.0000 
     12 O          45.3500   -2.3500  -24.3600 O.2       1 ALA2        0.0000 
     13 O          43.3900   -1.5400  -24.2500 O.2       1 ALA2        0.0000 
     14 O          41.4400   -0.7200  -24.1500 O.2       1 ALA2        0.0000 
     15 N          40.6000    0.1300  -25.0500 N.am      1 ALA2        0.0000 
     16 N          41.7100    0.1700  -26.0600 N.am      1 ALA2        0.0000 
     17 N          39.7500    0.9800  -25.9500 N.am      1 ALA2        0.0000 
     18 O          49.7700    0.7800  -30.5400 O.2       1 ALA2        0.0000 
     19 OD1        43.6800   -3.0800  -28.4700 O.co2     2 ASP3        0.0000 
     20 OD1        43.9600   -2.7300  -25.9100 O.co2     2 ASP3        0.0000 
     21 OD1        45.0700   -2.6900  -26.9200 O.co2     2 ASP3        0.0000 
     22 OD1        46.1800   -2.6600  -27.9300 O.co2     2 ASP3        0.0000 
     23 OD1        43.1100   -1.8800  -26.8100 O.co2     2 ASP3        0.0000 
     24 OD1        45.3400   -1.8000  -28.8300 O.co2     2 ASP3        0.0000 
     25 OD1        46.4600   -2.3100  -25.3700 O.co2     2 ASP3        0.0000 
     26 OD1        48.6900   -2.2400  -27.3800 O.co2     2 ASP3        0.0000 
     27 OD1        44.5100   -1.5000  -25.2600 O.co2     2 ASP3        0.0000 
     28 OD1        45.6200   -1.4600  -26.2700 O.co2     2 ASP3        0.0000 
     29 OD1        46.7300   -1.4200  -27.2700 O.co2     2 ASP3        0.0000 
     30 OD1        42.5500   -0.6800  -25.1500 O.co2     2 ASP3        0.0000 
     31 OD1        47.0000   -0.5300  -29.1800 O.co2     2 ASP3        0.0000 
     32 OD1        48.9700   -1.9000  -24.8200 O.co2     2 ASP3        0.0000 
     33 OD1        47.0100   -1.0800  -24.7100 O.co2     2 ASP3        0.0000 
     34 OD1        48.1200   -1.0400  -25.7200 O.co2     2 ASP3        0.0000 
     35 OD1        50.3500   -0.9700  -27.7300 O.co2     2 ASP3        0.0000 
     36 OD1        45.0600   -0.2700  -24.6100 O.co2     2 ASP3        0.0000 
     37 OD1        46.1700   -0.2300  -25.6100 O.co2     2 ASP3        0.0000 
     38 OD1        47.2800   -0.1900  -26.6200 O.co2     2 ASP3        0.0000 
     39 OD1        48.3900   -0.1500  -27.6200 O.co2     2 ASP3        0.0000 
     40 OD1        49.5000   -0.1100  -28.6300 O.co2     2 ASP3        0.0000 
     41 OD1        43.1000    0.5500  -24.5000 O.co2     2 ASP3        0.0000 
     42 OD1        44.2100    0.5900  -25.5100 O.co2     2 ASP3        0.0000 
     43 OD1        42.2600    1.4000  -25.4000 O.co2     2 ASP3        0.0000 
     44 OD1        41.4100    2.2500  -26.3000 O.co2     2 ASP3        0.0000 
     45 OD1        46.7200    1.0000  -24.9600 O.co2     2 ASP3        0.0000 
     46 OD1        48.9400    1.0800  -26.9700 O.co2     2 ASP3        0.0000 
     47 OD1        50.0500    1.1200  -27.9800 O.co2     2 ASP3        0.0000 
     48 OD1        44.7600    1.8200  -24.8500 O.co2     2 ASP3        0.0000 
     49 OD1        45.8700    1.8600  -25.8600 O.co2     2 ASP3        0.0000 
     50 NZ         44.0000   -8.1400  -26.0700 N.4       3 LYS4        0.0000 
     51 NZ         45.1100   -8.1000  -27.0800 N.4       3 LYS4        0.0000 
     52 NZ         44.8100   -6.0100  -27.3300 N.4       3 LYS4        0.0000 
     53 NZ         47.3200   -5.6000  -26.7800 N.4       3 LYS4        0.0000 
     54 NZ         45.3600   -4.7800  -26.6700 N.4       3 LYS4        0.0000 
     55 NZ         46.7600   -4.4000  -25.1200 N.4       3 LYS4        0.0000 
     56 NZ         44.8000   -3.5900  -25.0100 N.4       3 LYS4        0.0000 
     57 NZ         45.9100   -3.5500  -26.0200 N.4       3 LYS4        0.0000 
     58 NZ         43.6500    1.7800  -23.8500 N.4       3 LYS4        0.0000 
     59 CZ         43.1500   -7.2900  -26.9700 C.ar      4 PHE5        0.0000 
     60 CZ         42.3100   -6.4300  -27.8800 C.ar      4 PHE5        0.0000 
     61 CZ         42.8600   -5.2000  -27.2200 C.ar      4 PHE5        0.0000 
     62 CZ         41.1400    1.3600  -24.4000 C.ar      4 PHE5        0.0000 
     63 CZ         40.3000    2.2200  -25.3000 C.ar      4 PHE5        0.0000 
     64 CZ         40.8500    3.4500  -24.6400 C.ar      4 PHE5        0.0000 
     65 CA         43.1300   -4.3100  -29.1300 C.3       5 GLY6        0.0000 
     66 CA         48.4300   -5.5600  -27.7800 C.3       5 GLY6        0.0000 
     67 CA         44.7900   -3.0400  -29.4800 C.3       5 GLY6        0.0000 
     68 CA         49.2500   -3.4300  -29.0400 C.3       5 GLY6        0.0000 
     69 CA         50.3600   -3.4000  -30.0400 C.3       5 GLY6        0.0000 
     70 CA         47.2900   -2.6200  -28.9300 C.3       5 GLY6        0.0000 
     71 CA         46.4500   -1.7700  -29.8300 C.3       5 GLY6        0.0000 
     72 CA         49.8000   -2.2000  -28.3800 C.3       5 GLY6        0.0000 
     73 CA         50.9100   -2.1600  -29.3900 C.3       5 GLY6        0.0000 
     74 CA         47.8400   -1.3900  -28.2800 C.3       5 GLY6        0.0000 
     75 CA         48.9600   -1.3500  -29.2800 C.3       5 GLY6        0.0000 
     76 CA         50.0700   -1.3100  -30.2900 C.3       5 GLY6        0.0000 
     77 CA         51.4600   -0.9300  -28.7300 C.3       5 GLY6        0.0000 
     78 CA         43.9400   -0.3000  -23.6000 C.3       5 GLY6        0.0000 
     79 CA         50.6200   -0.0800  -29.6400 C.3       5 GLY6        0.0000 
     80 CA         41.9900    0.5100  -23.5000 C.3       5 GLY6        0.0000 
     81 CA         48.6600    0.7400  -29.5300 C.3       5 GLY6        0.0000 
     82 CA         51.1700    1.1600  -28.9800 C.3       5 GLY6        0.0000 
     83 CA         42.5400    1.7400  -22.8400 C.3       5 GLY6        0.0000 
     84 CA         41.6900    2.6000  -23.7400 C.3       5 GLY6        0.0000 
     85 CA         42.8100    2.6300  -24.7500 C.3       5 GLY6        0.0000 
     86 CA         43.9200    2.6700  -25.7500 C.3       5 GLY6        0.0000 
     87 CA         41.9600    3.4900  -25.6500 C.3       5 GLY6        0.0000 
     88 CA         45.3100    3.0500  -24.2000 C.3       5 GLY6        0.0000 
     89 DU         44.5200   -3.9300  -27.5700 H         6 CUB7        0.0000 
     90 DU         47.8700   -4.3600  -26.1200 H         6 CUB7        0.0000 
     91 DU         47.0300   -3.5100  -27.0200 H         6 CUB7        0.0000 
     92 DU         48.1400   -3.4700  -28.0300 H         6 CUB7        0.0000 
     93 DU         48.4200   -3.1300  -25.4700 H         6 CUB7        0.0000 
     94 DU         47.5700   -2.2800  -26.3700 H         6 CUB7        0.0000 
@<TRIPOS>BOND
@<TRIPOS>SUBSTRUCTURE
     1 ALA2        1 GROUP   
     2 ASP3       19 GROUP   
     3 LYS4       50 GROUP   
     4 PHE5       59 GROUP   
     5 GLY6       65 GROUP   
     6 CUB7       89 GROUP   
@<TRIPOS>SET

