#    Name: 6p1i_1_DCP
#    Modification time : Fri May 22 19:29:37 2020

@<TRIPOS>MOLECULE
6p1i_1_DCP
   28    29     1     0     0
SMALL
NO_CHARGES


@<TRIPOS>ATOM
      1 N1         41.3270    2.9690  -27.2450 N.am      1 DCP602      0.0000 
      2 C2         40.4200    2.9390  -28.3060 C.2       1 DCP602      0.0000 
      3 N3         40.8670    3.2270  -29.5580 N.2       1 DCP602      0.0000 
      4 C4         42.1620    3.5240  -29.7730 C.2       1 DCP602      0.0000 
      5 C5         43.1090    3.5520  -28.7040 C.2       1 DCP602      0.0000 
      6 C6         42.6520    3.2810  -27.4680 C.2       1 DCP602      0.0000 
      7 O2         39.2440    2.6470  -28.0740 O.2       1 DCP602      0.0000 
      8 N4         42.5410    3.8060  -31.0210 N.pl3     1 DCP602      0.0000 
      9 C1'        40.8080    2.6040  -25.9050 C.3       1 DCP602      0.0000 
     10 C2'        40.6170    1.1030  -25.7280 C.3       1 DCP602      0.0000 
     11 C3'        42.0020    0.7010  -25.2570 C.3       1 DCP602      0.0000 
     12 C4'        42.3060    1.8240  -24.2800 C.3       1 DCP602      0.0000 
     13 O4'        41.7680    3.0030  -24.9270 O.3       1 DCP602      0.0000 
     14 O3'        42.0070   -0.5590  -24.5970 O.3       1 DCP602      0.0000 
     15 C5'        43.7660    2.0040  -23.9500 C.3       1 DCP602      0.0000 
     16 O5'        44.5260    1.9710  -25.1730 O.3       1 DCP602      0.0000 
     17 PA         45.7160    0.9450  -25.3930 P.3       1 DCP602      0.0000 
     18 O1A        46.4300    1.2740  -26.6490 O.co2     1 DCP602      0.0000 
     19 O2A        46.6240    0.9100  -24.1110 O.co2     1 DCP602      0.0000 
     20 O3A        44.9550   -0.4550  -25.4570 O.3       1 DCP602      0.0000 
     21 PB         45.1590   -1.7400  -24.5380 P.3       1 DCP602      0.0000 
     22 O1B        43.9800   -2.7140  -24.7840 O.co2     1 DCP602      0.0000 
     23 O2B        45.3780   -1.3620  -23.1320 O.co2     1 DCP602      0.0000 
     24 O3B        46.4840   -2.3660  -25.1610 O.3       1 DCP602      0.0000 
     25 PG         47.8940   -2.7060  -24.5020 P.3       1 DCP602      0.0000 
     26 O1G        48.8850   -2.8830  -25.6690 O.co2     1 DCP602      0.0000 
     27 O2G        47.7890   -3.9170  -23.6300 O.co2     1 DCP602      0.0000 
     28 O3G        48.2860   -1.4610  -23.6740 O.co2     1 DCP602      0.0000 
@<TRIPOS>BOND
     1    1    2 am   
     2    1    6 1    
     3    1    9 1    
     4    2    3 1    
     5    2    7 2    
     6    3    4 2    
     7    4    5 1    
     8    4    8 1    
     9    5    6 2    
    10    9   10 1    
    11    9   13 1    
    12   10   11 1    
    13   11   12 1    
    14   11   14 1    
    15   12   13 1    
    16   12   15 1    
    17   15   16 1    
    18   16   17 1    
    19   17   18 ar   
    20   17   19 ar   
    21   17   20 1    
    22   20   21 1    
    23   21   22 ar   
    24   21   23 ar   
    25   21   24 1    
    26   24   25 1    
    27   25   26 ar   
    28   25   27 ar   
    29   25   28 ar   
@<TRIPOS>SUBSTRUCTURE
     1 DCP602      1 GROUP   
@<TRIPOS>SET

