#    Name: 6o6y_1_ACK_CAVITY_N1_12
#    Modification time : Fri May 22 19:35:54 2020

@<TRIPOS>MOLECULE
6o6y_1_ACK_CAVITY_N1_12
   84     0     7     0     0
SMALL
NO_CHARGES


@<TRIPOS>ATOM
      1 OG        -13.3000   69.3000    6.1300 O.3       1 SER1        0.0000 
      2 OG        -13.0700   69.9000    4.7700 O.3       1 SER1        0.0000 
      3 OG        -16.1800   70.1300    6.0200 O.3       1 SER1        0.0000 
      4 OG        -17.6200   70.5500    5.9700 O.3       1 SER1        0.0000 
      5 OG        -17.3900   71.1500    4.6100 O.3       1 SER1        0.0000 
      6 N         -13.5200   68.6900    7.4800 N.am      2 ALA2        0.0000 
      7 O         -17.8400   69.9400    7.3200 O.2       2 ALA2        0.0000 
      8 O         -19.2800   70.3600    7.2700 O.2       2 ALA2        0.0000 
      9 N         -19.0500   70.9600    5.9100 N.am      2 ALA2        0.0000 
     10 O         -20.4900   71.3800    5.8600 O.2       2 ALA2        0.0000 
     11 O         -22.1600   71.1900    7.1600 O.2       2 ALA2        0.0000 
     12 N         -13.1600   70.0000    8.1200 N.am      2 ALA2        0.0000 
     13 O         -19.1500   71.0700    9.2600 O.2       2 ALA2        0.0000 
     14 O         -20.5900   71.4900    9.2100 O.2       2 ALA2        0.0000 
     15 O         -20.3600   72.0900    7.8500 O.2       2 ALA2        0.0000 
     16 N         -20.2300   72.8000    9.8500 N.am      2 ALA2        0.0000 
     17 N         -11.2000   76.3400    4.6100 N.am      2 ALA2        0.0000 
     18 OD1       -14.1900   70.8100    0.0100 O.co2     3 ASP3        0.0000 
     19 OD1       -15.8600   70.6200    1.3100 O.co2     3 ASP3        0.0000 
     20 OD1       -13.8400   72.1200    0.6500 O.co2     3 ASP3        0.0000 
     21 OD1       -15.5000   71.9300    1.9500 O.co2     3 ASP3        0.0000 
     22 OD1       -12.0400   73.0100    1.3400 O.co2     3 ASP3        0.0000 
     23 OD1        -9.5400   76.5200    3.3100 O.co2     3 ASP3        0.0000 
     24 NZ        -11.8600   68.8800    6.1800 N.4       4 LYS4        0.0000 
     25 NZ        -11.4100   70.0800    3.4700 N.4       4 LYS4        0.0000 
     26 NZ        -12.8500   70.5000    3.4100 N.4       4 LYS4        0.0000 
     27 NZ        -16.6200   68.9300    8.7300 N.4       4 LYS4        0.0000 
     28 NZ        -18.0600   69.3400    8.6800 N.4       4 LYS4        0.0000 
     29 NZ        -17.7100   70.6500    9.3200 N.4       4 LYS4        0.0000 
     30 CZ        -14.4200   70.2100    1.3600 C.ar      5 PHE5        0.0000 
     31 CZ        -14.9600   69.1100    7.4300 C.ar      5 PHE5        0.0000 
     32 CZ        -14.7400   69.7100    6.0700 C.ar      5 PHE5        0.0000 
     33 CZ        -14.5100   70.3100    4.7200 C.ar      5 PHE5        0.0000 
     34 CZ        -14.2900   70.9100    3.3600 C.ar      5 PHE5        0.0000 
     35 CZ        -14.0600   71.5100    2.0000 C.ar      5 PHE5        0.0000 
     36 CZ        -16.4000   69.5300    7.3700 C.ar      5 PHE5        0.0000 
     37 CZ        -15.9500   70.7300    4.6600 C.ar      5 PHE5        0.0000 
     38 CZ        -15.7300   71.3300    3.3100 C.ar      5 PHE5        0.0000 
     39 CZ        -17.1700   71.7500    3.2500 C.ar      5 PHE5        0.0000 
     40 CZ        -14.3800   71.0200    6.7100 C.ar      5 PHE5        0.0000 
     41 CZ        -14.1600   71.6200    5.3600 C.ar      5 PHE5        0.0000 
     42 CZ        -16.0400   70.8400    8.0100 C.ar      5 PHE5        0.0000 
     43 CZ        -15.8200   71.4400    6.6600 C.ar      5 PHE5        0.0000 
     44 CZ        -15.6000   72.0400    5.3000 C.ar      5 PHE5        0.0000 
     45 CZ        -17.4800   71.2500    7.9600 C.ar      5 PHE5        0.0000 
     46 CZ        -17.2600   71.8500    6.6000 C.ar      5 PHE5        0.0000 
     47 CZ        -17.0400   72.4600    5.2500 C.ar      5 PHE5        0.0000 
     48 CZ        -18.9200   71.6700    7.9100 C.ar      5 PHE5        0.0000 
     49 CZ        -18.7000   72.2700    6.5500 C.ar      5 PHE5        0.0000 
     50 CZ        -13.5800   73.5300    4.6400 C.ar      5 PHE5        0.0000 
     51 CZ        -18.7900   72.3800    9.9000 C.ar      5 PHE5        0.0000 
     52 CZ        -18.5700   72.9800    8.5500 C.ar      5 PHE5        0.0000 
     53 CZ        -18.3400   73.5800    7.1900 C.ar      5 PHE5        0.0000 
     54 CZ        -13.2200   74.8400    5.2800 C.ar      5 PHE5        0.0000 
     55 CA        -12.6200   71.1000    2.0600 C.3       6 GLY6        0.0000 
     56 CA        -11.5000   70.1900    6.8200 C.3       6 GLY6        0.0000 
     57 CA        -11.2800   70.7900    5.4600 C.3       6 GLY6        0.0000 
     58 CA        -11.0500   71.3900    4.1100 C.3       6 GLY6        0.0000 
     59 CA        -12.9400   70.6000    6.7600 C.3       6 GLY6        0.0000 
     60 CA        -12.7200   71.2100    5.4100 C.3       6 GLY6        0.0000 
     61 CA        -12.4900   71.8100    4.0500 C.3       6 GLY6        0.0000 
     62 CA        -12.2700   72.4100    2.7000 C.3       6 GLY6        0.0000 
     63 CA        -14.6000   70.4200    8.0700 C.3       6 GLY6        0.0000 
     64 CA        -16.2700   70.2400    9.3700 C.3       6 GLY6        0.0000 
     65 CA        -21.8000   72.5000    7.8000 C.3       6 GLY6        0.0000 
     66 CA        -10.7000   72.7000    4.7400 C.3       6 GLY6        0.0000 
     67 CA        -10.4700   73.3000    3.3900 C.3       6 GLY6        0.0000 
     68 CA        -10.2500   73.9000    2.0300 C.3       6 GLY6        0.0000 
     69 CA        -12.3600   72.5200    6.0500 C.3       6 GLY6        0.0000 
     70 CA        -12.1400   73.1200    4.6900 C.3       6 GLY6        0.0000 
     71 CA        -11.9100   73.7200    3.3400 C.3       6 GLY6        0.0000 
     72 CA        -20.0100   73.4000    8.4900 C.3       6 GLY6        0.0000 
     73 CA        -10.1200   74.6100    4.0300 C.3       6 GLY6        0.0000 
     74 CA         -9.8900   75.2100    2.6700 C.3       6 GLY6        0.0000 
     75 CA        -11.7800   74.4300    5.3300 C.3       6 GLY6        0.0000 
     76 DU        -18.6100   72.1600    3.2000 H         7 CUB7        0.0000 
     77 DU        -13.9300   72.2200    4.0000 H         7 CUB7        0.0000 
     78 DU        -13.7100   72.8200    2.6400 H         7 CUB7        0.0000 
     79 DU        -15.3700   72.6400    3.9500 H         7 CUB7        0.0000 
     80 DU        -18.4800   72.8700    5.2000 H         7 CUB7        0.0000 
     81 DU        -20.1400   72.6900    6.5000 H         7 CUB7        0.0000 
     82 DU        -13.3500   74.1300    3.2800 H         7 CUB7        0.0000 
     83 DU        -19.7800   74.0000    7.1400 H         7 CUB7        0.0000 
     84 DU        -11.5600   75.0300    3.9700 H         7 CUB7        0.0000 
@<TRIPOS>BOND
@<TRIPOS>SUBSTRUCTURE
     1 SER1        1 GROUP   
     2 ALA2        6 GROUP   
     3 ASP3       18 GROUP   
     4 LYS4       24 GROUP   
     5 PHE5       30 GROUP   
     6 GLY6       55 GROUP   
     7 CUB7       76 GROUP   
@<TRIPOS>SET

