#    Name: 6o6y_1_ACK
#    Modification time : Fri May 22 19:35:53 2020

@<TRIPOS>MOLECULE
6o6y_1_ACK
   22    25     1     0     0
SMALL
NO_CHARGES


@<TRIPOS>ATOM
      1 O3P       -11.3580   74.0490    4.3080 O.co2     1 ACK501      0.0000 
      2 P         -12.1360   72.7960    3.9800 P.3       1 ACK501      0.0000 
      3 O1P       -13.0070   72.7020    2.7410 O.co2     1 ACK501      0.0000 
      4 O2'       -13.0050   72.3780    5.2670 O.3       1 ACK501      0.0000 
      5 O3'       -11.1060   71.5430    4.0810 O.3       1 ACK501      0.0000 
      6 C3'       -11.2030   70.8330    5.3160 C.3       1 ACK501      0.0000 
      7 C4'       -11.2300   69.3280    5.1230 C.3       1 ACK501      0.0000 
      8 O4'       -12.5800   68.8820    5.3760 O.3       1 ACK501      0.0000 
      9 C5'       -10.2500   68.5950    6.0310 C.3       1 ACK501      0.0000 
     10 O5'       -10.5620   68.8330    7.3970 O.3       1 ACK501      0.0000 
     11 C1'       -13.4390   70.0180    5.4970 C.3       1 ACK501      0.0000 
     12 N9        -14.4630   69.8590    6.5430 N.pl3     1 ACK501      0.0000 
     13 C8        -14.3100   69.2700    7.7380 C.2       1 ACK501      0.0000 
     14 N7        -15.4710   69.3210    8.4370 N.2       1 ACK501      0.0000 
     15 C5        -16.3580   69.9620    7.6800 C.ar      1 ACK501      0.0000 
     16 C6        -17.7620   70.3530    7.8370 C.ar      1 ACK501      0.0000 
     17 N6        -18.3940   70.0300    8.9880 N.pl3     1 ACK501      0.0000 
     18 N1        -18.3450   71.0170    6.8160 N.ar      1 ACK501      0.0000 
     19 C2        -17.6760   71.3200    5.6810 C.ar      1 ACK501      0.0000 
     20 N3        -16.3810   70.9830    5.4790 N.ar      1 ACK501      0.0000 
     21 C4        -15.6960   70.3200    6.4290 C.ar      1 ACK501      0.0000 
     22 C2'       -12.5630   71.1860    5.8860 C.3       1 ACK501      0.0000 
@<TRIPOS>BOND
     1    1    2 ar   
     2    2    3 ar   
     3    2    4 1    
     4    2    5 1    
     5    4   22 1    
     6    5    6 1    
     7    6    7 1    
     8    6   22 1    
     9    7    8 1    
    10    7    9 1    
    11    8   11 1    
    12    9   10 1    
    13   11   12 1    
    14   11   22 1    
    15   12   13 1    
    16   12   21 1    
    17   13   14 2    
    18   14   15 1    
    19   15   16 ar   
    20   15   21 ar   
    21   16   17 1    
    22   16   18 ar   
    23   18   19 ar   
    24   19   20 ar   
    25   20   21 ar   
@<TRIPOS>SUBSTRUCTURE
     1 ACK501      1 GROUP   
@<TRIPOS>SET

