#    Name: 6gsd_1_STR
#    Modification time : Fri May 22 19:29:37 2020

@<TRIPOS>MOLECULE
6gsd_1_STR
   23    26     1     0     0
SMALL
NO_CHARGES


@<TRIPOS>ATOM
      1 C1        -32.2870  -18.1920   14.9830 C.3       1 STR401      0.0000 
      2 C2        -32.4270  -16.8370   15.5290 C.3       1 STR401      0.0000 
      3 C3        -31.3030  -15.8440   14.8930 C.2       1 STR401      0.0000 
      4 O3        -30.8580  -14.9830   15.5290 O.2       1 STR401      0.0000 
      5 C4        -30.9040  -16.1860   13.4670 C.2       1 STR401      0.0000 
      6 C5        -31.2190  -17.1750   12.7420 C.2       1 STR401      0.0000 
      7 C6        -30.9080  -17.2450   11.2270 C.3       1 STR401      0.0000 
      8 C7        -31.7280  -18.2570   10.5940 C.3       1 STR401      0.0000 
      9 C8        -31.5820  -19.6050   11.3960 C.3       1 STR401      0.0000 
     10 C9        -31.4630  -19.3390   12.8800 C.3       1 STR401      0.0000 
     11 C10       -32.2350  -18.1620   13.2900 C.3       1 STR401      0.0000 
     12 C11       -31.7740  -20.7390   13.5510 C.3       1 STR401      0.0000 
     13 C12       -30.8960  -21.8250   13.0900 C.3       1 STR401      0.0000 
     14 C13       -30.6660  -21.8520   11.5560 C.3       1 STR401      0.0000 
     15 C14       -30.4200  -20.2490   11.1190 C.3       1 STR401      0.0000 
     16 C15       -29.9180  -20.4070    9.5390 C.3       1 STR401      0.0000 
     17 C16       -29.0310  -21.7320    9.8060 C.3       1 STR401      0.0000 
     18 C17       -29.4140  -22.5010   11.2470 C.3       1 STR401      0.0000 
     19 C18       -31.7820  -22.4160   10.8590 C.3       1 STR401      0.0000 
     20 C19       -33.5200  -18.1920   12.8990 C.3       1 STR401      0.0000 
     21 C20       -29.1910  -23.8990   11.1640 C.2       1 STR401      0.0000 
     22 O20       -30.2150  -24.6300   11.4360 O.2       1 STR401      0.0000 
     23 C21       -27.9060  -24.6160   10.9680 C.3       1 STR401      0.0000 
@<TRIPOS>BOND
     1    1    2 1    
     2    1   11 1    
     3    2    3 1    
     4    3    4 2    
     5    3    5 1    
     6    5    6 2    
     7    6    7 1    
     8    6   11 1    
     9    7    8 1    
    10    8    9 1    
    11    9   10 1    
    12    9   15 1    
    13   10   11 1    
    14   10   12 1    
    15   11   20 1    
    16   12   13 1    
    17   13   14 1    
    18   14   15 1    
    19   14   18 1    
    20   14   19 1    
    21   15   16 1    
    22   16   17 1    
    23   17   18 1    
    24   18   21 1    
    25   21   22 2    
    26   21   23 1    
@<TRIPOS>SUBSTRUCTURE
     1 STR401      1 GROUP   
@<TRIPOS>SET

