#    Name: 5num_1_Z80
#    Modification time : Fri May 22 19:13:43 2020

@<TRIPOS>MOLECULE
5num_1_Z80
   21    23     1     0     0
SMALL
NO_CHARGES


@<TRIPOS>ATOM
      1 C1         35.7680   45.5840  111.1540 C.ar      1 Z80201      0.0000 
      2 N1         35.2420   46.5710  111.9960 N.pl3     1 Z80201      0.0000 
      3 S1         36.2690   47.6050  109.3920 S.3       1 Z80201      0.0000 
      4 C2         36.2810   45.9320  109.9100 C.ar      1 Z80201      0.0000 
      5 N2         31.6010   44.5680  111.2030 N.4       1 Z80201      0.0000 
      6 C3         36.3990   48.4140  110.9500 C.ar      1 Z80201      0.0000 
      7 C4         35.8740   47.8160  112.0890 C.ar      1 Z80201      0.0000 
      8 C5         36.3020   43.2750  110.7290 C.ar      1 Z80201      0.0000 
      9 C6         36.8150   43.6230  109.4840 C.ar      1 Z80201      0.0000 
     10 C7         36.8040   44.9510  109.0750 C.ar      1 Z80201      0.0000 
     11 C8         37.0270   49.6510  111.0410 C.ar      1 Z80201      0.0000 
     12 C9         37.1290   50.2890  112.2710 C.ar      1 Z80201      0.0000 
     13 C10        36.6040   49.6910  113.4110 C.ar      1 Z80201      0.0000 
     14 C11        35.9760   48.4540  113.3200 C.ar      1 Z80201      0.0000 
     15 C12        33.8830   46.3860  112.5580 C.3       1 Z80201      0.0000 
     16 C13        32.8100   46.7040  111.5100 C.3       1 Z80201      0.0000 
     17 C14        32.5270   45.5240  110.5780 C.3       1 Z80201      0.0000 
     18 C15        30.2170   45.0210  111.0000 C.3       1 Z80201      0.0000 
     19 C16        31.7780   43.2430  110.5930 C.3       1 Z80201      0.0000 
     20 CL1        36.7340   50.4910  114.9510 Cl        1 Z80201      0.0000 
     21 C17        35.7790   44.2550  111.5630 C.ar      1 Z80201      0.0000 
@<TRIPOS>BOND
     1    1    2 1    
     2    1    4 ar   
     3    1   21 ar   
     4    2    7 1    
     5    2   15 1    
     6    3    4 1    
     7    3    6 1    
     8    4   10 ar   
     9    5   17 1    
    10    5   18 1    
    11    5   19 1    
    12    6    7 ar   
    13    6   11 ar   
    14    7   14 ar   
    15    8    9 ar   
    16    8   21 ar   
    17    9   10 ar   
    18   11   12 ar   
    19   12   13 ar   
    20   13   14 ar   
    21   13   20 1    
    22   15   16 1    
    23   16   17 1    
@<TRIPOS>SUBSTRUCTURE
     1 Z80201      1 GROUP   
@<TRIPOS>SET

