#    Name: 6sll_2_COA
#    Modification time : Fri May 22 19:26:08 2020

@<TRIPOS>MOLECULE
6sll_2_COA
   48    50     1     0     1
SMALL
NO_CHARGES


@<TRIPOS>ATOM
      1 N1A        89.2520  158.3040    1.8480 N.ar      1 COA201      0.0000 
      2 C2A        90.3160  159.0780    1.5900 C.ar      1 COA201      0.0000 
      3 N3A        91.6080  158.7850    1.7580 N.ar      1 COA201      0.0000 
      4 C4A        91.7940  157.5490    2.3000 C.ar      1 COA201      0.0000 
      5 C5A        90.7620  156.6600    2.5740 C.ar      1 COA201      0.0000 
      6 C6A        89.4270  157.0430    2.3340 C.ar      1 COA201      0.0000 
      7 N6A        88.3760  156.3190    2.5860 N.pl3     1 COA201      0.0000 
      8 N7A        91.3150  155.5330    3.1670 N.2       1 COA201      0.0000 
      9 C8A        92.6270  155.7110    3.1550 C.2       1 COA201      0.0000 
     10 N9A        92.9400  156.9090    2.6020 N.pl3     1 COA201      0.0000 
     11 C1B        94.2310  157.4050    2.3980 C.3       1 COA201      0.0000 
     12 C2B        94.8550  157.9740    3.6780 C.3       1 COA201      0.0000 
     13 O2B        94.4960  159.3010    3.8670 O.3       1 COA201      0.0000 
     14 C3B        96.3110  157.6450    3.4040 C.3       1 COA201      0.0000 
     15 O3B        96.7790  158.5930    2.3550 O.3       1 COA201      0.0000 
     16 P3B        97.7180  159.8630    2.7330 P.3       1 COA201      0.0000 
     17 O7A        99.0250  159.1040    3.0490 O.co2     1 COA201      0.0000 
     18 O8A        97.6260  160.7770    1.5010 O.co2     1 COA201      0.0000 
     19 O9A        97.4360  160.3180    4.2540 O.co2     1 COA201      0.0000 
     20 C4B        96.2360  156.3200    2.6950 C.3       1 COA201      0.0000 
     21 O4B        95.0220  156.2900    1.9860 O.3       1 COA201      0.0000 
     22 C5B        96.5020  155.1860    3.6880 C.3       1 COA201      0.0000 
     23 O5B        95.5720  155.2760    4.7940 O.3       1 COA201      0.0000 
     24 P1A        95.4790  154.1740    5.9370 P.3       1 COA201      0.0000 
     25 O1A        94.6690  154.7410    7.0320 O.co2     1 COA201      0.0000 
     26 O2A        96.8130  153.6040    6.2380 O.co2     1 COA201      0.0000 
     27 O3A        94.5990  153.0770    5.1490 O.3       1 COA201      0.0000 
     28 P2A        93.6450  151.9630    5.8230 P.3       1 COA201      0.0000 
     29 O4A        94.2920  151.3820    7.0200 O.co2     1 COA201      0.0000 
     30 O5A        92.2770  152.5430    5.9910 O.co2     1 COA201      0.0000 
     31 O6A        93.6400  150.8590    4.7240 O.3       1 COA201      0.0000 
     32 CBP        92.9790  149.9080    2.6120 C.3       1 COA201      0.0000 
     33 CCP        93.5430  151.1210    3.3040 C.3       1 COA201      0.0000 
     34 CDP        93.1220  150.1310    1.0770 C.3       1 COA201      0.0000 
     35 CEP        93.7460  148.7000    3.0150 C.3       1 COA201      0.0000 
     36 CAP        91.4810  149.8000    3.0500 C.3       1 COA201      0.0000 
     37 OAP        90.7730  150.9450    2.5040 O.3       1 COA201      0.0000 
     38 C9P        90.7670  148.5600    2.6370 C.2       1 COA201      0.0000 
     39 O9P        91.0360  147.4200    3.0550 O.2       1 COA201      0.0000 
     40 N8P        89.7710  148.7970    1.7420 N.am      1 COA201      0.0000 
     41 C7P        88.8980  147.8930    1.1730 C.3       1 COA201      0.0000 
     42 C6P        87.4650  148.5720    0.8660 C.3       1 COA201      0.0000 
     43 C5P        87.4560  149.3950   -0.3790 C.2       1 COA201      0.0000 
     44 O5P        88.3840  150.2630   -0.5430 O.2       1 COA201      0.0000 
     45 N4P        86.5270  149.3140   -1.1520 N.am      1 COA201      0.0000 
     46 C3P        86.4120  150.1500   -2.4200 C.3       1 COA201      0.0000 
     47 C2P        85.0840  149.5190   -3.3020 C.3       1 COA201      0.0000 
     48 S1P        83.6340  150.0990   -2.4750 S.3       1 COA201      0.0000 
@<TRIPOS>BOND
     1    1    2 ar   
     2    1    6 ar   
     3    2    3 ar   
     4    3    4 ar   
     5    4    5 ar   
     6    4   10 1    
     7    5    6 ar   
     8    5    8 1    
     9    6    7 1    
    10    8    9 2    
    11    9   10 1    
    12   10   11 1    
    13   11   12 1    
    14   11   21 1    
    15   12   13 1    
    16   12   14 1    
    17   14   15 1    
    18   14   20 1    
    19   15   16 1    
    20   16   17 ar   
    21   16   18 ar   
    22   16   19 ar   
    23   20   21 1    
    24   20   22 1    
    25   22   23 1    
    26   23   24 1    
    27   24   25 ar   
    28   24   26 ar   
    29   24   27 1    
    30   27   28 1    
    31   28   29 ar   
    32   28   30 ar   
    33   28   31 1    
    34   31   33 1    
    35   32   33 1    
    36   32   34 1    
    37   32   35 1    
    38   32   36 1    
    39   36   37 1    
    40   36   38 1    
    41   38   39 2    
    42   38   40 am   
    43   40   41 1    
    44   41   42 1    
    45   42   43 1    
    46   43   44 2    
    47   43   45 am   
    48   45   46 1    
    49   46   47 1    
    50   47   48 1    
@<TRIPOS>SUBSTRUCTURE
     1 COA201      1 GROUP   
@<TRIPOS>SET
ATOM$ORANGE STATIC     ATOMS   COLORGROUP SYSTEM 
42 2 2 4 4 5 5 6 6 9 9 11 11 12 12 14 14 20 \
20 22 22 32 32 33 33 34 34 35 35 36 36 38 38 41 41 42 \
42 43 43 46 46 47 47 

