#    Name: 6rvh_7_FAD
#    Modification time : Fri May 22 19:30:15 2020

@<TRIPOS>MOLECULE
6rvh_7_FAD
   53    58     1     0     1
SMALL
NO_CHARGES


@<TRIPOS>ATOM
      1 PA        117.3860  -64.1230   42.4040 P.3       1 FAD501      0.0000 
      2 O1A       117.2330  -63.0470   41.3010 O.co2     1 FAD501      0.0000 
      3 O2A       116.7520  -65.4860   42.1540 O.co2     1 FAD501      0.0000 
      4 O5B       116.7320  -63.5080   43.7590 O.3       1 FAD501      0.0000 
      5 C5B       117.3400  -62.7900   44.8320 C.3       1 FAD501      0.0000 
      6 C4B       116.2270  -62.3310   45.7890 C.3       1 FAD501      0.0000 
      7 O4B       116.9270  -61.4840   46.7240 O.3       1 FAD501      0.0000 
      8 C3B       114.9830  -61.5340   45.1990 C.3       1 FAD501      0.0000 
      9 O3B       113.5960  -62.1110   45.1310 O.3       1 FAD501      0.0000 
     10 C2B       115.0440  -60.1670   45.9410 C.3       1 FAD501      0.0000 
     11 O2B       113.7410  -59.7070   46.4170 O.3       1 FAD501      0.0000 
     12 C1B       116.1970  -60.2430   47.0080 C.3       1 FAD501      0.0000 
     13 N9A       116.9660  -58.8890   47.1440 N.pl3     1 FAD501      0.0000 
     14 C8A       117.3400  -58.0110   46.0940 C.2       1 FAD501      0.0000 
     15 N7A       117.9610  -56.8610   46.5260 N.2       1 FAD501      0.0000 
     16 C5A       117.9840  -56.9570   47.9060 C.ar      1 FAD501      0.0000 
     17 C6A       118.5070  -56.0570   48.9910 C.ar      1 FAD501      0.0000 
     18 N6A       119.0670  -54.9020   48.5630 N.pl3     1 FAD501      0.0000 
     19 N1A       118.3590  -56.5050   50.3180 N.ar      1 FAD501      0.0000 
     20 C2A       117.7520  -57.7320   50.6740 C.ar      1 FAD501      0.0000 
     21 N3A       117.2380  -58.6330   49.7430 N.ar      1 FAD501      0.0000 
     22 C4A       117.3250  -58.2860   48.3510 C.ar      1 FAD501      0.0000 
     23 N1        117.4010  -71.1760   35.0780 N.2       1 FAD501      0.0000 
     24 C2        117.8080  -72.3570   34.5280 C.2       1 FAD501      0.0000 
     25 O2        119.0140  -72.5980   34.7670 O.2       1 FAD501      0.0000 
     26 N3        116.9550  -73.1940   33.7920 N.am      1 FAD501      0.0000 
     27 C4        115.6290  -72.8990   33.5470 C.2       1 FAD501      0.0000 
     28 O4        114.8990  -73.7000   32.8670 O.2       1 FAD501      0.0000 
     29 C4X       115.1020  -71.5690   34.1220 C.2       1 FAD501      0.0000 
     30 N5        113.7950  -71.1190   33.9560 N.2       1 FAD501      0.0000 
     31 C5X       113.4050  -69.9190   34.5020 C.ar      1 FAD501      0.0000 
     32 C6        112.0700  -69.4960   34.3420 C.ar      1 FAD501      0.0000 
     33 C7        111.5690  -68.2690   34.8750 C.ar      1 FAD501      0.0000 
     34 C7M       110.0870  -67.9600   34.6290 C.3       1 FAD501      0.0000 
     35 C8        112.5540  -67.4000   35.6480 C.ar      1 FAD501      0.0000 
     36 C8M       112.1630  -66.0800   36.2500 C.3       1 FAD501      0.0000 
     37 C9        113.8820  -67.8060   35.7960 C.ar      1 FAD501      0.0000 
     38 C9A       114.3630  -69.0110   35.2690 C.ar      1 FAD501      0.0000 
     39 N10       115.7370  -69.4210   35.4860 N.pl3     1 FAD501      0.0000 
     40 C10       116.1100  -70.7080   34.9160 C.2       1 FAD501      0.0000 
     41 C1'       116.7730  -68.5770   36.2160 C.3       1 FAD501      0.0000 
     42 C2'       116.8890  -68.5490   37.7590 C.3       1 FAD501      0.0000 
     43 O2'       115.7500  -67.9220   38.3750 O.3       1 FAD501      0.0000 
     44 C3'       117.9720  -67.6600   38.3460 C.3       1 FAD501      0.0000 
     45 O3'       119.0120  -67.5840   37.4010 O.3       1 FAD501      0.0000 
     46 C4'       118.3290  -68.2100   39.7380 C.3       1 FAD501      0.0000 
     47 O4'       117.1460  -68.3140   40.5400 O.3       1 FAD501      0.0000 
     48 C5'       119.3750  -67.3590   40.4780 C.3       1 FAD501      0.0000 
     49 O5'       118.9720  -66.8320   41.7640 O.3       1 FAD501      0.0000 
     50 P         119.8410  -65.8710   42.7170 P.3       1 FAD501      0.0000 
     51 O1P       120.0190  -66.5180   44.0890 O.co2     1 FAD501      0.0000 
     52 O2P       121.0400  -65.2420   42.0350 O.co2     1 FAD501      0.0000 
     53 O3P       118.8950  -64.5350   42.9120 O.3       1 FAD501      0.0000 
@<TRIPOS>BOND
     1    1    2 ar   
     2    1    3 ar   
     3    1    4 1    
     4    1   53 1    
     5    4    5 1    
     6    5    6 1    
     7    6    7 1    
     8    6    8 1    
     9    7   12 1    
    10    8    9 1    
    11    8   10 1    
    12   10   11 1    
    13   10   12 1    
    14   12   13 1    
    15   13   14 1    
    16   13   22 1    
    17   14   15 2    
    18   15   16 1    
    19   16   17 ar   
    20   16   22 ar   
    21   17   18 1    
    22   17   19 ar   
    23   19   20 ar   
    24   20   21 ar   
    25   21   22 ar   
    26   23   24 1    
    27   23   40 2    
    28   24   25 2    
    29   24   26 am   
    30   26   27 am   
    31   27   28 2    
    32   27   29 1    
    33   29   30 2    
    34   29   40 1    
    35   30   31 1    
    36   31   32 ar   
    37   31   38 ar   
    38   32   33 ar   
    39   33   34 1    
    40   33   35 ar   
    41   35   36 1    
    42   35   37 ar   
    43   37   38 ar   
    44   38   39 1    
    45   39   40 1    
    46   39   41 1    
    47   41   42 1    
    48   42   43 1    
    49   42   44 1    
    50   44   45 1    
    51   44   46 1    
    52   46   47 1    
    53   46   48 1    
    54   48   49 1    
    55   49   50 1    
    56   50   51 ar   
    57   50   52 ar   
    58   50   53 1    
@<TRIPOS>SUBSTRUCTURE
     1 FAD501      1 GROUP   
@<TRIPOS>SET
ATOM$ORANGE STATIC     ATOMS   COLORGROUP SYSTEM 
54 5 5 6 6 8 8 10 10 12 12 14 14 16 16 17 17 20 \
20 22 22 24 24 27 27 29 29 31 31 32 32 33 33 34 34 35 \
35 36 36 37 37 38 38 40 40 41 41 42 42 44 44 46 46 48 \
48 

