#    Name: 6rvh_6_FAD
#    Modification time : Fri May 22 19:30:08 2020

@<TRIPOS>MOLECULE
6rvh_6_FAD
   53    58     1     0     1
SMALL
NO_CHARGES


@<TRIPOS>ATOM
      1 PA        113.5070   -4.5230   26.6530 P.3       1 FAD502      0.0000 
      2 O1A       114.1560   -4.0190   28.0070 O.co2     1 FAD502      0.0000 
      3 O2A       113.0340   -6.0110   26.6670 O.co2     1 FAD502      0.0000 
      4 O5B       114.6140   -4.4140   25.3970 O.3       1 FAD502      0.0000 
      5 C5B       114.9710   -3.3120   24.5150 C.3       1 FAD502      0.0000 
      6 C4B       116.1910   -3.6920   23.6770 C.3       1 FAD502      0.0000 
      7 O4B       116.3600   -2.5040   22.8890 O.3       1 FAD502      0.0000 
      8 C3B       117.4800   -4.0460   24.5290 C.3       1 FAD502      0.0000 
      9 O3B       118.0560   -5.4370   24.5280 O.3       1 FAD502      0.0000 
     10 C2B       118.4530   -2.9160   24.1580 C.3       1 FAD502      0.0000 
     11 O2B       119.7980   -3.4300   23.9200 O.3       1 FAD502      0.0000 
     12 C1B       117.7460   -2.1180   22.9860 C.3       1 FAD502      0.0000 
     13 N9A       118.1760   -0.6500   23.0030 N.pl3     1 FAD502      0.0000 
     14 C8A       118.3990    0.0410   24.1740 C.2       1 FAD502      0.0000 
     15 N7A       118.8940    1.3090   23.9290 N.2       1 FAD502      0.0000 
     16 C5A       119.0370    1.4710   22.5560 C.ar      1 FAD502      0.0000 
     17 C6A       119.5320    2.6080   21.6580 C.ar      1 FAD502      0.0000 
     18 N6A       119.9370    3.7720   22.2970 N.pl3     1 FAD502      0.0000 
     19 N1A       119.5090    2.3620   20.2610 N.ar      1 FAD502      0.0000 
     20 C2A       119.0630    1.1450   19.7000 C.ar      1 FAD502      0.0000 
     21 N3A       118.6010    0.0780   20.4610 N.ar      1 FAD502      0.0000 
     22 C4A       118.5670    0.1610   21.9030 C.ar      1 FAD502      0.0000 
     23 N1        107.4970  -10.1820   32.4120 N.2       1 FAD502      0.0000 
     24 C2        106.2990  -10.8180   32.7110 C.2       1 FAD502      0.0000 
     25 O2        105.2530  -10.1400   32.3700 O.2       1 FAD502      0.0000 
     26 N3        106.2570  -12.1110   33.3350 N.am      1 FAD502      0.0000 
     27 C4        107.3600  -12.8880   33.7040 C.2       1 FAD502      0.0000 
     28 O4        107.2940  -14.0410   34.2580 O.2       1 FAD502      0.0000 
     29 C4X       108.7020  -12.2320   33.3930 C.2       1 FAD502      0.0000 
     30 N5        109.8820  -12.8510   33.6860 N.2       1 FAD502      0.0000 
     31 C5X       111.0840  -12.2400   33.4270 C.ar      1 FAD502      0.0000 
     32 C6        112.2770  -12.9200   33.7410 C.ar      1 FAD502      0.0000 
     33 C7        113.5280  -12.3420   33.4570 C.ar      1 FAD502      0.0000 
     34 C7M       114.7930  -13.1080   33.8200 C.3       1 FAD502      0.0000 
     35 C8        113.6000  -10.9490   32.8190 C.ar      1 FAD502      0.0000 
     36 C8M       114.9020  -10.2210   32.4830 C.3       1 FAD502      0.0000 
     37 C9        112.4080  -10.2710   32.5390 C.ar      1 FAD502      0.0000 
     38 C9A       111.1600  -10.8550   32.8090 C.ar      1 FAD502      0.0000 
     39 N10       109.9680  -10.1390   32.4510 N.pl3     1 FAD502      0.0000 
     40 C10       108.7080  -10.8150   32.7400 C.2       1 FAD502      0.0000 
     41 C1'       110.0050   -8.7400   31.8530 C.3       1 FAD502      0.0000 
     42 C2'       110.2140   -8.4510   30.3530 C.3       1 FAD502      0.0000 
     43 O2'       111.5540   -8.7640   29.9330 O.3       1 FAD502      0.0000 
     44 C3'       110.0020   -6.9780   29.9080 C.3       1 FAD502      0.0000 
     45 O3'       109.0420   -6.2010   30.7060 O.3       1 FAD502      0.0000 
     46 C4'       109.7370   -6.9590   28.3420 C.3       1 FAD502      0.0000 
     47 O4'       110.6350   -7.8990   27.6080 O.3       1 FAD502      0.0000 
     48 C5'       109.6000   -5.5060   27.6960 C.3       1 FAD502      0.0000 
     49 O5'       110.4390   -5.1530   26.5350 O.3       1 FAD502      0.0000 
     50 P         110.6960   -3.7060   25.7740 P.3       1 FAD502      0.0000 
     51 O1P       110.5310   -3.9570   24.2360 O.co2     1 FAD502      0.0000 
     52 O2P       110.0890   -2.4520   26.4680 O.co2     1 FAD502      0.0000 
     53 O3P       112.3010   -3.5110   26.0500 O.3       1 FAD502      0.0000 
@<TRIPOS>BOND
     1    1    2 ar   
     2    1    3 ar   
     3    1    4 1    
     4    1   53 1    
     5    4    5 1    
     6    5    6 1    
     7    6    7 1    
     8    6    8 1    
     9    7   12 1    
    10    8    9 1    
    11    8   10 1    
    12   10   11 1    
    13   10   12 1    
    14   12   13 1    
    15   13   14 1    
    16   13   22 1    
    17   14   15 2    
    18   15   16 1    
    19   16   17 ar   
    20   16   22 ar   
    21   17   18 1    
    22   17   19 ar   
    23   19   20 ar   
    24   20   21 ar   
    25   21   22 ar   
    26   23   24 1    
    27   23   40 2    
    28   24   25 2    
    29   24   26 am   
    30   26   27 am   
    31   27   28 2    
    32   27   29 1    
    33   29   30 2    
    34   29   40 1    
    35   30   31 1    
    36   31   32 ar   
    37   31   38 ar   
    38   32   33 ar   
    39   33   34 1    
    40   33   35 ar   
    41   35   36 1    
    42   35   37 ar   
    43   37   38 ar   
    44   38   39 1    
    45   39   40 1    
    46   39   41 1    
    47   41   42 1    
    48   42   43 1    
    49   42   44 1    
    50   44   45 1    
    51   44   46 1    
    52   46   47 1    
    53   46   48 1    
    54   48   49 1    
    55   49   50 1    
    56   50   51 ar   
    57   50   52 ar   
    58   50   53 1    
@<TRIPOS>SUBSTRUCTURE
     1 FAD502      1 GROUP   
@<TRIPOS>SET
ATOM$ORANGE STATIC     ATOMS   COLORGROUP SYSTEM 
54 5 5 6 6 8 8 10 10 12 12 14 14 16 16 17 17 20 \
20 22 22 24 24 27 27 29 29 31 31 32 32 33 33 34 34 35 \
35 36 36 37 37 38 38 40 40 41 41 42 42 44 44 46 46 48 \
48 

