#    Name: 6rvh_5_FAD
#    Modification time : Fri May 22 19:30:01 2020

@<TRIPOS>MOLECULE
6rvh_5_FAD
   53    58     1     0     1
SMALL
NO_CHARGES


@<TRIPOS>ATOM
      1 PA         69.7740  -32.8980   46.3030 P.3       1 FAD501      0.0000 
      2 O1A        69.0530  -33.3880   44.9780 O.co2     1 FAD501      0.0000 
      3 O2A        71.3320  -32.9490   46.4000 O.co2     1 FAD501      0.0000 
      4 O5B        69.0940  -33.8760   47.4570 O.3       1 FAD501      0.0000 
      5 C5B        67.9260  -33.6760   48.3090 C.3       1 FAD501      0.0000 
      6 C4B        67.7610  -34.9580   49.1630 C.3       1 FAD501      0.0000 
      7 O4B        66.6190  -34.7470   50.0210 O.3       1 FAD501      0.0000 
      8 C3B        67.5700  -36.2660   48.3260 C.3       1 FAD501      0.0000 
      9 O3B        68.6000  -37.3210   48.3730 O.3       1 FAD501      0.0000 
     10 C2B        66.1530  -36.7350   48.7050 C.3       1 FAD501      0.0000 
     11 O2B        66.0440  -38.1690   48.9070 O.3       1 FAD501      0.0000 
     12 C1B        65.6770  -35.8350   49.8980 C.3       1 FAD501      0.0000 
     13 N9A        64.1380  -35.5760   49.8110 N.pl3     1 FAD501      0.0000 
     14 C8A        63.3760  -35.4550   48.6170 C.2       1 FAD501      0.0000 
     15 N7A        62.0080  -35.3220   48.8200 N.2       1 FAD501      0.0000 
     16 C5A        61.8550  -35.3760   50.2040 C.ar      1 FAD501      0.0000 
     17 C6A        60.6640  -35.3100   51.1280 C.ar      1 FAD501      0.0000 
     18 N6A        59.4380  -35.1170   50.5010 N.pl3     1 FAD501      0.0000 
     19 N1A        60.9180  -35.4330   52.5180 N.ar      1 FAD501      0.0000 
     20 C2A        62.1700  -35.5940   53.1010 C.ar      1 FAD501      0.0000 
     21 N3A        63.2940  -35.6310   52.3340 N.ar      1 FAD501      0.0000 
     22 C4A        63.2250  -35.5520   50.8940 C.ar      1 FAD501      0.0000 
     23 N1         77.4630  -29.6440   40.6320 N.2       1 FAD501      0.0000 
     24 C2         78.5020  -28.8320   40.3660 C.2       1 FAD501      0.0000 
     25 O2         78.2690  -27.6600   40.7010 O.2       1 FAD501      0.0000 
     26 N3         79.6740  -29.2650   39.7740 N.am      1 FAD501      0.0000 
     27 C4         79.9240  -30.5620   39.3970 C.2       1 FAD501      0.0000 
     28 O4         81.0130  -30.9320   38.8430 O.2       1 FAD501      0.0000 
     29 C4X        78.7960  -31.5480   39.6790 C.2       1 FAD501      0.0000 
     30 N5         78.8790  -32.8990   39.3790 N.2       1 FAD501      0.0000 
     31 C5X        77.8290  -33.7300   39.6390 C.ar      1 FAD501      0.0000 
     32 C6         77.9320  -35.0740   39.3360 C.ar      1 FAD501      0.0000 
     33 C7         76.8840  -35.9640   39.6020 C.ar      1 FAD501      0.0000 
     34 C7M        77.0630  -37.4080   39.2300 C.3       1 FAD501      0.0000 
     35 C8         75.6150  -35.4910   40.2190 C.ar      1 FAD501      0.0000 
     36 C8M        74.4590  -36.3940   40.5230 C.3       1 FAD501      0.0000 
     37 C9         75.4940  -34.1440   40.5210 C.ar      1 FAD501      0.0000 
     38 C9A        76.5460  -33.2340   40.2730 C.ar      1 FAD501      0.0000 
     39 N10        76.4120  -31.8410   40.6440 N.pl3     1 FAD501      0.0000 
     40 C10        77.5260  -30.9790   40.3320 C.2       1 FAD501      0.0000 
     41 C1'        75.1360  -31.2650   41.2080 C.3       1 FAD501      0.0000 
     42 C2'        74.7010  -31.3840   42.6710 C.3       1 FAD501      0.0000 
     43 O2'        74.5540  -32.7510   43.0520 O.3       1 FAD501      0.0000 
     44 C3'        73.3940  -30.6540   43.0630 C.3       1 FAD501      0.0000 
     45 O3'        73.0680  -29.5320   42.2160 O.3       1 FAD501      0.0000 
     46 C4'        73.4870  -30.3460   44.5980 C.3       1 FAD501      0.0000 
     47 O4'        73.8160  -31.5560   45.4030 O.3       1 FAD501      0.0000 
     48 C5'        72.2400  -29.6260   45.2000 C.3       1 FAD501      0.0000 
     49 O5'        71.6110  -30.3790   46.2800 O.3       1 FAD501      0.0000 
     50 P          70.2750  -29.9810   47.0550 P.3       1 FAD501      0.0000 
     51 O1P        70.5810  -29.8300   48.5330 O.co2     1 FAD501      0.0000 
     52 O2P        69.4600  -28.8460   46.4590 O.co2     1 FAD501      0.0000 
     53 O3P        69.4010  -31.3590   46.8870 O.3       1 FAD501      0.0000 
@<TRIPOS>BOND
     1    1    2 ar   
     2    1    3 ar   
     3    1    4 1    
     4    1   53 1    
     5    4    5 1    
     6    5    6 1    
     7    6    7 1    
     8    6    8 1    
     9    7   12 1    
    10    8    9 1    
    11    8   10 1    
    12   10   11 1    
    13   10   12 1    
    14   12   13 1    
    15   13   14 1    
    16   13   22 1    
    17   14   15 2    
    18   15   16 1    
    19   16   17 ar   
    20   16   22 ar   
    21   17   18 1    
    22   17   19 ar   
    23   19   20 ar   
    24   20   21 ar   
    25   21   22 ar   
    26   23   24 1    
    27   23   40 2    
    28   24   25 2    
    29   24   26 am   
    30   26   27 am   
    31   27   28 2    
    32   27   29 1    
    33   29   30 2    
    34   29   40 1    
    35   30   31 1    
    36   31   32 ar   
    37   31   38 ar   
    38   32   33 ar   
    39   33   34 1    
    40   33   35 ar   
    41   35   36 1    
    42   35   37 ar   
    43   37   38 ar   
    44   38   39 1    
    45   39   40 1    
    46   39   41 1    
    47   41   42 1    
    48   42   43 1    
    49   42   44 1    
    50   44   45 1    
    51   44   46 1    
    52   46   47 1    
    53   46   48 1    
    54   48   49 1    
    55   49   50 1    
    56   50   51 ar   
    57   50   52 ar   
    58   50   53 1    
@<TRIPOS>SUBSTRUCTURE
     1 FAD501      1 GROUP   
@<TRIPOS>SET
ATOM$ORANGE STATIC     ATOMS   COLORGROUP SYSTEM 
54 5 5 6 6 8 8 10 10 12 12 14 14 16 16 17 17 20 \
20 22 22 24 24 27 27 29 29 31 31 32 32 33 33 34 34 35 \
35 36 36 37 37 38 38 40 40 41 41 42 42 44 44 46 46 48 \
48 

