#    Name: 6rvh_8_FAD
#    Modification time : Fri May 22 19:30:21 2020

@<TRIPOS>MOLECULE
6rvh_8_FAD
   53    58     1     0     1
SMALL
NO_CHARGES


@<TRIPOS>ATOM
      1 PA         32.0360  -49.9130   12.6280 P.3       1 FAD501      0.0000 
      2 O1A        31.7280  -48.9590   13.8070 O.co2     1 FAD501      0.0000 
      3 O2A        33.2340  -50.8390   12.8430 O.co2     1 FAD501      0.0000 
      4 O5B        32.3210  -49.0700   11.2160 O.3       1 FAD501      0.0000 
      5 C5B        31.4370  -48.5680   10.1680 C.3       1 FAD501      0.0000 
      6 C4B        32.2280  -47.7370    9.1340 C.3       1 FAD501      0.0000 
      7 O4B        31.2230  -47.3160    8.1900 O.3       1 FAD501      0.0000 
      8 C3B        32.9930  -46.5010    9.7430 C.3       1 FAD501      0.0000 
      9 O3B        34.4760  -46.4760    9.7390 O.3       1 FAD501      0.0000 
     10 C2B        32.3040  -45.2710    9.0940 C.3       1 FAD501      0.0000 
     11 O2B        33.2580  -44.2040    8.7110 O.3       1 FAD501      0.0000 
     12 C1B        31.2980  -45.8780    8.0030 C.3       1 FAD501      0.0000 
     13 N9A        30.0390  -44.9980    7.8830 N.pl3     1 FAD501      0.0000 
     14 C8A        29.4270  -44.3370    8.9630 C.2       1 FAD501      0.0000 
     15 N7A        28.3870  -43.5510    8.5340 N.2       1 FAD501      0.0000 
     16 C5A        28.3290  -43.6540    7.1390 C.ar      1 FAD501      0.0000 
     17 C6A        27.4400  -43.0230    6.0740 C.ar      1 FAD501      0.0000 
     18 N6A        26.4840  -42.1630    6.5800 N.pl3     1 FAD501      0.0000 
     19 N1A        27.7020  -43.3620    4.7230 N.ar      1 FAD501      0.0000 
     20 C2A        28.7380  -44.2670    4.3860 C.ar      1 FAD501      0.0000 
     21 N3A        29.6050  -44.9110    5.2930 N.ar      1 FAD501      0.0000 
     22 C4A        29.4420  -44.6160    6.6760 C.ar      1 FAD501      0.0000 
     23 N1         35.1810  -56.2320   19.8140 N.2       1 FAD501      0.0000 
     24 C2         35.3070  -57.5140   20.3320 C.2       1 FAD501      0.0000 
     25 O2         34.2980  -58.3540   20.1440 O.2       1 FAD501      0.0000 
     26 N3         36.5160  -57.8310   21.0240 N.am      1 FAD501      0.0000 
     27 C4         37.6250  -56.9900   21.2240 C.2       1 FAD501      0.0000 
     28 O4         38.7220  -57.2950   21.8280 O.2       1 FAD501      0.0000 
     29 C4X        37.4740  -55.6070   20.6650 C.2       1 FAD501      0.0000 
     30 N5         38.4730  -54.6870   20.8160 N.2       1 FAD501      0.0000 
     31 C5X        38.3070  -53.4180   20.2840 C.ar      1 FAD501      0.0000 
     32 C6         39.3320  -52.4540   20.3940 C.ar      1 FAD501      0.0000 
     33 C7         39.2440  -51.1440   19.8810 C.ar      1 FAD501      0.0000 
     34 C7M        40.4110  -50.1940   20.0840 C.3       1 FAD501      0.0000 
     35 C8         37.9900  -50.7260   19.1810 C.ar      1 FAD501      0.0000 
     36 C8M        37.7780  -49.3420   18.5790 C.3       1 FAD501      0.0000 
     37 C9         36.9720  -51.6770   19.0720 C.ar      1 FAD501      0.0000 
     38 C9A        37.0330  -53.0050   19.5680 C.ar      1 FAD501      0.0000 
     39 N10        35.9310  -53.9600   19.3760 N.pl3     1 FAD501      0.0000 
     40 C10        36.1600  -55.2700   19.9440 C.2       1 FAD501      0.0000 
     41 C1'        34.5990  -53.6340   18.6990 C.3       1 FAD501      0.0000 
     42 C2'        34.4530  -53.5200   17.1690 C.3       1 FAD501      0.0000 
     43 O2'        35.0940  -52.3590   16.6100 O.3       1 FAD501      0.0000 
     44 C3'        33.0450  -53.2940   16.6310 C.3       1 FAD501      0.0000 
     45 O3'        32.0830  -53.7440   17.5730 O.3       1 FAD501      0.0000 
     46 C4'        32.8560  -53.8910   15.1900 C.3       1 FAD501      0.0000 
     47 O4'        33.9360  -53.5300   14.2680 O.3       1 FAD501      0.0000 
     48 C5'        31.4890  -53.5690   14.5050 C.3       1 FAD501      0.0000 
     49 O5'        31.5290  -52.8190   13.2540 O.3       1 FAD501      0.0000 
     50 P          30.2940  -52.3380   12.3180 P.3       1 FAD501      0.0000 
     51 O1P        30.4390  -52.8830   10.8960 O.co2     1 FAD501      0.0000 
     52 O2P        28.8760  -52.3230   12.8620 O.co2     1 FAD501      0.0000 
     53 O3P        30.7010  -50.7710   12.1820 O.3       1 FAD501      0.0000 
@<TRIPOS>BOND
     1    1    2 ar   
     2    1    3 ar   
     3    1    4 1    
     4    1   53 1    
     5    4    5 1    
     6    5    6 1    
     7    6    7 1    
     8    6    8 1    
     9    7   12 1    
    10    8    9 1    
    11    8   10 1    
    12   10   11 1    
    13   10   12 1    
    14   12   13 1    
    15   13   14 1    
    16   13   22 1    
    17   14   15 2    
    18   15   16 1    
    19   16   17 ar   
    20   16   22 ar   
    21   17   18 1    
    22   17   19 ar   
    23   19   20 ar   
    24   20   21 ar   
    25   21   22 ar   
    26   23   24 1    
    27   23   40 2    
    28   24   25 2    
    29   24   26 am   
    30   26   27 am   
    31   27   28 2    
    32   27   29 1    
    33   29   30 2    
    34   29   40 1    
    35   30   31 1    
    36   31   32 ar   
    37   31   38 ar   
    38   32   33 ar   
    39   33   34 1    
    40   33   35 ar   
    41   35   36 1    
    42   35   37 ar   
    43   37   38 ar   
    44   38   39 1    
    45   39   40 1    
    46   39   41 1    
    47   41   42 1    
    48   42   43 1    
    49   42   44 1    
    50   44   45 1    
    51   44   46 1    
    52   46   47 1    
    53   46   48 1    
    54   48   49 1    
    55   49   50 1    
    56   50   51 ar   
    57   50   52 ar   
    58   50   53 1    
@<TRIPOS>SUBSTRUCTURE
     1 FAD501      1 GROUP   
@<TRIPOS>SET
ATOM$ORANGE STATIC     ATOMS   COLORGROUP SYSTEM 
54 5 5 6 6 8 8 10 10 12 12 14 14 16 16 17 17 20 \
20 22 22 24 24 27 27 29 29 31 31 32 32 33 33 34 34 35 \
35 36 36 37 37 38 38 40 40 41 41 42 42 44 44 46 46 48 \
48 

