#    Name: 6bb0_2_NAD
#    Modification time : Fri May 22 19:25:06 2020

@<TRIPOS>MOLECULE
6bb0_2_NAD
   44    48     1     0     1
SMALL
NO_CHARGES


@<TRIPOS>ATOM
      1 PA         43.9660   -7.5450   20.1120 P.3       1 NAD801      0.0000 
      2 O1A        45.4130   -7.7100   19.7780 O.co2     1 NAD801      0.0000 
      3 O2A        43.4600   -6.1520   19.8710 O.co2     1 NAD801      0.0000 
      4 O5B        43.7370   -7.8790   21.6210 O.3       1 NAD801      0.0000 
      5 C5B        44.1440   -9.0430   22.2450 C.3       1 NAD801      0.0000 
      6 C4B        44.3690   -8.8990   23.6780 C.3       1 NAD801      0.0000 
      7 O4B        44.7110  -10.1300   24.2560 O.3       1 NAD801      0.0000 
      8 C3B        45.4990   -7.9480   23.9570 C.3       1 NAD801      0.0000 
      9 O3B        45.0520   -6.8980   24.7690 O.3       1 NAD801      0.0000 
     10 C2B        46.4650   -8.7250   24.6190 C.3       1 NAD801      0.0000 
     11 O2B        47.2120   -8.0290   25.5700 O.3       1 NAD801      0.0000 
     12 C1B        45.6010   -9.7640   25.2600 C.3       1 NAD801      0.0000 
     13 N9A        46.3260  -10.8890   25.7950 N.pl3     1 NAD801      0.0000 
     14 C8A        47.3560  -11.5280   25.2030 C.2       1 NAD801      0.0000 
     15 N7A        47.7800  -12.5070   26.0000 N.2       1 NAD801      0.0000 
     16 C5A        47.0290  -12.4950   27.1120 C.ar      1 NAD801      0.0000 
     17 C6A        47.0060  -13.2510   28.2790 C.ar      1 NAD801      0.0000 
     18 N6A        47.9470  -14.3420   28.4460 N.pl3     1 NAD801      0.0000 
     19 N1A        46.1010  -13.0030   29.2430 N.ar      1 NAD801      0.0000 
     20 C2A        45.2050  -11.9930   29.0790 C.ar      1 NAD801      0.0000 
     21 N3A        45.1990  -11.2370   27.9710 N.ar      1 NAD801      0.0000 
     22 C4A        46.1060  -11.4520   26.9900 C.ar      1 NAD801      0.0000 
     23 O3         43.2310   -8.7220   19.2850 O.3       1 NAD801      0.0000 
     24 PN         41.6690   -8.6660   18.8540 P.3       1 NAD801      0.0000 
     25 O1N        40.8490   -8.1980   20.0510 O.co2     1 NAD801      0.0000 
     26 O2N        41.4330   -7.9140   17.5970 O.co2     1 NAD801      0.0000 
     27 O5D        41.3120  -10.1780   18.5630 O.3       1 NAD801      0.0000 
     28 C5D        41.5370  -11.1410   19.5240 C.3       1 NAD801      0.0000 
     29 C4D        41.2100  -12.4710   19.1790 C.3       1 NAD801      0.0000 
     30 O4D        39.7930  -12.4850   18.7770 O.3       1 NAD801      0.0000 
     31 C3D        42.0250  -12.9320   18.0160 C.3       1 NAD801      0.0000 
     32 O3D        42.3260  -14.2690   18.2350 O.3       1 NAD801      0.0000 
     33 C2D        41.1180  -12.7620   16.8670 C.3       1 NAD801      0.0000 
     34 O2D        41.4160  -13.6020   15.8610 O.3       1 NAD801      0.0000 
     35 C1D        39.8190  -13.1240   17.5380 C.3       1 NAD801      0.0000 
     36 N1N        38.5760  -13.0370   16.7750 N.pl3     1 NAD801      0.0000 
     37 C2N        37.5630  -13.9480   16.5180 C.ar      1 NAD801      0.0000 
     38 C3N        36.2830  -13.5690   15.9180 C.ar      1 NAD801      0.0000 
     39 C7N        35.2540  -14.6510   15.8590 C.2       1 NAD801      0.0000 
     40 O7N        34.3080  -14.6030   15.0520 O.2       1 NAD801      0.0000 
     41 N7N        35.3850  -15.7750   16.7310 N.am      1 NAD801      0.0000 
     42 C4N        36.1090  -12.2200   15.3170 C.ar      1 NAD801      0.0000 
     43 C5N        37.2260  -11.2590   15.6020 C.ar      1 NAD801      0.0000 
     44 C6N        38.4950  -11.7070   16.2540 C.ar      1 NAD801      0.0000 
@<TRIPOS>BOND
     1    1    2 ar   
     2    1    3 ar   
     3    1    4 1    
     4    1   23 1    
     5    4    5 1    
     6    5    6 1    
     7    6    7 1    
     8    6    8 1    
     9    7   12 1    
    10    8    9 1    
    11    8   10 1    
    12   10   11 1    
    13   10   12 1    
    14   12   13 1    
    15   13   14 1    
    16   13   22 1    
    17   14   15 2    
    18   15   16 1    
    19   16   17 ar   
    20   16   22 ar   
    21   17   18 1    
    22   17   19 ar   
    23   19   20 ar   
    24   20   21 ar   
    25   21   22 ar   
    26   23   24 1    
    27   24   25 ar   
    28   24   26 ar   
    29   24   27 1    
    30   27   28 1    
    31   28   29 1    
    32   29   30 1    
    33   29   31 1    
    34   30   35 1    
    35   31   32 1    
    36   31   33 1    
    37   33   34 1    
    38   33   35 1    
    39   35   36 1    
    40   36   37 ar   
    41   36   44 ar   
    42   37   38 ar   
    43   38   39 1    
    44   38   42 ar   
    45   39   40 2    
    46   39   41 am   
    47   42   43 ar   
    48   43   44 ar   
@<TRIPOS>SUBSTRUCTURE
     1 NAD801      1 GROUP   
@<TRIPOS>SET
ATOM$ORANGE STATIC     ATOMS   COLORGROUP SYSTEM 
42 5 5 6 6 8 8 10 10 12 12 14 14 16 16 17 17 20 \
20 22 22 28 28 29 29 31 31 33 33 35 35 37 37 38 38 39 \
39 42 42 43 43 44 44 

