#    Name: 6hno_1_NAD_CAVITY_N1_4
#    Modification time : Fri May 22 19:25:22 2020

@<TRIPOS>MOLECULE
6hno_1_NAD_CAVITY_N1_4
   87     0     6     0     0
SMALL
NO_CHARGES


@<TRIPOS>ATOM
      1 OG        -13.2700  -36.6300  -13.6900 O.3       1 SER1        0.0000 
      2 OG        -14.2700  -32.4000  -14.8300 O.3       1 SER1        0.0000 
      3 OG        -14.4000  -33.1400  -13.5300 O.3       1 SER1        0.0000 
      4 OG        -12.1500  -34.9600  -14.3500 O.3       1 SER1        0.0000 
      5 OG        -12.2800  -35.7000  -13.0500 O.3       1 SER1        0.0000 
      6 OG        -10.9100  -35.1200  -16.0600 O.3       1 SER1        0.0000 
      7 OG         -9.7800  -36.0300  -16.4700 O.3       1 SER1        0.0000 
      8 OG        -13.0300  -29.9800  -16.8000 O.3       1 SER1        0.0000 
      9 OG        -13.1600  -30.7200  -15.5000 O.3       1 SER1        0.0000 
     10 OG        -13.2800  -31.4600  -14.2000 O.3       1 SER1        0.0000 
     11 OG        -13.4100  -32.2000  -12.9000 O.3       1 SER1        0.0000 
     12 OG         -9.9200  -34.1900  -15.4300 O.3       1 SER1        0.0000 
     13 OG        -10.0500  -34.9300  -14.1300 O.3       1 SER1        0.0000 
     14 OG        -10.1700  -35.6700  -12.8300 O.3       1 SER1        0.0000 
     15 OG        -10.3000  -36.4100  -11.5300 O.3       1 SER1        0.0000 
     16 OG         -8.8000  -35.1000  -15.8400 O.3       1 SER1        0.0000 
     17 O         -15.3900  -34.0800  -14.1700 O.2       2 ALA2        0.0000 
     18 N         -13.5300  -35.5300  -11.3500 N.am      2 ALA2        0.0000 
     19 N         -11.7700  -32.7300  -18.2500 N.am      2 ALA2        0.0000 
     20 N         -12.4100  -36.4400  -11.7600 N.am      2 ALA2        0.0000 
     21 N         -10.7800  -34.3800  -17.3600 N.am      2 ALA2        0.0000 
     22 O          -9.6600  -35.2900  -17.7700 O.2       2 ALA2        0.0000 
     23 N         -13.5400  -32.9500  -11.6100 N.am      2 ALA2        0.0000 
     24 N         -12.4200  -33.8500  -12.0100 N.am      2 ALA2        0.0000 
     25 N         -10.6600  -31.0500  -18.9100 N.am      2 ALA2        0.0000 
     26 N         -10.7800  -31.8000  -17.6100 N.am      2 ALA2        0.0000 
     27 N         -11.4200  -35.5000  -11.1300 N.am      2 ALA2        0.0000 
     28 N          -9.6600  -32.7000  -18.0200 N.am      2 ALA2        0.0000 
     29 N          -9.7900  -33.4500  -16.7200 N.am      2 ALA2        0.0000 
     30 O         -12.0400  -29.0400  -16.1600 O.2       2 ALA2        0.0000 
     31 O          -9.8000  -30.8600  -16.9800 O.2       2 ALA2        0.0000 
     32 N         -10.4300  -34.5700  -10.4900 N.am      2 ALA2        0.0000 
     33 N          -8.5500  -31.0300  -18.6900 N.am      2 ALA2        0.0000 
     34 N          -8.6800  -31.7700  -17.3900 N.am      2 ALA2        0.0000 
     35 N          -8.8000  -32.5100  -16.0900 N.am      2 ALA2        0.0000 
     36 N          -9.1800  -34.7300  -12.2000 N.am      2 ALA2        0.0000 
     37 N          -9.3100  -35.4800  -10.9000 N.am      2 ALA2        0.0000 
     38 N          -7.6800  -33.4200  -16.5000 N.am      2 ALA2        0.0000 
     39 N          -7.9400  -34.9000  -13.9100 N.am      2 ALA2        0.0000 
     40 N          -8.9400  -30.6700  -15.0500 N.am      2 ALA2        0.0000 
     41 N          -7.8100  -31.5700  -15.4600 N.am      2 ALA2        0.0000 
     42 OD1       -12.6400  -30.3400  -20.4300 O.co2     3 ASP3        0.0000 
     43 OD1       -12.7700  -28.5000  -19.3900 O.co2     3 ASP3        0.0000 
     44 OD1       -12.9000  -29.2400  -18.0900 O.co2     3 ASP3        0.0000 
     45 OD1       -11.6500  -29.4100  -19.8000 O.co2     3 ASP3        0.0000 
     46 OD1        -7.8100  -34.1600  -15.2000 O.co2     3 ASP3        0.0000 
     47 CZ        -14.3900  -35.7200  -13.2800 C.ar      4 PHE5        0.0000 
     48 CZ        -14.5200  -36.4700  -11.9800 C.ar      4 PHE5        0.0000 
     49 CZ        -14.5300  -33.8800  -12.2400 C.ar      4 PHE5        0.0000 
     50 CA        -14.1400  -34.2400  -15.8700 C.3       5 GLY6        0.0000 
     51 CA        -12.8900  -34.4100  -17.5800 C.3       5 GLY6        0.0000 
     52 CA        -13.0200  -35.1500  -16.2800 C.3       5 GLY6        0.0000 
     53 CA        -13.1400  -35.8900  -14.9800 C.3       5 GLY6        0.0000 
     54 CA        -13.8900  -30.1700  -18.7300 C.3       5 GLY6        0.0000 
     55 CA        -12.7700  -31.0800  -19.1300 C.3       5 GLY6        0.0000 
     56 CA        -12.8900  -31.8200  -17.8400 C.3       5 GLY6        0.0000 
     57 CA        -13.0200  -32.5600  -16.5400 C.3       5 GLY6        0.0000 
     58 CA        -13.1500  -33.3100  -15.2400 C.3       5 GLY6        0.0000 
     59 CA        -11.9000  -33.4700  -16.9500 C.3       5 GLY6        0.0000 
     60 CA        -11.9100  -30.8900  -17.2100 C.3       5 GLY6        0.0000 
     61 CA        -12.0300  -31.6300  -15.9100 C.3       5 GLY6        0.0000 
     62 CA        -12.1600  -32.3700  -14.6100 C.3       5 GLY6        0.0000 
     63 CA        -12.2900  -33.1100  -13.3100 C.3       5 GLY6        0.0000 
     64 CA        -11.1700  -34.0200  -13.7200 C.3       5 GLY6        0.0000 
     65 CA         -8.6700  -34.3500  -17.1300 C.3       5 GLY6        0.0000 
     66 CA        -11.0500  -30.6900  -15.2800 C.3       5 GLY6        0.0000 
     67 CA        -11.4300  -32.9200  -11.3800 C.3       5 GLY6        0.0000 
     68 CA         -9.9200  -31.6000  -15.6800 C.3       5 GLY6        0.0000 
     69 CA        -10.0500  -32.3400  -14.3900 C.3       5 GLY6        0.0000 
     70 CA        -10.1800  -33.0800  -13.0900 C.3       5 GLY6        0.0000 
     71 CA        -10.3100  -33.8300  -11.7900 C.3       5 GLY6        0.0000 
     72 CA         -9.0600  -33.9900  -13.5000 C.3       5 GLY6        0.0000 
     73 CA         -9.3200  -32.8900  -11.1600 C.3       5 GLY6        0.0000 
     74 CA         -7.9400  -32.3200  -14.1600 C.3       5 GLY6        0.0000 
     75 CA         -8.0700  -33.0600  -12.8700 C.3       5 GLY6        0.0000 
     76 CA         -8.2000  -33.8000  -11.5700 C.3       5 GLY6        0.0000 
     77 CA         -6.8200  -33.2200  -14.5700 C.3       5 GLY6        0.0000 
     78 CA         -6.9500  -33.9600  -13.2800 C.3       5 GLY6        0.0000 
     79 DU        -14.2600  -34.9800  -14.5700 H         6 CUB7        0.0000 
     80 DU        -13.2800  -34.0500  -13.9400 H         6 CUB7        0.0000 
     81 DU        -13.4000  -34.7900  -12.6500 H         6 CUB7        0.0000 
     82 DU        -12.0300  -34.2100  -15.6500 H         6 CUB7        0.0000 
     83 DU        -11.7800  -30.1500  -18.5000 H         6 CUB7        0.0000 
     84 DU        -10.9100  -32.5400  -16.3200 H         6 CUB7        0.0000 
     85 DU        -11.0400  -33.2800  -15.0200 H         6 CUB7        0.0000 
     86 DU        -11.2900  -34.7600  -12.4200 H         6 CUB7        0.0000 
     87 DU         -8.9300  -33.2500  -14.8000 H         6 CUB7        0.0000 
@<TRIPOS>BOND
@<TRIPOS>SUBSTRUCTURE
     1 SER1        1 GROUP   
     2 ALA2       17 GROUP   
     3 ASP3       42 GROUP   
     4 PHE5       47 GROUP   
     5 GLY6       50 GROUP   
     6 CUB7       79 GROUP   
@<TRIPOS>SET

