#    Name: 6hno_1_NAD
#    Modification time : Fri May 22 19:25:19 2020

@<TRIPOS>MOLECULE
6hno_1_NAD
   44    48     1     0     1
SMALL
NO_CHARGES


@<TRIPOS>ATOM
      1 PA        -12.9370  -29.9510  -18.6410 P.3       1 NAD301      0.0000 
      2 O1A       -13.4010  -30.8080  -19.7570 O.co2     1 NAD301      0.0000 
      3 O2A       -14.0590  -29.1210  -17.9450 O.co2     1 NAD301      0.0000 
      4 O5B       -11.7590  -28.9920  -19.1140 O.3       1 NAD301      0.0000 
      5 C5B       -10.5950  -29.5520  -19.7600 C.3       1 NAD301      0.0000 
      6 C4B        -9.9860  -28.5230  -20.6790 C.3       1 NAD301      0.0000 
      7 O4B        -8.8820  -29.1260  -21.3940 O.3       1 NAD301      0.0000 
      8 C3B       -10.9380  -27.9560  -21.7420 C.3       1 NAD301      0.0000 
      9 O3B       -10.8350  -26.5330  -21.8270 O.3       1 NAD301      0.0000 
     10 C2B       -10.5040  -28.6900  -23.0190 C.3       1 NAD301      0.0000 
     11 O2B       -10.7080  -28.0070  -24.2550 O.3       1 NAD301      0.0000 
     12 C1B        -9.0140  -28.8330  -22.7680 C.3       1 NAD301      0.0000 
     13 N9A        -8.3960  -29.8920  -23.5470 N.pl3     1 NAD301      0.0000 
     14 C8A        -8.8940  -31.1360  -23.8440 C.2       1 NAD301      0.0000 
     15 N7A        -8.1550  -31.8220  -24.6820 N.2       1 NAD301      0.0000 
     16 C5A        -7.0880  -30.9750  -24.9480 C.ar      1 NAD301      0.0000 
     17 C6A        -5.9540  -31.1060  -25.7680 C.ar      1 NAD301      0.0000 
     18 N6A        -5.7190  -32.1680  -26.5440 N.pl3     1 NAD301      0.0000 
     19 N1A        -5.0700  -30.0790  -25.7890 N.ar      1 NAD301      0.0000 
     20 C2A        -5.3210  -29.0040  -25.0390 C.ar      1 NAD301      0.0000 
     21 N3A        -6.3660  -28.7640  -24.2370 N.ar      1 NAD301      0.0000 
     22 C4A        -7.2200  -29.7890  -24.2430 C.ar      1 NAD301      0.0000 
     23 O3        -12.2600  -30.9190  -17.5640 O.3       1 NAD301      0.0000 
     24 PN        -11.8950  -30.8170  -16.0080 P.3       1 NAD301      0.0000 
     25 O1N       -12.9240  -31.5480  -15.2200 O.co2     1 NAD301      0.0000 
     26 O2N       -11.6580  -29.3990  -15.6920 O.co2     1 NAD301      0.0000 
     27 O5D       -10.5510  -31.6850  -15.9900 O.3       1 NAD301      0.0000 
     28 C5D        -9.2540  -31.0680  -16.0000 C.3       1 NAD301      0.0000 
     29 C4D        -8.2320  -32.0930  -15.5730 C.3       1 NAD301      0.0000 
     30 O4D        -8.5120  -32.5250  -14.2240 O.3       1 NAD301      0.0000 
     31 C3D        -8.1490  -33.3800  -16.4180 C.3       1 NAD301      0.0000 
     32 O3D        -6.7970  -33.8460  -16.4810 O.3       1 NAD301      0.0000 
     33 C2D        -8.9970  -34.3590  -15.6040 C.3       1 NAD301      0.0000 
     34 O2D        -8.7210  -35.7360  -15.8850 O.3       1 NAD301      0.0000 
     35 C1D        -8.5720  -33.9320  -14.2020 C.3       1 NAD301      0.0000 
     36 N1N        -9.5130  -34.3660  -13.0730 N.pl3     1 NAD301      0.0000 
     37 C2N       -10.7660  -33.8720  -13.0590 C.ar      1 NAD301      0.0000 
     38 C3N       -11.6530  -34.2680  -12.0780 C.ar      1 NAD301      0.0000 
     39 C7N       -13.0280  -33.6920  -11.9050 C.2       1 NAD301      0.0000 
     40 O7N       -13.7520  -34.1340  -11.0110 O.2       1 NAD301      0.0000 
     41 N7N       -13.4210  -32.7030  -12.7420 N.am      1 NAD301      0.0000 
     42 C4N       -11.2330  -35.2040  -11.1380 C.ar      1 NAD301      0.0000 
     43 C5N        -9.9390  -35.6870  -11.1720 C.ar      1 NAD301      0.0000 
     44 C6N        -9.0810  -35.2470  -12.1480 C.ar      1 NAD301      0.0000 
@<TRIPOS>BOND
     1    1    2 ar   
     2    1    3 ar   
     3    1    4 1    
     4    1   23 1    
     5    4    5 1    
     6    5    6 1    
     7    6    7 1    
     8    6    8 1    
     9    7   12 1    
    10    8    9 1    
    11    8   10 1    
    12   10   11 1    
    13   10   12 1    
    14   12   13 1    
    15   13   14 1    
    16   13   22 1    
    17   14   15 2    
    18   15   16 1    
    19   16   17 ar   
    20   16   22 ar   
    21   17   18 1    
    22   17   19 ar   
    23   19   20 ar   
    24   20   21 ar   
    25   21   22 ar   
    26   23   24 1    
    27   24   25 ar   
    28   24   26 ar   
    29   24   27 1    
    30   27   28 1    
    31   28   29 1    
    32   29   30 1    
    33   29   31 1    
    34   30   35 1    
    35   31   32 1    
    36   31   33 1    
    37   33   34 1    
    38   33   35 1    
    39   35   36 1    
    40   36   37 ar   
    41   36   44 ar   
    42   37   38 ar   
    43   38   39 1    
    44   38   42 ar   
    45   39   40 2    
    46   39   41 am   
    47   42   43 ar   
    48   43   44 ar   
@<TRIPOS>SUBSTRUCTURE
     1 NAD301      1 GROUP   
@<TRIPOS>SET
ATOM$ORANGE STATIC     ATOMS   COLORGROUP SYSTEM 
42 5 5 6 6 8 8 10 10 12 12 14 14 16 16 17 17 20 \
20 22 22 28 28 29 29 31 31 33 33 35 35 37 37 38 38 39 \
39 42 42 43 43 44 44 

