#    Name: 6k37_1_NAD
#    Modification time : Fri May 22 19:27:37 2020

@<TRIPOS>MOLECULE
6k37_1_NAD
   44    48     1     0     1
SMALL
NO_CHARGES


@<TRIPOS>ATOM
      1 PA         16.2390  -22.5370  -11.7020 P.3       1 NAD401      0.0000 
      2 O1A        16.7490  -22.4690  -13.1040 O.co2     1 NAD401      0.0000 
      3 O2A        17.0680  -21.8480  -10.6700 O.co2     1 NAD401      0.0000 
      4 O5B        16.0400  -24.0740  -11.2700 O.3       1 NAD401      0.0000 
      5 C5B        15.3790  -25.0250  -12.1400 C.3       1 NAD401      0.0000 
      6 C4B        15.5010  -26.3940  -11.5200 C.3       1 NAD401      0.0000 
      7 O4B        14.6590  -27.3650  -12.2010 O.3       1 NAD401      0.0000 
      8 C3B        16.9090  -27.0220  -11.5360 C.3       1 NAD401      0.0000 
      9 O3B        17.2740  -27.4180  -10.2220 O.3       1 NAD401      0.0000 
     10 C2B        16.7250  -28.2860  -12.3830 C.3       1 NAD401      0.0000 
     11 O2B        17.6020  -29.3360  -12.0490 O.3       1 NAD401      0.0000 
     12 C1B        15.3000  -28.5960  -11.9570 C.3       1 NAD401      0.0000 
     13 N9A        14.6590  -29.7370  -12.6100 N.pl3     1 NAD401      0.0000 
     14 C8A        14.1220  -30.8250  -11.9590 C.2       1 NAD401      0.0000 
     15 N7A        13.6200  -31.7400  -12.7510 N.2       1 NAD401      0.0000 
     16 C5A        13.8600  -31.2260  -14.0120 C.ar      1 NAD401      0.0000 
     17 C6A        13.5730  -31.7330  -15.2870 C.ar      1 NAD401      0.0000 
     18 N6A        12.9800  -32.9040  -15.4890 N.pl3     1 NAD401      0.0000 
     19 N1A        13.9550  -30.9860  -16.3500 N.ar      1 NAD401      0.0000 
     20 C2A        14.5680  -29.8130  -16.1280 C.ar      1 NAD401      0.0000 
     21 N3A        14.8810  -29.2310  -14.9740 N.ar      1 NAD401      0.0000 
     22 C4A        14.5020  -29.9990  -13.9430 C.ar      1 NAD401      0.0000 
     23 O3         14.7260  -21.9880  -11.6790 O.3       1 NAD401      0.0000 
     24 PN         13.9620  -20.9810  -10.6800 P.3       1 NAD401      0.0000 
     25 O1N        14.6640  -19.6630  -10.6660 O.co2     1 NAD401      0.0000 
     26 O2N        13.7950  -21.7290   -9.3990 O.co2     1 NAD401      0.0000 
     27 O5D        12.5510  -20.7950  -11.4080 O.3       1 NAD401      0.0000 
     28 C5D        11.5250  -21.8000  -11.2600 C.3       1 NAD401      0.0000 
     29 C4D        10.2950  -21.3210  -11.9900 C.3       1 NAD401      0.0000 
     30 O4D         9.5210  -20.4440  -11.1320 O.3       1 NAD401      0.0000 
     31 C3D        10.5570  -20.5360  -13.2880 C.3       1 NAD401      0.0000 
     32 O3D         9.7400  -21.0580  -14.3300 O.3       1 NAD401      0.0000 
     33 C2D        10.1840  -19.0940  -12.9150 C.3       1 NAD401      0.0000 
     34 O2D         9.6850  -18.2940  -13.9790 O.3       1 NAD401      0.0000 
     35 C1D         9.0870  -19.3210  -11.8790 C.3       1 NAD401      0.0000 
     36 N1N         8.9090  -18.1690  -10.9550 N.pl3     1 NAD401      0.0000 
     37 C2N         7.6520  -17.7960  -10.5620 C.ar      1 NAD401      0.0000 
     38 C3N         7.4750  -16.7180   -9.7220 C.ar      1 NAD401      0.0000 
     39 C7N         6.1050  -16.3050   -9.2540 C.2       1 NAD401      0.0000 
     40 O7N         6.0110  -15.3180   -8.5290 O.2       1 NAD401      0.0000 
     41 N7N         5.0540  -17.0160   -9.6490 N.am      1 NAD401      0.0000 
     42 C4N         8.5890  -16.0010   -9.3060 C.ar      1 NAD401      0.0000 
     43 C5N         9.8440  -16.4270   -9.6530 C.ar      1 NAD401      0.0000 
     44 C6N         9.9830  -17.5200  -10.4690 C.ar      1 NAD401      0.0000 
@<TRIPOS>BOND
     1    1    2 ar   
     2    1    3 ar   
     3    1    4 1    
     4    1   23 1    
     5    4    5 1    
     6    5    6 1    
     7    6    7 1    
     8    6    8 1    
     9    7   12 1    
    10    8    9 1    
    11    8   10 1    
    12   10   11 1    
    13   10   12 1    
    14   12   13 1    
    15   13   14 1    
    16   13   22 1    
    17   14   15 2    
    18   15   16 1    
    19   16   17 ar   
    20   16   22 ar   
    21   17   18 1    
    22   17   19 ar   
    23   19   20 ar   
    24   20   21 ar   
    25   21   22 ar   
    26   23   24 1    
    27   24   25 ar   
    28   24   26 ar   
    29   24   27 1    
    30   27   28 1    
    31   28   29 1    
    32   29   30 1    
    33   29   31 1    
    34   30   35 1    
    35   31   32 1    
    36   31   33 1    
    37   33   34 1    
    38   33   35 1    
    39   35   36 1    
    40   36   37 ar   
    41   36   44 ar   
    42   37   38 ar   
    43   38   39 1    
    44   38   42 ar   
    45   39   40 2    
    46   39   41 am   
    47   42   43 ar   
    48   43   44 ar   
@<TRIPOS>SUBSTRUCTURE
     1 NAD401      1 GROUP   
@<TRIPOS>SET
ATOM$ORANGE STATIC     ATOMS   COLORGROUP SYSTEM 
42 5 5 6 6 8 8 10 10 12 12 14 14 16 16 17 17 20 \
20 22 22 28 28 29 29 31 31 33 33 35 35 37 37 38 38 39 \
39 42 42 43 43 44 44 

