#    Name: 6v2t_4_FOL_CAVITY_N1_4
#    Modification time : Fri May 22 19:27:38 2020

@<TRIPOS>MOLECULE
6v2t_4_FOL_CAVITY_N1_4
   68     0     6     0     0
SMALL
NO_CHARGES


@<TRIPOS>ATOM
      1 OG         25.5200   82.2100   -6.8100 O.3       1 SER1        0.0000 
      2 N          19.8000   79.9500   -7.4900 N.am      2 ALA2        0.0000 
      3 N          19.9900   81.4300   -7.3400 N.am      2 ALA2        0.0000 
      4 N          19.0600   81.4200   -6.1500 N.am      2 ALA2        0.0000 
      5 N          23.9300   81.2200   -9.9700 N.am      2 ALA2        0.0000 
      6 N          23.0000   81.2100   -8.7900 N.am      2 ALA2        0.0000 
      7 N          22.0800   81.2000   -7.6000 N.am      2 ALA2        0.0000 
      8 N          21.1500   81.1900   -6.4200 N.am      2 ALA2        0.0000 
      9 O          24.1700   80.9700   -7.8700 O.2       2 ALA2        0.0000 
     10 O          23.2400   80.9600   -6.6900 O.2       2 ALA2        0.0000 
     11 O          27.1900   80.7500   -9.3200 O.2       2 ALA2        0.0000 
     12 O          26.2600   80.7400   -8.1400 O.2       2 ALA2        0.0000 
     13 N          19.2400   82.9000   -6.0000 N.am      2 ALA2        0.0000 
     14 N          24.1100   82.7000   -9.8100 N.am      2 ALA2        0.0000 
     15 N          23.1900   82.6900   -8.6300 N.am      2 ALA2        0.0000 
     16 N          22.2600   82.6800   -7.4500 N.am      2 ALA2        0.0000 
     17 N          21.3400   82.6700   -6.2700 N.am      2 ALA2        0.0000 
     18 N          20.3500   84.3900   -7.0200 N.am      2 ALA2        0.0000 
     19 N          22.4400   84.1600   -7.2900 N.am      2 ALA2        0.0000 
     20 N          21.5200   84.1500   -6.1100 N.am      2 ALA2        0.0000 
     21 N          21.4600   85.8800   -8.0500 N.am      2 ALA2        0.0000 
     22 N          20.5400   85.8700   -6.8700 N.am      2 ALA2        0.0000 
     23 N          22.6300   85.6400   -7.1400 N.am      2 ALA2        0.0000 
     24 N          21.6500   87.3600   -7.8900 N.am      2 ALA2        0.0000 
     25 N          20.9600   87.1100   -4.6200 N.am      2 ALA2        0.0000 
     26 O          23.0000   88.6000   -6.8300 O.2       2 ALA2        0.0000 
     27 N          24.1600   88.3600   -5.9100 N.am      2 ALA2        0.0000 
     28 N          23.2400   88.3500   -4.7300 N.am      2 ALA2        0.0000 
     29 O          22.3100   88.3500   -3.5500 O.2       2 ALA2        0.0000 
     30 O          23.1800   90.0900   -6.6700 O.2       2 ALA2        0.0000 
     31 N          23.4200   89.8400   -4.5800 N.am      2 ALA2        0.0000 
     32 NZ         21.7000   85.6300   -5.9600 N.4       3 LYS4        0.0000 
     33 NZ         20.7800   85.6200   -4.7800 N.4       3 LYS4        0.0000 
     34 NZ         22.1300   86.8600   -3.7100 N.4       3 LYS4        0.0000 
     35 CZ         24.6700   79.7500  -11.3000 C.ar      4 PHE5        0.0000 
     36 CZ         21.8900   79.7200   -7.7600 C.ar      4 PHE5        0.0000 
     37 CZ         23.0600   79.4800   -6.8500 C.ar      4 PHE5        0.0000 
     38 CZ         22.1400   79.4700   -5.6700 C.ar      4 PHE5        0.0000 
     39 CZ         26.0200   80.9900  -10.2400 C.ar      4 PHE5        0.0000 
     40 CZ         25.0900   80.9800   -9.0500 C.ar      4 PHE5        0.0000 
     41 CA         21.6500   79.9700   -9.8500 C.3       5 GLY6        0.0000 
     42 CA         20.7300   79.9600   -8.6700 C.3       5 GLY6        0.0000 
     43 CA         27.1300   82.4800  -11.2600 C.3       5 GLY6        0.0000 
     44 CA         26.2000   82.4700  -10.0800 C.3       5 GLY6        0.0000 
     45 CA         25.2800   82.4600   -8.9000 C.3       5 GLY6        0.0000 
     46 CA         24.3500   82.4500   -7.7200 C.3       5 GLY6        0.0000 
     47 CA         23.4300   82.4400   -6.5400 C.3       5 GLY6        0.0000 
     48 CA         27.3700   82.2300   -9.1700 C.3       5 GLY6        0.0000 
     49 CA         26.4400   82.2200   -7.9900 C.3       5 GLY6        0.0000 
     50 CA         24.5900   82.2000   -5.6300 C.3       5 GLY6        0.0000 
     51 CA         23.3700   84.1700   -8.4700 C.3       5 GLY6        0.0000 
     52 CA         24.5400   83.9300   -7.5600 C.3       5 GLY6        0.0000 
     53 CA         23.6100   83.9200   -6.3800 C.3       5 GLY6        0.0000 
     54 CA         22.6900   83.9100   -5.2000 C.3       5 GLY6        0.0000 
     55 CA         23.7900   85.4000   -6.2300 C.3       5 GLY6        0.0000 
     56 CA         22.8700   85.3900   -5.0500 C.3       5 GLY6        0.0000 
     57 CA         20.7200   87.3600   -6.7100 C.3       5 GLY6        0.0000 
     58 CA         19.8000   87.3500   -5.5300 C.3       5 GLY6        0.0000 
     59 CA         22.8100   87.1200   -6.9800 C.3       5 GLY6        0.0000 
     60 CA         21.8900   87.1100   -5.8000 C.3       5 GLY6        0.0000 
     61 CA         23.9800   86.8800   -6.0700 C.3       5 GLY6        0.0000 
     62 CA         23.0500   86.8700   -4.8900 C.3       5 GLY6        0.0000 
     63 CA         22.0700   88.6000   -5.6500 C.3       5 GLY6        0.0000 
     64 CA         21.1500   88.5900   -4.4600 C.3       5 GLY6        0.0000 
     65 CA         22.2500   90.0800   -5.4900 C.3       5 GLY6        0.0000 
     66 DU         20.9700   79.7100   -6.5800 H         6 CUB7        0.0000 
     67 DU         20.2300   81.1800   -5.2400 H         6 CUB7        0.0000 
     68 DU         26.9400   81.0000  -11.4200 H         6 CUB7        0.0000 
@<TRIPOS>BOND
@<TRIPOS>SUBSTRUCTURE
     1 SER1        1 GROUP   
     2 ALA2        2 GROUP   
     3 LYS4       32 GROUP   
     4 PHE5       35 GROUP   
     5 GLY6       41 GROUP   
     6 CUB7       66 GROUP   
@<TRIPOS>SET

