#    Name: 6v2t_2_FOL
#    Modification time : Fri May 22 19:27:31 2020

@<TRIPOS>MOLECULE
6v2t_2_FOL
   23    25     1     0     0
SMALL
NO_CHARGES


@<TRIPOS>ATOM
      1 N1         13.6690   21.1590    6.2340 N.pl3     1 FOL302      0.0000 
      2 C2         14.7350   20.3510    6.4800 C.2       1 FOL302      0.0000 
      3 NA2        14.6310   19.3590    7.4020 N.pl3     1 FOL302      0.0000 
      4 N3         15.8810   20.4790    5.7890 N.2       1 FOL302      0.0000 
      5 C4         16.0420   21.4610    4.8630 C.2       1 FOL302      0.0000 
      6 O4         17.1530   21.5590    4.2750 O.2       1 FOL302      0.0000 
      7 C4A        14.9630   22.3220    4.5950 C.ar      1 FOL302      0.0000 
      8 N5         15.0940   23.3530    3.7230 N.ar      1 FOL302      0.0000 
      9 C6         14.1140   24.4600    3.6610 C.ar      1 FOL302      0.0000 
     10 C7         12.7240   23.8420    3.8830 C.ar      1 FOL302      0.0000 
     11 N8         12.7040   22.9640    5.0790 N.ar      1 FOL302      0.0000 
     12 C8A        13.7720   22.1550    5.3220 C.ar      1 FOL302      0.0000 
     13 C9         14.5340   25.6570    4.5580 C.3       1 FOL302      0.0000 
     14 N10        13.3660   26.3790    5.1180 N.pl3     1 FOL302      0.0000 
     15 C11        13.2820   28.4100    8.8100 C.ar      1 FOL302      0.0000 
     16 C12        12.1380   28.2970    8.0300 C.ar      1 FOL302      0.0000 
     17 C13        12.2150   27.6200    6.8030 C.ar      1 FOL302      0.0000 
     18 C14        13.3900   27.0390    6.3320 C.ar      1 FOL302      0.0000 
     19 C15        14.5390   27.1510    7.1270 C.ar      1 FOL302      0.0000 
     20 C16        14.4760   27.8370    8.3420 C.ar      1 FOL302      0.0000 
     21 C          13.2280   29.1100   10.1530 C.2       1 FOL302      0.0000 
     22 O          14.2670   29.2400   10.7840 O.2       1 FOL302      0.0000 
     23 N          12.0460   29.5110   10.6650 N.am      1 FOL302      0.0000 
@<TRIPOS>BOND
     1    1    2 1    
     2    1   12 1    
     3    2    3 1    
     4    2    4 2    
     5    4    5 1    
     6    5    6 2    
     7    5    7 1    
     8    7    8 ar   
     9    7   12 ar   
    10    8    9 ar   
    11    9   10 ar   
    12    9   13 1    
    13   10   11 ar   
    14   11   12 ar   
    15   13   14 1    
    16   14   18 1    
    17   15   16 ar   
    18   15   20 ar   
    19   15   21 1    
    20   16   17 ar   
    21   17   18 ar   
    22   18   19 ar   
    23   19   20 ar   
    24   21   22 2    
    25   21   23 am   
@<TRIPOS>SUBSTRUCTURE
     1 FOL302      1 GROUP   
@<TRIPOS>SET

