#    Name: 6v2t_3_0FX
#    Modification time : Fri May 22 19:27:34 2020

@<TRIPOS>MOLECULE
6v2t_3_0FX
   35    37     1     0     0
SMALL
NO_CHARGES


@<TRIPOS>ATOM
      1 O4P        16.1930   76.2470   -5.4250 O.co2     1 0FX301      0.0000 
      2 P2         16.0520   76.3400   -6.9460 P.3       1 0FX301      0.0000 
      3 O3P        14.9310   77.2350   -7.3710 O.co2     1 0FX301      0.0000 
      4 O1G        17.4020   77.0290   -7.3560 O.3       1 0FX301      0.0000 
      5 C1G        17.3420   78.2260   -8.1280 C.3       1 0FX301      0.0000 
      6 C2G        18.3870   78.0450   -9.2110 C.3       1 0FX301      0.0000 
      7 O2G        18.1440   76.9200  -10.0760 O.3       1 0FX301      0.0000 
      8 C3G        19.7160   77.8400   -8.5040 C.3       1 0FX301      0.0000 
      9 O3G        20.7200   77.7810   -9.5280 O.3       1 0FX301      0.0000 
     10 C4G        19.9860   78.9500   -7.4690 C.3       1 0FX301      0.0000 
     11 N4A        21.1290   78.5600   -6.6380 N.4       1 0FX301      0.0000 
     12 C5G        18.8300   79.2430   -6.5200 C.3       1 0FX301      0.0000 
     13 C6G        19.1080   80.5130   -5.6900 C.3       1 0FX301      0.0000 
     14 O5G        17.6320   79.3710   -7.2910 O.3       1 0FX301      0.0000 
     15 OPP        15.6870   75.0010   -7.9240 O.3       1 0FX301      0.0000 
     16 P          16.9000   74.0270   -8.1170 P.3       1 0FX301      0.0000 
     17 O1P        18.1090   74.5220   -8.7600 O.co2     1 0FX301      0.0000 
     18 O2P        16.4120   72.9210   -9.0140 O.co2     1 0FX301      0.0000 
     19 O5         17.2650   73.2120   -6.8160 O.3       1 0FX301      0.0000 
     20 C5         16.2680   72.7670   -5.9350 C.3       1 0FX301      0.0000 
     21 C4         16.8830   71.6360   -5.1010 C.3       1 0FX301      0.0000 
     22 O4         17.1340   70.4710   -5.8890 O.3       1 0FX301      0.0000 
     23 C3         18.2700   71.9580   -4.5180 C.3       1 0FX301      0.0000 
     24 O3         18.1910   72.7530   -3.3430 O.3       1 0FX301      0.0000 
     25 C2         18.9300   70.5730   -4.3050 C.3       1 0FX301      0.0000 
     26 C1         18.2390   69.7630   -5.4370 C.3       1 0FX301      0.0000 
     27 N11        19.1660   69.5750   -6.5440 N.am      1 0FX301      0.0000 
     28 C61        19.1290   70.3410   -7.6570 C.2       1 0FX301      0.0000 
     29 C51        20.0330   70.0870   -8.6870 C.2       1 0FX301      0.0000 
     30 C5A        20.0140   70.9490   -9.9450 C.3       1 0FX301      0.0000 
     31 C21        20.0490   68.5760   -6.4200 C.2       1 0FX301      0.0000 
     32 O21        20.0510   67.8360   -5.2830 O.2       1 0FX301      0.0000 
     33 N31        20.9550   68.3060   -7.3910 N.am      1 0FX301      0.0000 
     34 C41        20.9580   69.0480   -8.5300 C.2       1 0FX301      0.0000 
     35 O41        21.9120   68.7920   -9.4730 O.2       1 0FX301      0.0000 
@<TRIPOS>BOND
     1    1    2 ar   
     2    2    3 ar   
     3    2    4 1    
     4    2   15 1    
     5    4    5 1    
     6    5    6 1    
     7    5   14 1    
     8    6    7 1    
     9    6    8 1    
    10    8    9 1    
    11    8   10 1    
    12   10   11 1    
    13   10   12 1    
    14   12   13 1    
    15   12   14 1    
    16   15   16 1    
    17   16   17 ar   
    18   16   18 ar   
    19   16   19 1    
    20   19   20 1    
    21   20   21 1    
    22   21   22 1    
    23   21   23 1    
    24   22   26 1    
    25   23   24 1    
    26   23   25 1    
    27   25   26 1    
    28   26   27 1    
    29   27   28 1    
    30   27   31 1    
    31   28   29 2    
    32   29   30 1    
    33   29   34 1    
    34   31   32 2    
    35   31   33 1    
    36   33   34 1    
    37   34   35 2    
@<TRIPOS>SUBSTRUCTURE
     1 0FX301      1 GROUP   
@<TRIPOS>SET

