#    Name: 6v2t_4_FOL
#    Modification time : Fri May 22 19:27:37 2020

@<TRIPOS>MOLECULE
6v2t_4_FOL
   23    25     1     0     0
SMALL
NO_CHARGES


@<TRIPOS>ATOM
      1 N1         22.7620   88.7950   -7.1610 N.pl3     1 FOL302      0.0000 
      2 C2         23.4240   89.5780   -6.2940 C.2       1 FOL302      0.0000 
      3 NA2        24.2190   90.5400   -6.7510 N.pl3     1 FOL302      0.0000 
      4 N3         23.2610   89.4340   -4.9440 N.2       1 FOL302      0.0000 
      5 C4         22.4800   88.4550   -4.4620 C.2       1 FOL302      0.0000 
      6 O4         22.3940   88.4000   -3.2070 O.2       1 FOL302      0.0000 
      7 C4A        21.7860   87.6330   -5.3450 C.ar      1 FOL302      0.0000 
      8 N5         21.0150   86.6230   -4.9410 N.ar      1 FOL302      0.0000 
      9 C6         20.5950   85.5290   -5.8240 C.ar      1 FOL302      0.0000 
     10 C7         20.3280   86.1360   -7.2140 C.ar      1 FOL302      0.0000 
     11 N8         21.3360   87.0740   -7.6280 N.ar      1 FOL302      0.0000 
     12 C8A        21.9600   87.8380   -6.7180 C.ar      1 FOL302      0.0000 
     13 C9         21.5130   84.2560   -5.7030 C.3       1 FOL302      0.0000 
     14 N10        21.6480   83.5210   -6.9630 N.pl3     1 FOL302      0.0000 
     15 C11        25.1240   81.7560   -8.5490 C.ar      1 FOL302      0.0000 
     16 C12        23.9130   81.7530   -9.2440 C.ar      1 FOL302      0.0000 
     17 C13        22.7670   82.3330   -8.6900 C.ar      1 FOL302      0.0000 
     18 C14        22.7960   82.9480   -7.4550 C.ar      1 FOL302      0.0000 
     19 C15        24.0100   82.9740   -6.7770 C.ar      1 FOL302      0.0000 
     20 C16        25.1590   82.3870   -7.3130 C.ar      1 FOL302      0.0000 
     21 C          26.3690   81.1550   -9.1580 C.2       1 FOL302      0.0000 
     22 O          26.3660   81.0300  -10.3630 O.2       1 FOL302      0.0000 
     23 N          27.4650   80.8490   -8.4590 N.am      1 FOL302      0.0000 
@<TRIPOS>BOND
     1    1    2 1    
     2    1   12 1    
     3    2    3 1    
     4    2    4 2    
     5    4    5 1    
     6    5    6 2    
     7    5    7 1    
     8    7    8 ar   
     9    7   12 ar   
    10    8    9 ar   
    11    9   10 ar   
    12    9   13 1    
    13   10   11 ar   
    14   11   12 ar   
    15   13   14 1    
    16   14   18 1    
    17   15   16 ar   
    18   15   20 ar   
    19   15   21 1    
    20   16   17 ar   
    21   17   18 ar   
    22   18   19 ar   
    23   19   20 ar   
    24   21   22 2    
    25   21   23 am   
@<TRIPOS>SUBSTRUCTURE
     1 FOL302      1 GROUP   
@<TRIPOS>SET

