#    Name: 6v2t_1_0FX_CAVITY_N1_4
#    Modification time : Fri May 22 19:27:29 2020

@<TRIPOS>MOLECULE
6v2t_1_0FX_CAVITY_N1_4
   62     0     6     0     0
SMALL
NO_CHARGES


@<TRIPOS>ATOM
      1 OG         13.2900   31.3100    0.3500 O.3       1 SER1        0.0000 
      2 OG         12.3000   33.0300   -0.4000 O.3       1 SER1        0.0000 
      3 OG         11.3800   33.0200    0.7800 O.3       1 SER1        0.0000 
      4 OG         13.4700   32.7900    0.5100 O.3       1 SER1        0.0000 
      5 OG         10.4000   34.7400    0.0200 O.3       1 SER1        0.0000 
      6 OG         12.4900   34.5100   -0.2500 O.3       1 SER1        0.0000 
      7 N          13.2200   26.3600    4.0700 N.am      2 ALA2        0.0000 
      8 N          13.4000   27.8400    4.2300 N.am      2 ALA2        0.0000 
      9 N          12.4800   27.8400    5.4100 N.am      2 ALA2        0.0000 
     10 N          11.5500   27.8300    6.5900 N.am      2 ALA2        0.0000 
     11 N          12.4200   29.5700    3.4700 N.am      2 ALA2        0.0000 
     12 N          16.7900   30.5800    3.0900 N.am      2 ALA2        0.0000 
     13 N          15.8600   30.5700    4.2700 N.am      2 ALA2        0.0000 
     14 O          15.8000   32.3100    2.3300 O.2       2 ALA2        0.0000 
     15 OD1        11.4400   31.2900    2.7200 O.co2     3 ASP3        0.0000 
     16 OD1        11.6200   32.7700    2.8700 O.co2     3 ASP3        0.0000 
     17 OD1        10.6900   32.7600    4.0500 O.co2     3 ASP3        0.0000 
     18 OD1         9.4700   34.7300    1.2000 O.co2     3 ASP3        0.0000 
     19 OD1        10.6400   34.4900    2.1100 O.co2     3 ASP3        0.0000 
     20 OD1        10.8800   34.2400    4.2100 O.co2     3 ASP3        0.0000 
     21 OD1        10.8200   35.9700    2.2700 O.co2     3 ASP3        0.0000 
     22 CZ         14.5700   27.6000    5.1400 C.ar      4 PHE5        0.0000 
     23 CZ         13.6400   27.5900    6.3200 C.ar      4 PHE5        0.0000 
     24 CZ         13.5900   29.3300    4.3800 C.ar      4 PHE5        0.0000 
     25 CZ         12.6600   29.3200    5.5600 C.ar      4 PHE5        0.0000 
     26 CZ         11.7400   29.3100    6.7400 C.ar      4 PHE5        0.0000 
     27 CZ         14.7500   29.0800    5.2900 C.ar      4 PHE5        0.0000 
     28 CZ         12.6000   31.0500    3.6300 C.ar      4 PHE5        0.0000 
     29 CZ         11.6800   31.0400    4.8100 C.ar      4 PHE5        0.0000 
     30 CZ         14.6900   30.8200    3.3600 C.ar      4 PHE5        0.0000 
     31 CZ         13.7700   30.8100    4.5400 C.ar      4 PHE5        0.0000 
     32 CZ         12.7900   32.5300    3.7800 C.ar      4 PHE5        0.0000 
     33 CZ         14.8800   32.3000    3.5100 C.ar      4 PHE5        0.0000 
     34 CZ         13.9500   32.2900    4.6900 C.ar      4 PHE5        0.0000 
     35 CZ         12.7300   34.2600    1.8500 C.ar      4 PHE5        0.0000 
     36 CZ         11.8000   34.2500    3.0300 C.ar      4 PHE5        0.0000 
     37 CZ         13.8900   34.0200    2.7600 C.ar      4 PHE5        0.0000 
     38 CZ         12.9700   34.0100    3.9400 C.ar      4 PHE5        0.0000 
     39 CZ         12.9100   35.7400    2.0000 C.ar      4 PHE5        0.0000 
     40 CZ         11.9900   35.7300    3.1800 C.ar      4 PHE5        0.0000 
     41 CZ         11.0600   35.7200    4.3600 C.ar      4 PHE5        0.0000 
     42 CZ         12.2300   35.4800    5.2700 C.ar      4 PHE5        0.0000 
     43 CZ         11.3000   35.4700    6.4600 C.ar      4 PHE5        0.0000 
     44 CZ         11.2500   37.2000    4.5200 C.ar      4 PHE5        0.0000 
     45 CA         13.1600   28.0900    2.1300 C.3       5 GLY6        0.0000 
     46 CA         12.1800   29.8200    1.3800 C.3       5 GLY6        0.0000 
     47 CA         14.2700   29.5800    1.1100 C.3       5 GLY6        0.0000 
     48 CA         13.3400   29.5800    2.2900 C.3       5 GLY6        0.0000 
     49 CA         11.4900   29.5600    4.6500 C.3       5 GLY6        0.0000 
     50 CA         15.4400   29.3400    2.0200 C.3       5 GLY6        0.0000 
     51 CA         12.3600   31.3000    1.5300 C.3       5 GLY6        0.0000 
     52 CA         10.5100   31.2800    3.9000 C.3       5 GLY6        0.0000 
     53 CA         14.4500   31.0700    1.2700 C.3       5 GLY6        0.0000 
     54 CA         15.6200   30.8200    2.1800 C.3       5 GLY6        0.0000 
     55 DU         14.3800   26.1200    4.9800 H         6 CUB7        0.0000 
     56 DU         14.3300   27.8500    3.0500 H         6 CUB7        0.0000 
     57 DU         14.5100   29.3300    3.2000 H         6 CUB7        0.0000 
     58 DU         13.5300   31.0600    2.4500 H         6 CUB7        0.0000 
     59 DU         12.5400   32.7800    1.6900 H         6 CUB7        0.0000 
     60 DU         13.7100   32.5400    2.6000 H         6 CUB7        0.0000 
     61 DU         11.5600   34.5000    0.9300 H         6 CUB7        0.0000 
     62 DU         11.7500   35.9800    1.0900 H         6 CUB7        0.0000 
@<TRIPOS>BOND
@<TRIPOS>SUBSTRUCTURE
     1 SER1        1 GROUP   
     2 ALA2        7 GROUP   
     3 ASP3       15 GROUP   
     4 PHE5       22 GROUP   
     5 GLY6       45 GROUP   
     6 CUB7       55 GROUP   
@<TRIPOS>SET

