#    Name: 6v2t_1_0FX
#    Modification time : Fri May 22 19:27:28 2020

@<TRIPOS>MOLECULE
6v2t_1_0FX
   35    37     1     0     0
SMALL
NO_CHARGES


@<TRIPOS>ATOM
      1 O4P        13.2990   33.7990   -0.9070 O.co2     1 0FX301      0.0000 
      2 P2         12.5890   33.3390    0.3230 P.3       1 0FX301      0.0000 
      3 O3P        11.2900   32.6200    0.0020 O.co2     1 0FX301      0.0000 
      4 O1G        13.6940   32.4900    1.1540 O.3       1 0FX301      0.0000 
      5 C1G        13.8060   32.4690    2.5980 C.3       1 0FX301      0.0000 
      6 C2G        15.1870   31.9830    3.0660 C.3       1 0FX301      0.0000 
      7 O2G        16.2180   32.8950    2.7220 O.3       1 0FX301      0.0000 
      8 C3G        15.4700   30.5900    2.4700 C.3       1 0FX301      0.0000 
      9 O3G        16.8080   30.1680    2.8540 O.3       1 0FX301      0.0000 
     10 C4G        14.3350   29.6430    2.9290 C.3       1 0FX301      0.0000 
     11 N4A        14.4480   28.3120    2.2670 N.4       1 0FX301      0.0000 
     12 C5G        12.9210   30.2510    2.7210 C.3       1 0FX301      0.0000 
     13 C6G        11.8060   29.5350    3.4950 C.3       1 0FX301      0.0000 
     14 O5G        12.8580   31.5650    3.2040 O.3       1 0FX301      0.0000 
     15 OPP        12.2250   34.5340    1.3810 O.3       1 0FX301      0.0000 
     16 P          11.1820   35.7500    1.2320 P.3       1 0FX301      0.0000 
     17 O1P        10.6450   35.7420    2.6430 O.co2     1 0FX301      0.0000 
     18 O2P        10.3210   35.3780    0.0500 O.co2     1 0FX301      0.0000 
     19 O5         12.1940   36.9270    0.9510 O.3       1 0FX301      0.0000 
     20 C5         12.8290   37.0730   -0.3090 C.3       1 0FX301      0.0000 
     21 C4         13.8920   38.1390   -0.0700 C.3       1 0FX301      0.0000 
     22 O4         13.2270   39.3390    0.3370 O.3       1 0FX301      0.0000 
     23 C3         14.8590   37.8190    1.0590 C.3       1 0FX301      0.0000 
     24 O3         15.9900   37.0900    0.5890 O.3       1 0FX301      0.0000 
     25 C2         15.2350   39.2180    1.5840 C.3       1 0FX301      0.0000 
     26 C1         14.0280   40.0750    1.2590 C.3       1 0FX301      0.0000 
     27 N11        13.3180   40.3070    2.5250 N.am      1 0FX301      0.0000 
     28 C61        12.2740   39.5460    2.9190 C.2       1 0FX301      0.0000 
     29 C51        11.6530   39.8050    4.1380 C.2       1 0FX301      0.0000 
     30 C5A        10.4800   38.9920    4.6350 C.3       1 0FX301      0.0000 
     31 C21        13.7350   41.3430    3.2800 C.2       1 0FX301      0.0000 
     32 O21        14.7580   42.1150    2.8560 O.2       1 0FX301      0.0000 
     33 N31        13.1620   41.6240    4.4490 N.am      1 0FX301      0.0000 
     34 C41        12.1140   40.8950    4.8580 C.2       1 0FX301      0.0000 
     35 O41        11.5810   41.1880    6.0310 O.2       1 0FX301      0.0000 
@<TRIPOS>BOND
     1   16   17 ar   
     2   16   18 ar   
     3   16   19 1    
     4   19   20 1    
     5   20   21 1    
     6   21   22 1    
     7   21   23 1    
     8   22   26 1    
     9   23   24 1    
    10   23   25 1    
    11   25   26 1    
    12   26   27 1    
    13   27   28 1    
    14   27   31 1    
    15   28   29 2    
    16   29   30 1    
    17   29   34 1    
    18   31   32 2    
    19   31   33 1    
    20   33   34 1    
    21   34   35 2    
    22    1    2 ar   
    23    2    3 ar   
    24    2    4 1    
    25    2   15 1    
    26    4    5 1    
    27    5    6 1    
    28    5   14 1    
    29    6    7 1    
    30    6    8 1    
    31    8    9 1    
    32    8   10 1    
    33   10   11 1    
    34   10   12 1    
    35   12   13 1    
    36   12   14 1    
    37   15   16 1    
@<TRIPOS>SUBSTRUCTURE
     1 0FX301      1 GROUP   
@<TRIPOS>SET

