#    Name: 6v2t_3_0FX_CAVITY_N1_ALL
#    Modification time : Fri May 22 19:27:35 2020

@<TRIPOS>MOLECULE
6v2t_3_0FX_CAVITY_N1_ALL
   81     0     6     0     0
SMALL
NO_CHARGES


@<TRIPOS>ATOM
      1 OG         14.8900   74.4900   -7.5800 O.3       1 SER1        0.0000 
      2 OG         16.2400   75.7300   -6.5100 O.3       1 SER1        0.0000 
      3 OG         15.2500   77.4500   -7.2600 O.3       1 SER1        0.0000 
      4 OG         16.4200   77.2100   -6.3500 O.3       1 SER1        0.0000 
      5 OG         16.6000   78.6900   -6.2000 O.3       1 SER1        0.0000 
      6 OG         17.7700   78.4500   -5.2900 O.3       1 SER1        0.0000 
      7 OG         25.5200   82.2100   -6.8100 O.3       1 SER1        0.0000 
      8 O          15.0700   75.9700   -7.4200 O.2       2 ALA2        0.0000 
      9 N          17.2900   78.9500   -9.4700 N.am      2 ALA2        0.0000 
     10 N          16.3600   78.9400   -8.2900 N.am      2 ALA2        0.0000 
     11 N          18.6400   80.1900   -8.4000 N.am      2 ALA2        0.0000 
     12 N          19.8000   79.9500   -7.4900 N.am      2 ALA2        0.0000 
     13 N          19.9900   81.4300   -7.3400 N.am      2 ALA2        0.0000 
     14 N          19.0600   81.4200   -6.1500 N.am      2 ALA2        0.0000 
     15 N          23.9300   81.2200   -9.9700 N.am      2 ALA2        0.0000 
     16 N          23.0000   81.2100   -8.7900 N.am      2 ALA2        0.0000 
     17 N          22.0800   81.2000   -7.6000 N.am      2 ALA2        0.0000 
     18 N          21.1500   81.1900   -6.4200 N.am      2 ALA2        0.0000 
     19 O          24.1700   80.9700   -7.8700 O.2       2 ALA2        0.0000 
     20 O          23.2400   80.9600   -6.6900 O.2       2 ALA2        0.0000 
     21 O          27.1900   80.7500   -9.3200 O.2       2 ALA2        0.0000 
     22 O          26.2600   80.7400   -8.1400 O.2       2 ALA2        0.0000 
     23 N          19.2400   82.9000   -6.0000 N.am      2 ALA2        0.0000 
     24 N          24.1100   82.7000   -9.8100 N.am      2 ALA2        0.0000 
     25 N          23.1900   82.6900   -8.6300 N.am      2 ALA2        0.0000 
     26 N          22.2600   82.6800   -7.4500 N.am      2 ALA2        0.0000 
     27 N          21.3400   82.6700   -6.2700 N.am      2 ALA2        0.0000 
     28 N          22.4400   84.1600   -7.2900 N.am      2 ALA2        0.0000 
     29 OD1        19.0100   75.7600  -10.0500 O.co2     3 ASP3        0.0000 
     30 OD1        17.1000   77.4700   -9.6300 O.co2     3 ASP3        0.0000 
     31 OD1        19.1900   77.2400   -9.9000 O.co2     3 ASP3        0.0000 
     32 CZ         19.0700   74.0300   -8.1100 C.ar      4 PHE5        0.0000 
     33 CZ         21.1000   75.5300  -10.3200 C.ar      4 PHE5        0.0000 
     34 CZ         20.1800   75.5200   -9.1400 C.ar      4 PHE5        0.0000 
     35 CZ         19.2500   75.5100   -7.9600 C.ar      4 PHE5        0.0000 
     36 CZ         18.3300   75.5000   -6.7800 C.ar      4 PHE5        0.0000 
     37 CZ         20.3600   77.0000   -8.9800 C.ar      4 PHE5        0.0000 
     38 CZ         19.4400   76.9900   -7.8000 C.ar      4 PHE5        0.0000 
     39 CZ         20.6000   76.7500   -6.8900 C.ar      4 PHE5        0.0000 
     40 CZ         21.4700   78.4900  -10.0100 C.ar      4 PHE5        0.0000 
     41 CZ         20.5400   78.4800   -8.8300 C.ar      4 PHE5        0.0000 
     42 CZ         21.7100   78.2400   -7.9200 C.ar      4 PHE5        0.0000 
     43 CZ         20.7900   78.2300   -6.7400 C.ar      4 PHE5        0.0000 
     44 CZ         24.6700   79.7500  -11.3000 C.ar      4 PHE5        0.0000 
     45 CZ         21.8900   79.7200   -7.7600 C.ar      4 PHE5        0.0000 
     46 CZ         23.0600   79.4800   -6.8500 C.ar      4 PHE5        0.0000 
     47 CZ         22.1400   79.4700   -5.6700 C.ar      4 PHE5        0.0000 
     48 CZ         26.0200   80.9900  -10.2400 C.ar      4 PHE5        0.0000 
     49 CZ         25.0900   80.9800   -9.0500 C.ar      4 PHE5        0.0000 
     50 CA         16.1800   77.4600   -8.4500 C.3       5 GLY6        0.0000 
     51 CA         19.3800   78.7200   -9.7400 C.3       5 GLY6        0.0000 
     52 CA         18.4500   78.7100   -8.5600 C.3       5 GLY6        0.0000 
     53 CA         17.5300   78.7000   -7.3800 C.3       5 GLY6        0.0000 
     54 CA         17.7100   80.1800   -7.2200 C.3       5 GLY6        0.0000 
     55 CA         21.6500   79.9700   -9.8500 C.3       5 GLY6        0.0000 
     56 CA         20.7300   79.9600   -8.6700 C.3       5 GLY6        0.0000 
     57 CA         17.9500   79.9300   -5.1300 C.3       5 GLY6        0.0000 
     58 CA         27.1300   82.4800  -11.2600 C.3       5 GLY6        0.0000 
     59 CA         26.2000   82.4700  -10.0800 C.3       5 GLY6        0.0000 
     60 CA         25.2800   82.4600   -8.9000 C.3       5 GLY6        0.0000 
     61 CA         24.3500   82.4500   -7.7200 C.3       5 GLY6        0.0000 
     62 CA         23.4300   82.4400   -6.5400 C.3       5 GLY6        0.0000 
     63 CA         27.3700   82.2300   -9.1700 C.3       5 GLY6        0.0000 
     64 CA         26.4400   82.2200   -7.9900 C.3       5 GLY6        0.0000 
     65 CA         24.5900   82.2000   -5.6300 C.3       5 GLY6        0.0000 
     66 CA         23.3700   84.1700   -8.4700 C.3       5 GLY6        0.0000 
     67 CA         24.5400   83.9300   -7.5600 C.3       5 GLY6        0.0000 
     68 CA         23.6100   83.9200   -6.3800 C.3       5 GLY6        0.0000 
     69 DU         16.9800   74.2600   -7.8400 H         6 CUB7        0.0000 
     70 DU         18.0900   75.7500   -8.8700 H         6 CUB7        0.0000 
     71 DU         17.1600   75.7400   -7.6900 H         6 CUB7        0.0000 
     72 DU         18.2700   77.2300   -8.7100 H         6 CUB7        0.0000 
     73 DU         17.3400   77.2200   -7.5300 H         6 CUB7        0.0000 
     74 DU         18.5100   76.9800   -6.6200 H         6 CUB7        0.0000 
     75 DU         19.6200   78.4700   -7.6500 H         6 CUB7        0.0000 
     76 DU         18.6900   78.4600   -6.4700 H         6 CUB7        0.0000 
     77 DU         18.8800   79.9400   -6.3100 H         6 CUB7        0.0000 
     78 DU         20.9700   79.7100   -6.5800 H         6 CUB7        0.0000 
     79 DU         20.0400   79.7000   -5.4000 H         6 CUB7        0.0000 
     80 DU         20.2300   81.1800   -5.2400 H         6 CUB7        0.0000 
     81 DU         26.9400   81.0000  -11.4200 H         6 CUB7        0.0000 
@<TRIPOS>BOND
@<TRIPOS>SUBSTRUCTURE
     1 SER1        1 GROUP   
     2 ALA2        8 GROUP   
     3 ASP3       29 GROUP   
     4 PHE5       32 GROUP   
     5 GLY6       50 GROUP   
     6 CUB7       69 GROUP   
@<TRIPOS>SET

