#    Name: 5oes_6_ADP
#    Modification time : Fri May 22 19:24:54 2020

@<TRIPOS>MOLECULE
5oes_6_ADP
   27    29     1     0     1
SMALL
NO_CHARGES


@<TRIPOS>ATOM
      1 PB        120.6200   59.3010  173.0610 P.3       1 ADP501      0.0000 
      2 O1B       120.0120   60.0080  171.8670 O.co2     1 ADP501      0.0000 
      3 O2B       121.9260   58.5890  172.7500 O.co2     1 ADP501      0.0000 
      4 O3B       120.7010   60.1790  174.2930 O.co2     1 ADP501      0.0000 
      5 PA        119.6710   56.5560  173.6570 P.3       1 ADP501      0.0000 
      6 O1A       118.3950   56.0370  174.2840 O.co2     1 ADP501      0.0000 
      7 O2A       120.9890   56.2520  174.3510 O.co2     1 ADP501      0.0000 
      8 O3A       119.4970   58.1710  173.4400 O.3       1 ADP501      0.0000 
      9 O5'       119.7330   55.9660  172.1440 O.3       1 ADP501      0.0000 
     10 C5'       120.8790   56.0560  171.2740 C.3       1 ADP501      0.0000 
     11 C4'       120.9110   54.9730  170.1840 C.3       1 ADP501      0.0000 
     12 O4'       121.4340   53.7380  170.6800 O.3       1 ADP501      0.0000 
     13 C3'       119.5550   54.6220  169.5750 C.3       1 ADP501      0.0000 
     14 O3'       119.2940   55.3900  168.4090 O.3       1 ADP501      0.0000 
     15 C2'       119.6250   53.1510  169.2380 C.3       1 ADP501      0.0000 
     16 O2'       120.0550   52.9040  167.8920 O.3       1 ADP501      0.0000 
     17 C1'       120.6480   52.6310  170.2210 C.3       1 ADP501      0.0000 
     18 N9        119.9460   51.9980  171.3580 N.pl3     1 ADP501      0.0000 
     19 C8        119.4520   52.6060  172.4550 C.2       1 ADP501      0.0000 
     20 N7        118.8740   51.7090  173.2850 N.2       1 ADP501      0.0000 
     21 C5        118.9880   50.5000  172.7140 C.ar      1 ADP501      0.0000 
     22 C6        118.5910   49.1190  173.0510 C.ar      1 ADP501      0.0000 
     23 N6        117.9390   48.8480  174.2040 N.pl3     1 ADP501      0.0000 
     24 N1        118.9130   48.1530  172.1600 N.ar      1 ADP501      0.0000 
     25 C2        119.5690   48.4050  171.0050 C.ar      1 ADP501      0.0000 
     26 N3        119.9540   49.6350  170.6420 N.ar      1 ADP501      0.0000 
     27 C4        119.6950   50.6990  171.4410 C.ar      1 ADP501      0.0000 
@<TRIPOS>BOND
     1    1    2 ar   
     2    1    3 ar   
     3    1    4 ar   
     4    1    8 1    
     5    5    6 ar   
     6    5    7 ar   
     7    5    8 1    
     8    5    9 1    
     9    9   10 1    
    10   10   11 1    
    11   11   12 1    
    12   11   13 1    
    13   12   17 1    
    14   13   14 1    
    15   13   15 1    
    16   15   16 1    
    17   15   17 1    
    18   17   18 1    
    19   18   19 1    
    20   18   27 1    
    21   19   20 2    
    22   20   21 1    
    23   21   22 ar   
    24   21   27 ar   
    25   22   23 1    
    26   22   24 ar   
    27   24   25 ar   
    28   25   26 ar   
    29   26   27 ar   
@<TRIPOS>SUBSTRUCTURE
     1 ADP501      1 GROUP   
@<TRIPOS>SET
ATOM$ORANGE STATIC     ATOMS   COLORGROUP SYSTEM 
20 10 10 11 11 13 13 15 15 17 17 19 19 21 21 22 22 25 \
25 27 27 

