#    Name: 5oes_1_ADP
#    Modification time : Fri May 22 19:24:21 2020

@<TRIPOS>MOLECULE
5oes_1_ADP
   27    29     1     0     1
SMALL
NO_CHARGES


@<TRIPOS>ATOM
      1 PB         60.3620   34.9470  151.0490 P.3       1 ADP501      0.0000 
      2 O1B        59.8790   33.8060  150.1630 O.co2     1 ADP501      0.0000 
      3 O2B        61.2150   34.4610  152.2040 O.co2     1 ADP501      0.0000 
      4 O3B        60.9650   36.1270  150.3070 O.co2     1 ADP501      0.0000 
      5 PA         57.8680   36.5120  151.1720 P.3       1 ADP501      0.0000 
      6 O1A        58.4580   37.4870  150.1680 O.co2     1 ADP501      0.0000 
      7 O2A        57.1160   37.1270  152.3260 O.co2     1 ADP501      0.0000 
      8 O3A        59.0380   35.5530  151.7950 O.3       1 ADP501      0.0000 
      9 O5'        56.9100   35.4310  150.4090 O.3       1 ADP501      0.0000 
     10 C5'        57.2000   34.8270  149.1290 C.3       1 ADP501      0.0000 
     11 C4'        56.0910   35.0720  148.0990 C.3       1 ADP501      0.0000 
     12 O4'        54.8010   34.7540  148.6320 O.3       1 ADP501      0.0000 
     13 C3'        55.9750   36.5230  147.6400 C.3       1 ADP501      0.0000 
     14 O3'        56.8250   36.8160  146.5320 O.3       1 ADP501      0.0000 
     15 C2'        54.5100   36.6960  147.2810 C.3       1 ADP501      0.0000 
     16 O2'        54.2220   36.4100  145.9070 O.3       1 ADP501      0.0000 
     17 C1'        53.8110   35.6900  148.1750 C.3       1 ADP501      0.0000 
     18 N9         53.1800   36.4100  149.3090 N.pl3     1 ADP501      0.0000 
     19 C8         53.7790   36.8500  150.4360 C.2       1 ADP501      0.0000 
     20 N7         52.8990   37.4600  151.2610 N.2       1 ADP501      0.0000 
     21 C5         51.7090   37.4330  150.6440 C.ar      1 ADP501      0.0000 
     22 C6         50.3480   37.9110  150.9510 C.ar      1 ADP501      0.0000 
     23 N6         50.1030   38.5530  152.1150 N.pl3     1 ADP501      0.0000 
     24 N1         49.3910   37.6630  150.0270 N.ar      1 ADP501      0.0000 
     25 C2         49.6380   37.0120  148.8620 C.ar      1 ADP501      0.0000 
     26 N3         50.8470   36.5630  148.5260 N.ar      1 ADP501      0.0000 
     27 C4         51.8990   36.7430  149.3580 C.ar      1 ADP501      0.0000 
@<TRIPOS>BOND
     1    1    2 ar   
     2    1    3 ar   
     3    1    4 ar   
     4    1    8 1    
     5    5    6 ar   
     6    5    7 ar   
     7    5    8 1    
     8    5    9 1    
     9    9   10 1    
    10   10   11 1    
    11   11   12 1    
    12   11   13 1    
    13   12   17 1    
    14   13   14 1    
    15   13   15 1    
    16   15   16 1    
    17   15   17 1    
    18   17   18 1    
    19   18   19 1    
    20   18   27 1    
    21   19   20 2    
    22   20   21 1    
    23   21   22 ar   
    24   21   27 ar   
    25   22   23 1    
    26   22   24 ar   
    27   24   25 ar   
    28   25   26 ar   
    29   26   27 ar   
@<TRIPOS>SUBSTRUCTURE
     1 ADP501      1 GROUP   
@<TRIPOS>SET
ATOM$ORANGE STATIC     ATOMS   COLORGROUP SYSTEM 
20 10 10 11 11 13 13 15 15 17 17 19 19 21 21 22 22 25 \
25 27 27 

