#    Name: 5oes_3_ADP_CAVITY_N1_4
#    Modification time : Fri May 22 19:24:36 2020

@<TRIPOS>MOLECULE
5oes_3_ADP_CAVITY_N1_4
   81     0     7     0     0
SMALL
NO_CHARGES


@<TRIPOS>ATOM
      1 OG         36.1900   52.5700   85.8300 O.3       1 SER1        0.0000 
      2 OG         34.7000   53.4900   89.0600 O.3       1 SER1        0.0000 
      3 OG         35.4100   52.1700   89.0700 O.3       1 SER1        0.0000 
      4 OG         34.8600   55.2700   87.9300 O.3       1 SER1        0.0000 
      5 OG         35.5800   53.9600   87.9400 O.3       1 SER1        0.0000 
      6 OG         36.2900   52.6400   87.9500 O.3       1 SER1        0.0000 
      7 OG         36.4500   54.4300   86.8200 O.3       1 SER1        0.0000 
      8 OG         37.1700   53.1100   86.8300 O.3       1 SER1        0.0000 
      9 N          35.8600   48.9900   88.1000 N.am      2 ALA2        0.0000 
     10 N          36.7400   49.4600   86.9800 N.am      2 ALA2        0.0000 
     11 O          37.0700   53.0400   84.7100 O.2       2 ALA2        0.0000 
     12 N          38.5000   50.4000   84.7300 N.am      2 ALA2        0.0000 
     13 O          35.0800   58.7800   83.5500 O.2       2 ALA2        0.0000 
     14 O          35.7900   57.4600   83.5600 O.2       2 ALA2        0.0000 
     15 O          36.5100   56.1400   83.5700 O.2       2 ALA2        0.0000 
     16 N          35.9700   49.0700   90.2200 N.am      2 ALA2        0.0000 
     17 N          36.8500   49.5300   89.0900 N.am      2 ALA2        0.0000 
     18 N          37.7300   50.0000   87.9700 N.am      2 ALA2        0.0000 
     19 O          35.0200   57.0600   86.8000 O.2       2 ALA2        0.0000 
     20 O          35.7400   55.7400   86.8100 O.2       2 ALA2        0.0000 
     21 O          35.9000   57.5300   85.6800 O.2       2 ALA2        0.0000 
     22 O          36.6200   56.2100   85.6900 O.2       2 ALA2        0.0000 
     23 O          37.3300   54.8900   85.7000 O.2       2 ALA2        0.0000 
     24 O          36.7800   58.0000   84.5600 O.2       2 ALA2        0.0000 
     25 O          37.4900   56.6800   84.5700 O.2       2 ALA2        0.0000 
     26 OD1        34.9900   48.5200   89.2200 O.co2     3 ASP3        0.0000 
     27 OD1        35.7000   47.2100   89.2300 O.co2     3 ASP3        0.0000 
     28 OD1        37.9500   53.5000   83.5900 O.co2     3 ASP3        0.0000 
     29 OD1        36.9400   59.7900   83.4200 O.co2     3 ASP3        0.0000 
     30 OD1        38.3700   57.1500   83.4400 O.co2     3 ASP3        0.0000 
     31 OD1        35.6800   54.0300   90.0600 O.co2     3 ASP3        0.0000 
     32 OD1        35.8400   55.8200   88.9300 O.co2     3 ASP3        0.0000 
     33 OD1        36.5600   54.5000   88.9400 O.co2     3 ASP3        0.0000 
     34 OD1        36.0000   57.6000   87.8000 O.co2     3 ASP3        0.0000 
     35 OD1        36.7200   56.2900   87.8100 O.co2     3 ASP3        0.0000 
     36 OD1        37.7600   58.5400   85.5500 O.co2     3 ASP3        0.0000 
     37 OD1        36.9800   58.1400   88.7900 O.co2     3 ASP3        0.0000 
     38 OD1        37.8600   58.6100   87.6700 O.co2     3 ASP3        0.0000 
     39 NZ         37.6600   58.4700   83.4300 N.4       4 LYS4        0.0000 
     40 NZ         37.4400   54.9700   87.8200 N.4       4 LYS4        0.0000 
     41 NZ         37.2000   61.6500   84.4100 N.4       4 LYS4        0.0000 
     42 NZ         37.9200   60.3300   84.4200 N.4       4 LYS4        0.0000 
     43 NZ         38.6400   59.0100   84.4300 N.4       4 LYS4        0.0000 
     44 NZ         37.7000   56.8300   88.8000 N.4       4 LYS4        0.0000 
     45 NZ         39.3000   55.9800   87.6900 N.4       4 LYS4        0.0000 
     46 CZ         34.2700   49.8400   89.2100 C.ar      5 PHE5        0.0000 
     47 CZ         35.1500   50.3100   88.0900 C.ar      5 PHE5        0.0000 
     48 CZ         36.0300   50.7800   86.9700 C.ar      5 PHE5        0.0000 
     49 CA         36.8000   51.1800   83.7300 C.3       6 GLY6        0.0000 
     50 CA         36.9100   51.2500   85.8400 C.3       6 GLY6        0.0000 
     51 CA         37.6200   49.9300   85.8500 C.3       6 GLY6        0.0000 
     52 CA         37.7800   51.7200   84.7200 C.3       6 GLY6        0.0000 
     53 CA         38.6600   52.1900   83.6000 C.3       6 GLY6        0.0000 
     54 CA         35.9600   59.2400   82.4300 C.3       6 GLY6        0.0000 
     55 CA         36.6700   57.9300   82.4400 C.3       6 GLY6        0.0000 
     56 CA         34.5300   51.7000   90.1900 C.3       6 GLY6        0.0000 
     57 CA         35.2500   50.3800   90.2000 C.3       6 GLY6        0.0000 
     58 CA         37.0100   51.3200   87.9600 C.3       6 GLY6        0.0000 
     59 CA         37.8900   51.7900   86.8400 C.3       6 GLY6        0.0000 
     60 CA         38.6000   50.4700   86.8500 C.3       6 GLY6        0.0000 
     61 CA         38.0500   53.5800   85.7100 C.3       6 GLY6        0.0000 
     62 CA         38.7700   52.2600   85.7200 C.3       6 GLY6        0.0000 
     63 CA         39.4800   50.9400   85.7300 C.3       6 GLY6        0.0000 
     64 CA         38.2100   55.3600   84.5800 C.3       6 GLY6        0.0000 
     65 CA         38.9300   54.0500   84.5900 C.3       6 GLY6        0.0000 
     66 CA         34.8000   53.5600   91.1800 C.3       6 GLY6        0.0000 
     67 CA         36.4000   52.7100   90.0700 C.3       6 GLY6        0.0000 
     68 CA         37.1100   51.3900   90.0800 C.3       6 GLY6        0.0000 
     69 CA         37.2700   53.1800   88.9500 C.3       6 GLY6        0.0000 
     70 CA         37.9900   51.8600   88.9600 C.3       6 GLY6        0.0000 
     71 CA         38.1500   53.6500   87.8300 C.3       6 GLY6        0.0000 
     72 CA         38.8700   52.3300   87.8400 C.3       6 GLY6        0.0000 
     73 CA         37.6000   56.7500   86.6800 C.3       6 GLY6        0.0000 
     74 CA         38.3100   55.4400   86.6900 C.3       6 GLY6        0.0000 
     75 CA         39.0300   54.1200   86.7000 C.3       6 GLY6        0.0000 
     76 CA         38.4800   57.2200   85.5600 C.3       6 GLY6        0.0000 
     77 DU         36.1300   50.8500   89.0800 H         7 CUB7        0.0000 
     78 DU         36.0600   59.3200   84.5500 H         7 CUB7        0.0000 
     79 DU         36.1600   59.3900   86.6600 H         7 CUB7        0.0000 
     80 DU         36.8800   58.0700   86.6700 H         7 CUB7        0.0000 
     81 DU         37.0400   59.8600   85.5400 H         7 CUB7        0.0000 
@<TRIPOS>BOND
@<TRIPOS>SUBSTRUCTURE
     1 SER1        1 GROUP   
     2 ALA2        9 GROUP   
     3 ASP3       26 GROUP   
     4 LYS4       39 GROUP   
     5 PHE5       46 GROUP   
     6 GLY6       49 GROUP   
     7 CUB7       77 GROUP   
@<TRIPOS>SET

