#    Name: 5oes_4_ADP
#    Modification time : Fri May 22 19:24:42 2020

@<TRIPOS>MOLECULE
5oes_4_ADP
   27    29     1     0     1
SMALL
NO_CHARGES


@<TRIPOS>ATOM
      1 PB         33.4980   96.5580  128.5340 P.3       1 ADP501      0.0000 
      2 O1B        32.4780   97.2510  127.6540 O.co2     1 ADP501      0.0000 
      3 O2B        32.8520   95.9710  129.7730 O.co2     1 ADP501      0.0000 
      4 O3B        34.3710   95.5620  127.7950 O.co2     1 ADP501      0.0000 
      5 PA         36.0410   98.1330  128.6800 P.3       1 ADP501      0.0000 
      6 O1A        36.8950   96.8930  128.5060 O.co2     1 ADP501      0.0000 
      7 O2A        36.5710   99.1660  129.6390 O.co2     1 ADP501      0.0000 
      8 O3A        34.4890   97.7550  129.0850 O.3       1 ADP501      0.0000 
      9 O5'        35.9510   98.8290  127.2230 O.3       1 ADP501      0.0000 
     10 C5'        34.7470   98.9550  126.4590 C.3       1 ADP501      0.0000 
     11 C4'        34.8420   99.9430  125.3000 C.3       1 ADP501      0.0000 
     12 O4'        34.2470  101.1830  125.7090 O.3       1 ADP501      0.0000 
     13 C3'        36.2480  100.2580  124.7830 C.3       1 ADP501      0.0000 
     14 O3'        36.6160   99.4180  123.6860 O.3       1 ADP501      0.0000 
     15 C2'        36.1450  101.7170  124.3950 C.3       1 ADP501      0.0000 
     16 O2'        35.7080  101.8890  123.0370 O.3       1 ADP501      0.0000 
     17 C1'        35.1050  102.2720  125.3640 C.3       1 ADP501      0.0000 
     18 N9         35.7890  102.8240  126.5680 N.pl3     1 ADP501      0.0000 
     19 C8         36.3690  102.1280  127.5740 C.2       1 ADP501      0.0000 
     20 N7         36.9140  102.9490  128.5040 N.2       1 ADP501      0.0000 
     21 C5         36.6890  104.2040  128.0920 C.ar      1 ADP501      0.0000 
     22 C6         36.9950  105.5560  128.6070 C.ar      1 ADP501      0.0000 
     23 N6         37.6710  105.7030  129.7720 N.pl3     1 ADP501      0.0000 
     24 N1         36.5720  106.6050  127.8550 N.ar      1 ADP501      0.0000 
     25 C2         35.8930  106.4580  126.6860 C.ar      1 ADP501      0.0000 
     26 N3         35.5860  105.2620  126.1670 N.ar      1 ADP501      0.0000 
     27 C4         35.9500  104.1220  126.8130 C.ar      1 ADP501      0.0000 
@<TRIPOS>BOND
     1    1    2 ar   
     2    1    3 ar   
     3    1    4 ar   
     4    1    8 1    
     5    5    6 ar   
     6    5    7 ar   
     7    5    8 1    
     8    5    9 1    
     9    9   10 1    
    10   10   11 1    
    11   11   12 1    
    12   11   13 1    
    13   12   17 1    
    14   13   14 1    
    15   13   15 1    
    16   15   16 1    
    17   15   17 1    
    18   17   18 1    
    19   18   19 1    
    20   18   27 1    
    21   19   20 2    
    22   20   21 1    
    23   21   22 ar   
    24   21   27 ar   
    25   22   23 1    
    26   22   24 ar   
    27   24   25 ar   
    28   25   26 ar   
    29   26   27 ar   
@<TRIPOS>SUBSTRUCTURE
     1 ADP501      1 GROUP   
@<TRIPOS>SET
ATOM$ORANGE STATIC     ATOMS   COLORGROUP SYSTEM 
20 10 10 11 11 13 13 15 15 17 17 19 19 21 21 22 22 25 \
25 27 27 

