#    Name: 5oes_1_ADP_CAVITY_N1_4
#    Modification time : Fri May 22 19:24:23 2020

@<TRIPOS>MOLECULE
5oes_1_ADP_CAVITY_N1_4
   59     0     7     0     0
SMALL
NO_CHARGES


@<TRIPOS>ATOM
      1 OG         51.5400   34.0600  146.2800 O.3       1 SER1        0.0000 
      2 OG         52.2600   32.7400  146.2900 O.3       1 SER1        0.0000 
      3 OG         51.8000   35.9200  147.2700 O.3       1 SER1        0.0000 
      4 OG         53.4000   35.0700  146.1600 O.3       1 SER1        0.0000 
      5 OG         51.9100   35.9900  149.3900 O.3       1 SER1        0.0000 
      6 OG         52.7900   36.4600  148.2700 O.3       1 SER1        0.0000 
      7 OG         53.5000   35.1500  148.2800 O.3       1 SER1        0.0000 
      8 OG         54.3800   35.6200  147.1500 O.3       1 SER1        0.0000 
      9 N          48.2400   35.6900  146.3900 N.am      2 ALA2        0.0000 
     10 N          49.2300   36.2300  147.3900 N.am      2 ALA2        0.0000 
     11 N          49.4900   38.0900  148.3700 N.am      2 ALA2        0.0000 
     12 N          50.2100   36.7700  148.3800 N.am      2 ALA2        0.0000 
     13 O          49.6000   38.1600  150.4900 O.2       2 ALA2        0.0000 
     14 O          52.8900   36.5400  150.3800 O.2       2 ALA2        0.0000 
     15 O          53.6100   35.2200  150.3900 O.2       2 ALA2        0.0000 
     16 O          54.4800   35.6900  149.2700 O.2       2 ALA2        0.0000 
     17 O          56.0800   34.8400  148.1600 O.2       2 ALA2        0.0000 
     18 O          55.4700   36.2300  150.2700 O.2       2 ALA2        0.0000 
     19 O          57.0600   35.3800  149.1600 O.2       2 ALA2        0.0000 
     20 OD1        48.9600   34.3700  146.4000 O.co2     3 ASP3        0.0000 
     21 OD1        55.2600   36.0800  146.0300 O.co2     3 ASP3        0.0000 
     22 OD1        56.9600   35.3100  147.0400 O.co2     3 ASP3        0.0000 
     23 OD1        53.8700   37.0800  151.3800 O.co2     3 ASP3        0.0000 
     24 OD1        57.9400   35.8500  148.0300 O.co2     3 ASP3        0.0000 
     25 OD1        56.4500   36.7700  151.2600 O.co2     3 ASP3        0.0000 
     26 OD1        57.3300   37.2400  150.1400 O.co2     3 ASP3        0.0000 
     27 NZ         54.6500   37.4700  148.1400 N.4       4 LYS4        0.0000 
     28 NZ         55.3600   36.1600  148.1500 N.4       4 LYS4        0.0000 
     29 NZ         56.2400   36.6300  147.0300 N.4       4 LYS4        0.0000 
     30 NZ         57.2200   37.1700  148.0200 N.4       4 LYS4        0.0000 
     31 CZ         49.0600   34.4400  148.5200 C.ar      5 PHE5        0.0000 
     32 CZ         49.9400   34.9100  147.4000 C.ar      5 PHE5        0.0000 
     33 CZ         50.9300   35.4500  148.3900 C.ar      5 PHE5        0.0000 
     34 CA         49.1200   36.1600  145.2700 C.3       6 GLY6        0.0000 
     35 CA         49.8400   34.8400  145.2800 C.3       6 GLY6        0.0000 
     36 CA         48.3500   35.7600  148.5100 C.3       6 GLY6        0.0000 
     37 CA         50.1100   36.7000  146.2600 C.3       6 GLY6        0.0000 
     38 CA         50.8200   35.3800  146.2700 C.3       6 GLY6        0.0000 
     39 CA         51.7000   35.8500  145.1500 C.3       6 GLY6        0.0000 
     40 CA         52.4200   34.5300  145.1600 C.3       6 GLY6        0.0000 
     41 CA         53.3000   35.0000  144.0400 C.3       6 GLY6        0.0000 
     42 CA         54.0100   33.6800  144.0500 C.3       6 GLY6        0.0000 
     43 CA         49.3300   36.3000  149.5000 C.3       6 GLY6        0.0000 
     44 CA         51.0900   37.2400  147.2600 C.3       6 GLY6        0.0000 
     45 CA         52.6800   36.3900  146.1500 C.3       6 GLY6        0.0000 
     46 CA         54.2800   35.5400  145.0400 C.3       6 GLY6        0.0000 
     47 CA         50.3100   36.8400  150.5000 C.3       6 GLY6        0.0000 
     48 CA         51.0300   35.5300  150.5100 C.3       6 GLY6        0.0000 
     49 CA         50.4700   38.6300  149.3700 C.3       6 GLY6        0.0000 
     50 CA         51.1900   37.3100  149.3800 C.3       6 GLY6        0.0000 
     51 CA         52.0700   37.7800  148.2600 C.3       6 GLY6        0.0000 
     52 CA         53.6600   36.9300  147.1400 C.3       6 GLY6        0.0000 
     53 CA         51.2900   37.3800  151.4900 C.3       6 GLY6        0.0000 
     54 CA         52.1700   37.8500  150.3700 C.3       6 GLY6        0.0000 
     55 CA         53.0500   38.3200  149.2500 C.3       6 GLY6        0.0000 
     56 CA         53.7700   37.0100  149.2600 C.3       6 GLY6        0.0000 
     57 CA         54.7500   37.5500  150.2600 C.3       6 GLY6        0.0000 
     58 CA         56.3500   36.7000  149.1500 C.3       6 GLY6        0.0000 
     59 DU         58.0400   35.9200  150.1500 H         7 CUB7        0.0000 
@<TRIPOS>BOND
@<TRIPOS>SUBSTRUCTURE
     1 SER1        1 GROUP   
     2 ALA2        9 GROUP   
     3 ASP3       20 GROUP   
     4 LYS4       27 GROUP   
     5 PHE5       31 GROUP   
     6 GLY6       34 GROUP   
     7 CUB7       59 GROUP   
@<TRIPOS>SET

