#    Name: 5oes_2_ADP
#    Modification time : Fri May 22 19:24:28 2020

@<TRIPOS>MOLECULE
5oes_2_ADP
   27    29     1     0     1
SMALL
NO_CHARGES


@<TRIPOS>ATOM
      1 PB         95.9160   32.7510  107.3450 P.3       1 ADP501      0.0000 
      2 O1B        96.5730   31.9820  106.2170 O.co2     1 ADP501      0.0000 
      3 O2B        94.4390   33.0010  107.1150 O.co2     1 ADP501      0.0000 
      4 O3B        96.1920   32.1400  108.7060 O.co2     1 ADP501      0.0000 
      5 PA         98.0790   34.7870  107.0310 P.3       1 ADP501      0.0000 
      6 O1A        98.8250   33.7280  106.2480 O.co2     1 ADP501      0.0000 
      7 O2A        98.0800   36.2170  106.5280 O.co2     1 ADP501      0.0000 
      8 O3A        96.5410   34.2760  107.3270 O.3       1 ADP501      0.0000 
      9 O5'        98.7160   34.8190  108.5130 O.3       1 ADP501      0.0000 
     10 C5'        98.6560   33.6910  109.3940 C.3       1 ADP501      0.0000 
     11 C4'        99.7700   33.7010  110.4260 C.3       1 ADP501      0.0000 
     12 O4'       100.9780   33.1930  109.8720 O.3       1 ADP501      0.0000 
     13 C3'       100.1140   35.0850  110.9660 C.3       1 ADP501      0.0000 
     14 O3'        99.3280   35.3860  112.1050 O.3       1 ADP501      0.0000 
     15 C2'       101.5810   35.0050  111.3060 C.3       1 ADP501      0.0000 
     16 O2'       101.8080   34.5490  112.6530 O.3       1 ADP501      0.0000 
     17 C1'       102.0900   34.0010  110.2860 C.3       1 ADP501      0.0000 
     18 N9        102.6920   34.7220  109.1290 N.pl3     1 ADP501      0.0000 
     19 C8        102.0730   35.2440  108.0490 C.2       1 ADP501      0.0000 
     20 N7        102.9560   35.8270  107.2040 N.2       1 ADP501      0.0000 
     21 C5        104.1690   35.6830  107.7550 C.ar      1 ADP501      0.0000 
     22 C6        105.5510   36.0580  107.4080 C.ar      1 ADP501      0.0000 
     23 N6        105.8010   36.7280  106.2600 N.pl3     1 ADP501      0.0000 
     24 N1        106.5320   35.7010  108.2800 N.ar      1 ADP501      0.0000 
     25 C2        106.3010   35.0290  109.4300 C.ar      1 ADP501      0.0000 
     26 N3        105.0740   34.6670  109.8040 N.ar      1 ADP501      0.0000 
     27 C4        103.9940   34.9570  109.0230 C.ar      1 ADP501      0.0000 
@<TRIPOS>BOND
     1    1    2 ar   
     2    1    3 ar   
     3    1    4 ar   
     4    1    8 1    
     5    5    6 ar   
     6    5    7 ar   
     7    5    8 1    
     8    5    9 1    
     9    9   10 1    
    10   10   11 1    
    11   11   12 1    
    12   11   13 1    
    13   12   17 1    
    14   13   14 1    
    15   13   15 1    
    16   15   16 1    
    17   15   17 1    
    18   17   18 1    
    19   18   19 1    
    20   18   27 1    
    21   19   20 2    
    22   20   21 1    
    23   21   22 ar   
    24   21   27 ar   
    25   22   23 1    
    26   22   24 ar   
    27   24   25 ar   
    28   25   26 ar   
    29   26   27 ar   
@<TRIPOS>SUBSTRUCTURE
     1 ADP501      1 GROUP   
@<TRIPOS>SET
ATOM$ORANGE STATIC     ATOMS   COLORGROUP SYSTEM 
20 10 10 11 11 13 13 15 15 17 17 19 19 21 21 22 22 25 \
25 27 27 

