#    Name: 5oes_5_ADP
#    Modification time : Fri May 22 19:24:47 2020

@<TRIPOS>MOLECULE
5oes_5_ADP
   27    29     1     0     1
SMALL
NO_CHARGES


@<TRIPOS>ATOM
      1 PB        119.6930   93.9810  129.6650 P.3       1 ADP501      0.0000 
      2 O1B       119.7350   93.1270  128.4100 O.co2     1 ADP501      0.0000 
      3 O2B       119.1760   93.2730  130.9000 O.co2     1 ADP501      0.0000 
      4 O3B       120.9810   94.7510  129.9050 O.co2     1 ADP501      0.0000 
      5 PA        118.5870   96.6870  129.2700 P.3       1 ADP501      0.0000 
      6 O1A       119.7960   97.1530  128.4800 O.co2     1 ADP501      0.0000 
      7 O2A       117.2090   97.1840  128.8810 O.co2     1 ADP501      0.0000 
      8 O3A       118.5080   95.0560  129.3430 O.3       1 ADP501      0.0000 
      9 O5'       118.8010   97.0970  130.8190 O.3       1 ADP501      0.0000 
     10 C5'       120.0460   97.1590  131.5270 C.3       1 ADP501      0.0000 
     11 C4'       120.0230   98.2990  132.5420 C.3       1 ADP501      0.0000 
     12 O4'       120.4160   99.5290  131.9320 O.3       1 ADP501      0.0000 
     13 C3'       118.6510   98.5770  133.1610 C.3       1 ADP501      0.0000 
     14 O3'       118.4280   97.7700  134.3140 O.3       1 ADP501      0.0000 
     15 C2'       118.6610  100.0600  133.4610 C.3       1 ADP501      0.0000 
     16 O2'       119.1570  100.3540  134.7730 O.3       1 ADP501      0.0000 
     17 C1'       119.5990  100.6140  132.4050 C.3       1 ADP501      0.0000 
     18 N9        118.8630  101.2350  131.2640 N.pl3     1 ADP501      0.0000 
     19 C8        118.3940  100.6240  130.1540 C.2       1 ADP501      0.0000 
     20 N7        117.7820  101.5050  129.3220 N.2       1 ADP501      0.0000 
     21 C5        117.8650  102.7100  129.9000 C.ar      1 ADP501      0.0000 
     22 C6        117.4340  104.0880  129.5670 C.ar      1 ADP501      0.0000 
     23 N6        116.7730  104.3390  128.4170 N.pl3     1 ADP501      0.0000 
     24 N1        117.7220  105.0650  130.4640 N.ar      1 ADP501      0.0000 
     25 C2        118.3860  104.8260  131.6210 C.ar      1 ADP501      0.0000 
     26 N3        118.8030  103.5990  131.9790 N.ar      1 ADP501      0.0000 
     27 C4        118.5790  102.5280  131.1760 C.ar      1 ADP501      0.0000 
@<TRIPOS>BOND
     1    1    2 ar   
     2    1    3 ar   
     3    1    4 ar   
     4    1    8 1    
     5    5    6 ar   
     6    5    7 ar   
     7    5    8 1    
     8    5    9 1    
     9    9   10 1    
    10   10   11 1    
    11   11   12 1    
    12   11   13 1    
    13   12   17 1    
    14   13   14 1    
    15   13   15 1    
    16   15   16 1    
    17   15   17 1    
    18   17   18 1    
    19   18   19 1    
    20   18   27 1    
    21   19   20 2    
    22   20   21 1    
    23   21   22 ar   
    24   21   27 ar   
    25   22   23 1    
    26   22   24 ar   
    27   24   25 ar   
    28   25   26 ar   
    29   26   27 ar   
@<TRIPOS>SUBSTRUCTURE
     1 ADP501      1 GROUP   
@<TRIPOS>SET
ATOM$ORANGE STATIC     ATOMS   COLORGROUP SYSTEM 
20 10 10 11 11 13 13 15 15 17 17 19 19 21 21 22 22 25 \
25 27 27 

