#    Name: 5oes_3_ADP
#    Modification time : Fri May 22 19:24:35 2020

@<TRIPOS>MOLECULE
5oes_3_ADP
   27    29     1     0     1
SMALL
NO_CHARGES


@<TRIPOS>ATOM
      1 PB         37.1430   60.6250   84.8150 P.3       1 ADP501      0.0000 
      2 O1B        36.9930   60.9980   83.3530 O.co2     1 ADP501      0.0000 
      3 O2B        38.1610   61.4660   85.5570 O.co2     1 ADP501      0.0000 
      4 O3B        35.8160   60.4880   85.5450 O.co2     1 ADP501      0.0000 
      5 PA         37.3300   57.8150   84.0110 P.3       1 ADP501      0.0000 
      6 O1A        36.2310   58.1330   83.0150 O.co2     1 ADP501      0.0000 
      7 O2A        38.5820   57.1300   83.5040 O.co2     1 ADP501      0.0000 
      8 O3A        37.8170   59.1380   84.8310 O.3       1 ADP501      0.0000 
      9 O5'        36.6460   56.8710   85.1310 O.3       1 ADP501      0.0000 
     10 C5'        35.8910   57.2910   86.2710 C.3       1 ADP501      0.0000 
     11 C4'        36.0290   56.2710   87.4030 C.3       1 ADP501      0.0000 
     12 O4'        35.5790   54.9710   86.9950 O.3       1 ADP501      0.0000 
     13 C3'        37.4600   56.0590   87.8880 C.3       1 ADP501      0.0000 
     14 O3'        37.8580   56.9860   88.8940 O.3       1 ADP501      0.0000 
     15 C2'        37.4590   54.6350   88.4010 C.3       1 ADP501      0.0000 
     16 O2'        37.0560   54.5540   89.7690 O.3       1 ADP501      0.0000 
     17 C1'        36.4530   53.9450   87.4970 C.3       1 ADP501      0.0000 
     18 N9         37.1820   53.2570   86.3910 N.pl3     1 ADP501      0.0000 
     19 C8         37.7400   53.8260   85.2980 C.2       1 ADP501      0.0000 
     20 N7         38.3270   52.9140   84.4920 N.2       1 ADP501      0.0000 
     21 C5         38.1610   51.7330   85.0860 C.ar      1 ADP501      0.0000 
     22 C6         38.5420   50.3570   84.7730 C.ar      1 ADP501      0.0000 
     23 N6         39.2330   50.1000   83.6400 N.pl3     1 ADP501      0.0000 
     24 N1         38.1650   49.4040   85.6550 N.ar      1 ADP501      0.0000 
     25 C2         37.4700   49.6760   86.7820 C.ar      1 ADP501      0.0000 
     26 N3         37.1010   50.9090   87.1250 N.ar      1 ADP501      0.0000 
     27 C4         37.4120   51.9550   86.3320 C.ar      1 ADP501      0.0000 
@<TRIPOS>BOND
     1    1    2 ar   
     2    1    3 ar   
     3    1    4 ar   
     4    1    8 1    
     5    5    6 ar   
     6    5    7 ar   
     7    5    8 1    
     8    5    9 1    
     9    9   10 1    
    10   10   11 1    
    11   11   12 1    
    12   11   13 1    
    13   12   17 1    
    14   13   14 1    
    15   13   15 1    
    16   15   16 1    
    17   15   17 1    
    18   17   18 1    
    19   18   19 1    
    20   18   27 1    
    21   19   20 2    
    22   20   21 1    
    23   21   22 ar   
    24   21   27 ar   
    25   22   23 1    
    26   22   24 ar   
    27   24   25 ar   
    28   25   26 ar   
    29   26   27 ar   
@<TRIPOS>SUBSTRUCTURE
     1 ADP501      1 GROUP   
@<TRIPOS>SET
ATOM$ORANGE STATIC     ATOMS   COLORGROUP SYSTEM 
20 10 10 11 11 13 13 15 15 17 17 19 19 21 21 22 22 25 \
25 27 27 

