#    Name: 5oip_1_NAD
#    Modification time : Fri May 22 19:12:29 2020

@<TRIPOS>MOLECULE
5oip_1_NAD
   44    48     1     0     1
SMALL
NO_CHARGES


@<TRIPOS>ATOM
      1 PA         48.9560   52.0890  -82.2920 P.3       1 NAD301      0.0000 
      2 O1A        48.9240   53.3950  -81.5950 O.co2     1 NAD301      0.0000 
      3 O2A        50.0270   51.1880  -81.6900 O.co2     1 NAD301      0.0000 
      4 O5B        49.1530   52.2110  -83.8490 O.3       1 NAD301      0.0000 
      5 C5B        48.6380   53.2840  -84.6750 C.3       1 NAD301      0.0000 
      6 C4B        49.7670   53.7870  -85.5390 C.3       1 NAD301      0.0000 
      7 O4B        49.3270   54.8720  -86.3940 O.3       1 NAD301      0.0000 
      8 C3B        50.9950   54.3130  -84.7640 C.3       1 NAD301      0.0000 
      9 O3B        52.1860   53.6080  -85.0990 O.3       1 NAD301      0.0000 
     10 C2B        51.0940   55.7720  -85.2130 C.3       1 NAD301      0.0000 
     11 O2B        52.4220   56.2810  -85.2750 O.3       1 NAD301      0.0000 
     12 C1B        50.4670   55.6750  -86.5950 C.3       1 NAD301      0.0000 
     13 N9A        50.1580   56.9770  -87.1840 N.pl3     1 NAD301      0.0000 
     14 C8A        49.3810   57.9800  -86.6640 C.2       1 NAD301      0.0000 
     15 N7A        49.3430   59.0650  -87.4020 N.2       1 NAD301      0.0000 
     16 C5A        50.1490   58.7530  -88.4870 C.ar      1 NAD301      0.0000 
     17 C6A        50.5350   59.4870  -89.6290 C.ar      1 NAD301      0.0000 
     18 N6A        50.1550   60.7460  -89.8690 N.pl3     1 NAD301      0.0000 
     19 N1A        51.3510   58.8810  -90.5250 N.ar      1 NAD301      0.0000 
     20 C2A        51.7520   57.6260  -90.2840 C.ar      1 NAD301      0.0000 
     21 N3A        51.4600   56.8390  -89.2420 N.ar      1 NAD301      0.0000 
     22 C4A        50.6520   57.4650  -88.3710 C.ar      1 NAD301      0.0000 
     23 O3         47.5510   51.3540  -82.1160 O.3       1 NAD301      0.0000 
     24 PN         46.9430   49.9950  -82.6990 P.3       1 NAD301      0.0000 
     25 O1N        48.0230   49.0010  -82.8930 O.co2     1 NAD301      0.0000 
     26 O2N        45.7850   49.6380  -81.8500 O.co2     1 NAD301      0.0000 
     27 O5D        46.3680   50.5160  -84.0970 O.3       1 NAD301      0.0000 
     28 C5D        46.7190   49.9500  -85.3840 C.3       1 NAD301      0.0000 
     29 C4D        45.4800   49.8260  -86.2500 C.3       1 NAD301      0.0000 
     30 O4D        44.6240   48.7690  -85.7410 O.3       1 NAD301      0.0000 
     31 C3D        44.5880   51.0780  -86.3500 C.3       1 NAD301      0.0000 
     32 O3D        44.0690   51.2010  -87.6770 O.3       1 NAD301      0.0000 
     33 C2D        43.4630   50.7550  -85.3600 C.3       1 NAD301      0.0000 
     34 O2D        42.2650   51.4830  -85.5930 O.3       1 NAD301      0.0000 
     35 C1D        43.3140   49.2620  -85.6310 C.3       1 NAD301      0.0000 
     36 N1N        42.5730   48.4500  -84.5720 N.pl3     1 NAD301      0.0000 
     37 C2N        42.8360   48.5540  -83.2560 C.ar      1 NAD301      0.0000 
     38 C3N        42.1310   47.7880  -82.3440 C.ar      1 NAD301      0.0000 
     39 C7N        42.4130   47.9030  -80.8660 C.2       1 NAD301      0.0000 
     40 O7N        41.5340   47.5780  -80.0480 O.2       1 NAD301      0.0000 
     41 N7N        43.6160   48.3560  -80.4820 N.am      1 NAD301      0.0000 
     42 C4N        41.1500   46.9130  -82.8230 C.ar      1 NAD301      0.0000 
     43 C5N        40.9010   46.8290  -84.1850 C.ar      1 NAD301      0.0000 
     44 C6N        41.6290   47.6140  -85.0550 C.ar      1 NAD301      0.0000 
@<TRIPOS>BOND
     1   15   16 1    
     2   16   17 ar   
     3   16   22 ar   
     4   17   18 1    
     5   17   19 ar   
     6   19   20 ar   
     7   20   21 ar   
     8   21   22 ar   
     9   23   24 1    
    10   24   25 ar   
    11   24   26 ar   
    12   24   27 1    
    13   27   28 1    
    14   28   29 1    
    15   29   30 1    
    16   29   31 1    
    17   30   35 1    
    18   31   32 1    
    19   31   33 1    
    20   33   34 1    
    21   33   35 1    
    22   35   36 1    
    23   36   37 ar   
    24   36   44 ar   
    25   37   38 ar   
    26   38   39 1    
    27   38   42 ar   
    28   39   40 2    
    29   39   41 am   
    30   42   43 ar   
    31   43   44 ar   
    32    1    2 ar   
    33    1    3 ar   
    34    1    4 1    
    35    1   23 1    
    36    4    5 1    
    37    5    6 1    
    38    6    7 1    
    39    6    8 1    
    40    7   12 1    
    41    8    9 1    
    42    8   10 1    
    43   10   11 1    
    44   10   12 1    
    45   12   13 1    
    46   13   14 1    
    47   13   22 1    
    48   14   15 2    
@<TRIPOS>SUBSTRUCTURE
     1 NAD301      1 GROUP   
@<TRIPOS>SET
ATOM$ORANGE STATIC     ATOMS   COLORGROUP SYSTEM 
42 5 5 6 6 8 8 10 10 12 12 14 14 16 16 17 17 20 \
20 22 22 28 28 29 29 31 31 33 33 35 35 37 37 38 38 39 \
39 42 42 43 43 44 44 

