#    Name: 6cxt_1_FAD
#    Modification time : Fri May 22 19:23:41 2020

@<TRIPOS>MOLECULE
6cxt_1_FAD
   53    58     1     0     1
SMALL
NO_CHARGES


@<TRIPOS>ATOM
      1 PA          8.4980   52.5330  141.7250 P.3       1 FAD401      0.0000 
      2 O1A         7.2700   51.7780  142.1970 O.co2     1 FAD401      0.0000 
      3 O2A         8.4730   53.9110  141.0850 O.co2     1 FAD401      0.0000 
      4 O5B         9.5750   52.5100  142.9450 O.3       1 FAD401      0.0000 
      5 C5B        10.7800   53.3100  142.9290 C.3       1 FAD401      0.0000 
      6 C4B        11.3870   53.1480  144.3380 C.3       1 FAD401      0.0000 
      7 O4B        10.4320   53.5880  145.3370 O.3       1 FAD401      0.0000 
      8 C3B        11.7100   51.6870  144.6320 C.3       1 FAD401      0.0000 
      9 O3B        12.8760   51.7440  145.4640 O.3       1 FAD401      0.0000 
     10 C2B        10.5170   51.2470  145.5090 C.3       1 FAD401      0.0000 
     11 O2B        10.7950   50.0980  146.3480 O.3       1 FAD401      0.0000 
     12 C1B        10.1890   52.5600  146.2820 C.3       1 FAD401      0.0000 
     13 N9A         8.7940   52.4900  146.7660 N.pl3     1 FAD401      0.0000 
     14 C8A         7.6560   52.5810  146.0270 C.2       1 FAD401      0.0000 
     15 N7A         6.5570   52.3580  146.8310 N.2       1 FAD401      0.0000 
     16 C5A         7.0050   52.1020  148.0920 C.ar      1 FAD401      0.0000 
     17 C6A         6.4190   51.7990  149.4240 C.ar      1 FAD401      0.0000 
     18 N6A         5.0570   51.6720  149.6070 N.pl3     1 FAD401      0.0000 
     19 N1A         7.2870   51.6110  150.4640 N.ar      1 FAD401      0.0000 
     20 C2A         8.6550   51.6960  150.3350 C.ar      1 FAD401      0.0000 
     21 N3A         9.2350   51.9930  149.1500 N.ar      1 FAD401      0.0000 
     22 C4A         8.4900   52.1920  148.0280 C.ar      1 FAD401      0.0000 
     23 N1          5.6650   44.4700  135.3360 N.2       1 FAD401      0.0000 
     24 C2          4.6270   43.7710  134.7500 C.2       1 FAD401      0.0000 
     25 O2          3.4720   44.2500  134.9190 O.2       1 FAD401      0.0000 
     26 N3          4.7980   42.6360  134.0130 N.am      1 FAD401      0.0000 
     27 C4          6.0310   42.1530  133.7600 C.2       1 FAD401      0.0000 
     28 O4          6.1630   41.1320  133.0840 O.2       1 FAD401      0.0000 
     29 C4X         7.2170   42.8650  134.3500 C.2       1 FAD401      0.0000 
     30 N5          8.4930   42.4760  134.1300 N.2       1 FAD401      0.0000 
     31 C5X         9.5690   43.1610  134.6080 C.ar      1 FAD401      0.0000 
     32 C6         10.8680   42.6690  134.3090 C.ar      1 FAD401      0.0000 
     33 C7         11.9950   43.3760  134.7780 C.ar      1 FAD401      0.0000 
     34 C7M        13.3700   42.8680  134.4230 C.3       1 FAD401      0.0000 
     35 C8         11.8280   44.6030  135.5750 C.ar      1 FAD401      0.0000 
     36 C8M        13.0180   45.3430  136.0880 C.3       1 FAD401      0.0000 
     37 C9         10.5410   45.0790  135.9040 C.ar      1 FAD401      0.0000 
     38 C9A         9.4060   44.3770  135.4380 C.ar      1 FAD401      0.0000 
     39 N10         8.0740   44.8270  135.7080 N.pl3     1 FAD401      0.0000 
     40 C10         6.9700   44.0820  135.1650 C.2       1 FAD401      0.0000 
     41 C1'         7.8180   46.0330  136.4820 C.3       1 FAD401      0.0000 
     42 C2'         8.1050   45.7460  137.9750 C.3       1 FAD401      0.0000 
     43 O2'         7.1310   44.8900  138.5970 O.3       1 FAD401      0.0000 
     44 C3'         8.2910   47.0760  138.6870 C.3       1 FAD401      0.0000 
     45 O3'         9.4990   47.6570  138.1540 O.3       1 FAD401      0.0000 
     46 C4'         8.2530   47.0890  140.2250 C.3       1 FAD401      0.0000 
     47 O4'         6.9080   46.7610  140.7010 O.3       1 FAD401      0.0000 
     48 C5'         8.6390   48.4680  140.7790 C.3       1 FAD401      0.0000 
     49 O5'         7.8400   49.4530  140.1120 O.3       1 FAD401      0.0000 
     50 P           8.5440   50.7170  139.4940 P.3       1 FAD401      0.0000 
     51 O1P         7.4880   51.6510  138.8950 O.co2     1 FAD401      0.0000 
     52 O2P         9.6730   50.3570  138.5470 O.co2     1 FAD401      0.0000 
     53 O3P         9.2300   51.5290  140.6960 O.3       1 FAD401      0.0000 
@<TRIPOS>BOND
     1    1    2 ar   
     2    1    3 ar   
     3    1    4 1    
     4    1   53 1    
     5    4    5 1    
     6    5    6 1    
     7    6    7 1    
     8    6    8 1    
     9    7   12 1    
    10    8    9 1    
    11    8   10 1    
    12   10   11 1    
    13   10   12 1    
    14   12   13 1    
    15   13   14 1    
    16   13   22 1    
    17   14   15 2    
    18   15   16 1    
    19   16   17 ar   
    20   16   22 ar   
    21   17   18 1    
    22   17   19 ar   
    23   19   20 ar   
    24   20   21 ar   
    25   21   22 ar   
    26   23   24 1    
    27   23   40 2    
    28   24   25 2    
    29   24   26 am   
    30   26   27 am   
    31   27   28 2    
    32   27   29 1    
    33   29   30 2    
    34   29   40 1    
    35   30   31 1    
    36   31   32 ar   
    37   31   38 ar   
    38   32   33 ar   
    39   33   34 1    
    40   33   35 ar   
    41   35   36 1    
    42   35   37 ar   
    43   37   38 ar   
    44   38   39 1    
    45   39   40 1    
    46   39   41 1    
    47   41   42 1    
    48   42   43 1    
    49   42   44 1    
    50   44   45 1    
    51   44   46 1    
    52   46   47 1    
    53   46   48 1    
    54   48   49 1    
    55   49   50 1    
    56   50   51 ar   
    57   50   52 ar   
    58   50   53 1    
@<TRIPOS>SUBSTRUCTURE
     1 FAD401      1 GROUP   
@<TRIPOS>SET
ATOM$ORANGE STATIC     ATOMS   COLORGROUP SYSTEM 
54 5 5 6 6 8 8 10 10 12 12 14 14 16 16 17 17 20 \
20 22 22 24 24 27 27 29 29 31 31 32 32 33 33 34 34 35 \
35 36 36 37 37 38 38 40 40 41 41 42 42 44 44 46 46 48 \
48 

