#    Name: 5os7_1_ATP
#    Modification time : Fri May 22 19:13:15 2020

@<TRIPOS>MOLECULE
5os7_1_ATP
   18    20     1     0     1
SMALL
NO_CHARGES


@<TRIPOS>ATOM
      1 C5'        11.0030  131.9240  356.3190 C.3       1 ATP406      0.0000 
      2 C4'         9.8040  131.0900  356.6990 C.3       1 ATP406      0.0000 
      3 O4'         9.6610  131.0750  358.1340 O.3       1 ATP406      0.0000 
      4 C3'         8.4560  131.5180  356.1140 C.3       1 ATP406      0.0000 
      5 O3'         7.7770  130.4410  355.4750 O.3       1 ATP406      0.0000 
      6 C2'         7.6930  132.0930  357.3170 C.3       1 ATP406      0.0000 
      7 O2'         6.3090  131.7530  357.2910 O.3       1 ATP406      0.0000 
      8 C1'         8.3330  131.3780  358.5050 C.3       1 ATP406      0.0000 
      9 N9          8.3690  132.1740  359.7320 N.pl3     1 ATP406      0.0000 
     10 C8          9.4910  132.6240  360.3800 C.2       1 ATP406      0.0000 
     11 N7          9.2430  133.2800  361.4880 N.2       1 ATP406      0.0000 
     12 C5          7.8590  133.2660  361.5760 C.ar      1 ATP406      0.0000 
     13 C6          6.9640  133.7780  362.5390 C.ar      1 ATP406      0.0000 
     14 N6          7.3550  134.3790  363.6670 N.pl3     1 ATP406      0.0000 
     15 N1          5.6370  133.5970  362.3240 N.ar      1 ATP406      0.0000 
     16 C2          5.2470  132.9250  361.2330 C.ar      1 ATP406      0.0000 
     17 N3          5.9990  132.3810  360.2710 N.ar      1 ATP406      0.0000 
     18 C4          7.3050  132.5920  360.4980 C.ar      1 ATP406      0.0000 
@<TRIPOS>BOND
     1    1    2 1    
     2    2    3 1    
     3    2    4 1    
     4    3    8 1    
     5    4    5 1    
     6    4    6 1    
     7    6    7 1    
     8    6    8 1    
     9    8    9 1    
    10    9   10 1    
    11    9   18 1    
    12   10   11 2    
    13   11   12 1    
    14   12   13 ar   
    15   12   18 ar   
    16   13   14 1    
    17   13   15 ar   
    18   15   16 ar   
    19   16   17 ar   
    20   17   18 ar   
@<TRIPOS>SUBSTRUCTURE
     1 ATP406      1 GROUP   
@<TRIPOS>SET
ATOM$ORANGE STATIC     ATOMS   COLORGROUP SYSTEM 
20 1 1 2 2 4 4 6 6 8 8 10 10 12 12 13 13 16 \
16 18 18 

