#    Name: 6aan_1_ATP_CAVITY_N1_4
#    Modification time : Fri May 22 19:23:44 2020

@<TRIPOS>MOLECULE
6aan_1_ATP_CAVITY_N1_4
   74     0     6     0     0
SMALL
NO_CHARGES


@<TRIPOS>ATOM
      1 N         -31.2500    2.8700   20.5900 N.am      1 ALA2        0.0000 
      2 O         -29.9600    4.2400   19.6000 O.2       1 ALA2        0.0000 
      3 N         -33.3700    2.0100   23.4600 N.am      1 ALA2        0.0000 
      4 N         -31.9800    1.9400   22.9000 N.am      1 ALA2        0.0000 
      5 N         -30.5900    1.8800   22.3400 N.am      1 ALA2        0.0000 
      6 O         -29.5100    6.1100   20.4900 O.2       1 ALA2        0.0000 
      7 O         -29.4100    4.6700   20.9200 O.2       1 ALA2        0.0000 
      8 O         -31.4300    2.3800   24.2300 O.2       1 ALA2        0.0000 
      9 N         -32.6500    5.2600   28.8800 N.am      1 ALA2        0.0000 
     10 OD1       -33.6100    8.2300   18.1000 O.co2     2 ASP3        0.0000 
     11 OD1       -34.5500   10.1700   19.5500 O.co2     2 ASP3        0.0000 
     12 OD1       -34.4400    8.7400   19.9800 O.co2     2 ASP3        0.0000 
     13 OD1       -33.0500    8.6700   19.4200 O.co2     2 ASP3        0.0000 
     14 OD1       -31.4500    5.7400   19.7300 O.co2     2 ASP3        0.0000 
     15 OD1       -37.9500    7.9500   23.4200 O.co2     2 ASP3        0.0000 
     16 OD1       -36.5600    7.8800   22.8600 O.co2     2 ASP3        0.0000 
     17 OD1       -36.4600    6.4500   23.2900 O.co2     2 ASP3        0.0000 
     18 OD1       -35.1700    7.8100   22.3000 O.co2     2 ASP3        0.0000 
     19 OD1       -35.0700    6.3800   22.7300 O.co2     2 ASP3        0.0000 
     20 OD1       -33.7800    7.7400   21.7400 O.co2     2 ASP3        0.0000 
     21 OD1       -33.6800    6.3100   22.1700 O.co2     2 ASP3        0.0000 
     22 OD1       -32.5000    9.1100   20.7500 O.co2     2 ASP3        0.0000 
     23 OD1       -32.3900    7.6800   21.1800 O.co2     2 ASP3        0.0000 
     24 OD1       -32.2900    6.2400   21.6100 O.co2     2 ASP3        0.0000 
     25 OD1       -31.1100    9.0400   20.1900 O.co2     2 ASP3        0.0000 
     26 OD1       -31.0000    7.6100   20.6200 O.co2     2 ASP3        0.0000 
     27 OD1       -30.9000    6.1700   21.0500 O.co2     2 ASP3        0.0000 
     28 OD1       -35.9100    6.8800   24.6100 O.co2     2 ASP3        0.0000 
     29 OD1       -34.5200    6.8200   24.0500 O.co2     2 ASP3        0.0000 
     30 OD1       -34.4100    5.3800   24.4800 O.co2     2 ASP3        0.0000 
     31 OD1       -33.1300    6.7500   23.4900 O.co2     2 ASP3        0.0000 
     32 OD1       -33.0200    5.3100   23.9200 O.co2     2 ASP3        0.0000 
     33 OD1       -32.9200    3.8800   24.3500 O.co2     2 ASP3        0.0000 
     34 OD1       -32.8200    2.4500   24.7800 O.co2     2 ASP3        0.0000 
     35 OD1       -31.7400    6.6800   22.9300 O.co2     2 ASP3        0.0000 
     36 OD1       -30.2400    5.1800   22.8000 O.co2     2 ASP3        0.0000 
     37 OD1       -28.8500    5.1100   22.2400 O.co2     2 ASP3        0.0000 
     38 OD1       -32.4700    5.7500   25.2500 O.co2     2 ASP3        0.0000 
     39 OD1       -32.3700    4.3200   25.6800 O.co2     2 ASP3        0.0000 
     40 OD1       -32.2600    2.8900   26.1100 O.co2     2 ASP3        0.0000 
     41 OD1       -31.1800    7.1200   24.2600 O.co2     2 ASP3        0.0000 
     42 OD1       -31.9200    6.1900   26.5700 O.co2     2 ASP3        0.0000 
     43 OD1       -31.8100    4.7600   27.0000 O.co2     2 ASP3        0.0000 
     44 OD1       -31.7100    3.3200   27.4300 O.co2     2 ASP3        0.0000 
     45 NZ        -32.2200    8.1700   17.5400 N.4       3 LYS4        0.0000 
     46 NZ        -31.6600    8.6000   18.8700 N.4       3 LYS4        0.0000 
     47 NZ        -31.5600    7.1700   19.3000 N.4       3 LYS4        0.0000 
     48 NZ        -34.9700    4.9500   23.1600 N.4       3 LYS4        0.0000 
     49 NZ        -33.5800    4.8800   22.6000 N.4       3 LYS4        0.0000 
     50 NZ        -33.4700    3.4400   23.0300 N.4       3 LYS4        0.0000 
     51 NZ        -32.1900    4.8100   22.0400 N.4       3 LYS4        0.0000 
     52 NZ        -32.0800    3.3800   22.4700 N.4       3 LYS4        0.0000 
     53 NZ        -29.7200    8.9700   19.6300 N.4       3 LYS4        0.0000 
     54 NZ        -29.6100    7.5400   20.0600 N.4       3 LYS4        0.0000 
     55 CZ        -31.0800    5.6800   24.6900 C.ar      4 PHE5        0.0000 
     56 CZ        -29.6900    5.6200   24.1300 C.ar      4 PHE5        0.0000 
     57 CZ        -30.5300    6.1200   26.0100 C.ar      4 PHE5        0.0000 
     58 CZ        -30.4200    4.6900   26.4400 C.ar      4 PHE5        0.0000 
     59 CZ        -30.3200    3.2600   26.8700 C.ar      4 PHE5        0.0000 
     60 CZ        -31.3600    6.6300   27.8900 C.ar      4 PHE5        0.0000 
     61 CZ        -31.2600    5.2000   28.3200 C.ar      4 PHE5        0.0000 
     62 CA        -35.1000    9.7300   18.2300 C.3       5 GLY6        0.0000 
     63 CA        -31.3500    4.3000   20.1600 C.3       5 GLY6        0.0000 
     64 CA        -31.2100   10.4700   19.7600 C.3       5 GLY6        0.0000 
     65 CA        -30.6900    3.3100   21.9100 C.3       5 GLY6        0.0000 
     66 CA        -29.3000    3.2400   21.3500 C.3       5 GLY6        0.0000 
     67 CA        -31.5300    3.8100   23.7900 C.3       5 GLY6        0.0000 
     68 CA        -30.1400    3.7500   23.2400 C.3       5 GLY6        0.0000 
     69 CA        -30.9800    4.2500   25.1200 C.3       5 GLY6        0.0000 
     70 CA        -30.8700    2.8200   25.5500 C.3       5 GLY6        0.0000 
     71 CA        -32.7500    6.7000   28.4500 C.3       5 GLY6        0.0000 
     72 DU        -33.1500   10.1000   18.9900 H         6 CUB7        0.0000 
     73 DU        -30.8000    4.7400   21.4800 H         6 CUB7        0.0000 
     74 DU        -31.6300    5.2500   23.3600 H         6 CUB7        0.0000 
@<TRIPOS>BOND
@<TRIPOS>SUBSTRUCTURE
     1 ALA2        1 GROUP   
     2 ASP3       10 GROUP   
     3 LYS4       45 GROUP   
     4 PHE5       55 GROUP   
     5 GLY6       62 GROUP   
     6 CUB7       72 GROUP   
@<TRIPOS>SET

