#    Name: 6aan_1_ATP
#    Modification time : Fri May 22 19:23:42 2020

@<TRIPOS>MOLECULE
6aan_1_ATP
   31    33     1     0     1
SMALL
NO_CHARGES


@<TRIPOS>ATOM
      1 PG        -35.9360    7.1930   23.5360 P.3       1 ATP504      0.0000 
      2 O1G       -36.7680    7.4600   22.2960 O.co2     1 ATP504      0.0000 
      3 O2G       -35.5080    8.4690   24.1940 O.co2     1 ATP504      0.0000 
      4 O3G       -36.6310    6.2070   24.4440 O.co2     1 ATP504      0.0000 
      5 PB        -33.5950    7.3110   21.8680 P.3       1 ATP504      0.0000 
      6 O1B       -34.2750    6.9570   20.5610 O.co2     1 ATP504      0.0000 
      7 O2B       -33.6070    8.7440   22.3100 O.co2     1 ATP504      0.0000 
      8 O3B       -34.4940    6.5560   23.0180 O.3       1 ATP504      0.0000 
      9 PA        -31.0660    6.1040   20.6270 P.3       1 ATP504      0.0000 
     10 O1A       -31.9450    5.5050   19.5460 O.co2     1 ATP504      0.0000 
     11 O2A       -29.6380    6.4480   20.3480 O.co2     1 ATP504      0.0000 
     12 O3A       -31.9810    6.8910   21.7680 O.3       1 ATP504      0.0000 
     13 O5'       -30.8640    4.9410   21.6720 O.3       1 ATP504      0.0000 
     14 C5'       -30.7730    3.5520   21.3800 C.3       1 ATP504      0.0000 
     15 C4'       -31.2360    2.8840   22.6860 C.3       1 ATP504      0.0000 
     16 O4'       -30.5030    3.3740   23.8100 O.3       1 ATP504      0.0000 
     17 C3'       -32.6800    3.1620   23.0800 C.3       1 ATP504      0.0000 
     18 O3'       -33.5870    2.3430   22.3210 O.3       1 ATP504      0.0000 
     19 C2'       -32.6980    2.8840   24.5680 C.3       1 ATP504      0.0000 
     20 O2'       -32.7680    1.4620   24.7510 O.3       1 ATP504      0.0000 
     21 C1'       -31.3210    3.3470   24.9830 C.3       1 ATP504      0.0000 
     22 N9        -31.3580    4.7020   25.5740 N.pl3     1 ATP504      0.0000 
     23 C8        -31.3050    5.8700   24.8850 C.2       1 ATP504      0.0000 
     24 N7        -31.3750    6.9370   25.7320 N.2       1 ATP504      0.0000 
     25 C5        -31.4520    6.4470   26.9750 C.ar      1 ATP504      0.0000 
     26 C6        -31.5290    7.0170   28.3060 C.ar      1 ATP504      0.0000 
     27 N6        -31.5160    8.3530   28.5070 N.pl3     1 ATP504      0.0000 
     28 N1        -31.6050    6.1570   29.3370 N.ar      1 ATP504      0.0000 
     29 C2        -31.6040    4.8140   29.1930 C.ar      1 ATP504      0.0000 
     30 N3        -31.5280    4.2350   28.0090 N.ar      1 ATP504      0.0000 
     31 C4        -31.4420    4.9780   26.8770 C.ar      1 ATP504      0.0000 
@<TRIPOS>BOND
     1    1    2 ar   
     2    1    3 ar   
     3    1    4 ar   
     4    1    8 1    
     5    5    6 ar   
     6    5    7 ar   
     7    5    8 1    
     8    5   12 1    
     9    9   10 ar   
    10    9   11 ar   
    11    9   12 1    
    12    9   13 1    
    13   13   14 1    
    14   14   15 1    
    15   15   16 1    
    16   15   17 1    
    17   16   21 1    
    18   17   18 1    
    19   17   19 1    
    20   19   20 1    
    21   19   21 1    
    22   21   22 1    
    23   22   23 1    
    24   22   31 1    
    25   23   24 2    
    26   24   25 1    
    27   25   26 ar   
    28   25   31 ar   
    29   26   27 1    
    30   26   28 ar   
    31   28   29 ar   
    32   29   30 ar   
    33   30   31 ar   
@<TRIPOS>SUBSTRUCTURE
     1 ATP504      1 GROUP   
@<TRIPOS>SET
ATOM$ORANGE STATIC     ATOMS   COLORGROUP SYSTEM 
20 14 14 15 15 17 17 19 19 21 21 23 23 25 25 26 26 29 \
29 31 31 

