#    Name: 5z7j_2_36J
#    Modification time : Fri May 22 19:30:05 2020

@<TRIPOS>MOLECULE
5z7j_2_36J
   23    24     1     0     0
SMALL
NO_CHARGES


@<TRIPOS>ATOM
      1 CAO        29.2620  -21.4060  -10.4420           1 36J301      0.0000 
      2 CAL        29.6710  -19.9410  -10.4820           1 36J301      0.0000 
      3 CAM        28.5770  -19.0210  -11.0060           1 36J301      0.0000 
      4 CAV        28.7170  -17.5540  -10.6490           1 36J301      0.0000 
      5 CAA        30.1480  -17.1130  -10.4670           1 36J301      0.0000 
      6 OAP        28.0000  -17.3960   -9.3730           1 36J301      0.0000 
      7 CAQ        27.7830  -16.1470   -8.9340           1 36J301      0.0000 
      8 OAB        27.5730  -15.2230   -9.6730           1 36J301      0.0000 
      9 CAU        27.8590  -16.0010   -7.4650           1 36J301      0.0000 
     10 CAS        28.1750  -14.7140   -6.9710           1 36J301      0.0000 
     11 OAD        28.3780  -13.6860   -7.8240           1 36J301      0.0000 
     12 CAH        28.2790  -14.4770   -5.6130           1 36J301      0.0000 
     13 CAR        28.0690  -15.5130   -4.7160           1 36J301      0.0000 
     14 OAC        28.1730  -15.2840   -3.3760           1 36J301      0.0000 
     15 CAI        27.7590  -16.7890   -5.1660           1 36J301      0.0000 
     16 CAT        27.6460  -17.0550   -6.5300           1 36J301      0.0000 
     17 CAG        27.3150  -18.4290   -6.9390           1 36J301      0.0000 
     18 CAF        26.6900  -19.3530   -6.2320           1 36J301      0.0000 
     19 CAJ        26.2660  -20.6980   -6.7300           1 36J301      0.0000 
     20 CAK        27.4240  -21.6240   -7.0790           1 36J301      0.0000 
     21 CAN        27.5950  -21.8400   -8.5770           1 36J301      0.0000 
     22 CAW        29.0320  -21.9750   -9.0520           1 36J301      0.0000 
     23 OAE        29.4200  -23.3590   -9.0310           1 36J301      0.0000 
@<TRIPOS>BOND
     1    1    2 du   
     2    1   22 du   
     3    2    3 du   
     4    3    4 du   
     5    4    5 du   
     6    4    6 du   
     7    6    7 du   
     8    7    8 du   
     9    7    9 du   
    10    9   10 du   
    11    9   16 du   
    12   10   11 du   
    13   10   12 du   
    14   12   13 du   
    15   13   14 du   
    16   13   15 du   
    17   15   16 du   
    18   16   17 du   
    19   17   18 du   
    20   18   19 du   
    21   19   20 du   
    22   20   21 du   
    23   21   22 du   
    24   22   23 du   
@<TRIPOS>SUBSTRUCTURE
     1 36J301      1 GROUP   
@<TRIPOS>SET

