#    Name: 5z7j_6_36J
#    Modification time : Fri May 22 19:30:24 2020

@<TRIPOS>MOLECULE
5z7j_6_36J
   23    24     1     0     0
SMALL
NO_CHARGES


@<TRIPOS>ATOM
      1 CAO        19.1630  -19.7450   44.3180           1 36J301      0.0000 
      2 CAL        18.3050  -19.3820   43.1130           1 36J301      0.0000 
      3 CAM        19.1000  -18.7500   41.9800           1 36J301      0.0000 
      4 CAV        18.5460  -18.9630   40.5860           1 36J301      0.0000 
      5 CAA        17.0520  -18.7660   40.4960           1 36J301      0.0000 
      6 OAP        18.8610  -20.3630   40.2580           1 36J301      0.0000 
      7 CAQ        18.6440  -20.7670   38.9970           1 36J301      0.0000 
      8 OAB        18.8100  -20.0570   38.0420           1 36J301      0.0000 
      9 CAU        18.1650  -22.1630   38.8990           1 36J301      0.0000 
     10 CAS        17.4090  -22.5000   37.7500           1 36J301      0.0000 
     11 OAD        17.1600  -21.5880   36.7800           1 36J301      0.0000 
     12 CAH        16.9060  -23.7770   37.5760           1 36J301      0.0000 
     13 CAR        17.1400  -24.7450   38.5400           1 36J301      0.0000 
     14 OAC        16.6470  -26.0050   38.3680           1 36J301      0.0000 
     15 CAI        17.8790  -24.4490   39.6790           1 36J301      0.0000 
     16 CAT        18.3960  -23.1690   39.8800           1 36J301      0.0000 
     17 CAG        19.1660  -22.9210   41.1110           1 36J301      0.0000 
     18 CAF        19.7130  -23.8100   41.9210           1 36J301      0.0000 
     19 CAJ        20.7390  -23.5310   42.9740           1 36J301      0.0000 
     20 CAK        20.1670  -23.0520   44.3050           1 36J301      0.0000 
     21 CAN        18.8770  -22.2590   44.1620           1 36J301      0.0000 
     22 CAW        18.7690  -21.0220   45.0390           1 36J301      0.0000 
     23 OAE        19.5800  -21.1820   46.2150           1 36J301      0.0000 
@<TRIPOS>BOND
     1    1    2 du   
     2    1   22 du   
     3    2    3 du   
     4    3    4 du   
     5    4    5 du   
     6    4    6 du   
     7    6    7 du   
     8    7    8 du   
     9    7    9 du   
    10    9   10 du   
    11    9   16 du   
    12   10   11 du   
    13   10   12 du   
    14   12   13 du   
    15   13   14 du   
    16   13   15 du   
    17   15   16 du   
    18   16   17 du   
    19   17   18 du   
    20   18   19 du   
    21   19   20 du   
    22   20   21 du   
    23   21   22 du   
    24   22   23 du   
@<TRIPOS>SUBSTRUCTURE
     1 36J301      1 GROUP   
@<TRIPOS>SET

