#    Name: 5z7j_1_36J
#    Modification time : Fri May 22 19:30:01 2020

@<TRIPOS>MOLECULE
5z7j_1_36J
   23    24     1     0     0
SMALL
NO_CHARGES


@<TRIPOS>ATOM
      1 CAO        -8.2570    4.1020    5.9780           1 36J301      0.0000 
      2 CAL        -7.9200    2.6250    6.1300           1 36J301      0.0000 
      3 CAM        -9.0980    1.7640    6.5670           1 36J301      0.0000 
      4 CAV        -8.9900    0.2850    6.2490           1 36J301      0.0000 
      5 CAA        -7.5680   -0.2120    6.1590           1 36J301      0.0000 
      6 OAP        -9.6340    0.1210    4.9350           1 36J301      0.0000 
      7 CAQ        -9.8630   -1.1300    4.5140           1 36J301      0.0000 
      8 OAB       -10.1080   -2.0310    5.2710           1 36J301      0.0000 
      9 CAU        -9.7570   -1.3140    3.0490           1 36J301      0.0000 
     10 CAS        -9.4190   -2.6100    2.5940           1 36J301      0.0000 
     11 OAD        -9.2160   -3.6170    3.4710           1 36J301      0.0000 
     12 CAH        -9.2900   -2.8820    1.2460           1 36J301      0.0000 
     13 CAR        -9.4990   -1.8740    0.3180           1 36J301      0.0000 
     14 OAC        -9.3720   -2.1340   -1.0120           1 36J301      0.0000 
     15 CAI        -9.8330   -0.5910    0.7290           1 36J301      0.0000 
     16 CAT        -9.9700   -0.2900    2.0830           1 36J301      0.0000 
     17 CAG       -10.3220    1.0890    2.4460           1 36J301      0.0000 
     18 CAF       -10.7480    2.0250    1.6200           1 36J301      0.0000 
     19 CAJ       -11.2590    3.3710    2.0190           1 36J301      0.0000 
     20 CAK       -10.1840    4.2870    2.5840           1 36J301      0.0000 
     21 CAN        -9.9030    4.0330    4.0560           1 36J301      0.0000 
     22 CAW        -8.5720    4.5520    4.5590           1 36J301      0.0000 
     23 OAE        -8.5590    5.9870    4.4850           1 36J301      0.0000 
@<TRIPOS>BOND
     1    1    2 du   
     2    1   22 du   
     3    2    3 du   
     4    3    4 du   
     5    4    5 du   
     6    4    6 du   
     7    6    7 du   
     8    7    8 du   
     9    7    9 du   
    10    9   10 du   
    11    9   16 du   
    12   10   11 du   
    13   10   12 du   
    14   12   13 du   
    15   13   14 du   
    16   13   15 du   
    17   15   16 du   
    18   16   17 du   
    19   17   18 du   
    20   18   19 du   
    21   19   20 du   
    22   20   21 du   
    23   21   22 du   
    24   22   23 du   
@<TRIPOS>SUBSTRUCTURE
     1 36J301      1 GROUP   
@<TRIPOS>SET

