#    Name: 5z7j_8_36J
#    Modification time : Fri May 22 19:30:33 2020

@<TRIPOS>MOLECULE
5z7j_8_36J
   23    24     1     0     0
SMALL
NO_CHARGES


@<TRIPOS>ATOM
      1 CAO       -19.5300    3.1880   49.0920           1 36J301      0.0000 
      2 CAL       -20.3430    3.0010   50.3650           1 36J301      0.0000 
      3 CAM       -19.5300    2.4380   51.5220           1 36J301      0.0000 
      4 CAV       -20.1100    2.6470   52.9070           1 36J301      0.0000 
      5 CAA       -21.5440    2.1930   53.0380           1 36J301      0.0000 
      6 OAP       -20.0490    4.0980   53.1440           1 36J301      0.0000 
      7 CAQ       -20.3520    4.5320   54.3770           1 36J301      0.0000 
      8 OAB       -20.2740    3.8240   55.3460           1 36J301      0.0000 
      9 CAU       -20.8310    5.9310   54.4390           1 36J301      0.0000 
     10 CAS       -21.6980    6.2590   55.5070           1 36J301      0.0000 
     11 OAD       -22.0500    5.3310   56.4280           1 36J301      0.0000 
     12 CAH       -22.2070    7.5370   55.6470           1 36J301      0.0000 
     13 CAR       -21.8650    8.5180   54.7300           1 36J301      0.0000 
     14 OAC       -22.3680    9.7770   54.8690           1 36J301      0.0000 
     15 CAI       -21.0160    8.2310   53.6700           1 36J301      0.0000 
     16 CAT       -20.4910    6.9500   53.5030           1 36J301      0.0000 
     17 CAG       -19.5920    6.7200   52.3600           1 36J301      0.0000 
     18 CAF       -18.6430    7.5610   51.9870           1 36J301      0.0000 
     19 CAJ       -17.6950    7.4430   50.8360           1 36J301      0.0000 
     20 CAK       -18.3080    6.8400   49.5790           1 36J301      0.0000 
     21 CAN       -18.2310    5.3200   49.5520           1 36J301      0.0000 
     22 CAW       -19.2750    4.6330   48.6880           1 36J301      0.0000 
     23 OAE       -18.8730    4.6910   47.3090           1 36J301      0.0000 
@<TRIPOS>BOND
     1    1    2 du   
     2    1   22 du   
     3    2    3 du   
     4    3    4 du   
     5    4    5 du   
     6    4    6 du   
     7    6    7 du   
     8    7    8 du   
     9    7    9 du   
    10    9   10 du   
    11    9   16 du   
    12   10   11 du   
    13   10   12 du   
    14   12   13 du   
    15   13   14 du   
    16   13   15 du   
    17   15   16 du   
    18   16   17 du   
    19   17   18 du   
    20   18   19 du   
    21   19   20 du   
    22   20   21 du   
    23   21   22 du   
    24   22   23 du   
@<TRIPOS>SUBSTRUCTURE
     1 36J301      1 GROUP   
@<TRIPOS>SET

