#    Name: 5z7j_7_36J
#    Modification time : Fri May 22 19:30:28 2020

@<TRIPOS>MOLECULE
5z7j_7_36J
   23    24     1     0     0
SMALL
NO_CHARGES


@<TRIPOS>ATOM
      1 CAO        39.0310  -29.4360   60.0350           1 36J301      0.0000 
      2 CAL        39.4230  -29.9830   61.4050           1 36J301      0.0000 
      3 CAM        40.8300  -30.5580   61.4680           1 36J301      0.0000 
      4 CAV        40.9390  -32.0660   61.3390           1 36J301      0.0000 
      5 CAA        42.0110  -32.6690   62.2140           1 36J301      0.0000 
      6 OAP        41.2800  -32.3150   59.9290           1 36J301      0.0000 
      7 CAQ        42.0690  -33.3660   59.6530           1 36J301      0.0000 
      8 OAB        41.9160  -34.4460   60.1590           1 36J301      0.0000 
      9 CAU        43.1470  -33.0710   58.6790           1 36J301      0.0000 
     10 CAS        44.3150  -33.8700   58.7560           1 36J301      0.0000 
     11 OAD        44.4290  -34.8650   59.6640           1 36J301      0.0000 
     12 CAH        45.3790  -33.6620   57.8990           1 36J301      0.0000 
     13 CAR        45.3090  -32.6590   56.9460           1 36J301      0.0000 
     14 OAC        46.3520  -32.4490   56.0970           1 36J301      0.0000 
     15 CAI        44.1800  -31.8580   56.8410           1 36J301      0.0000 
     16 CAT        43.0920  -32.0450   57.6920           1 36J301      0.0000 
     17 CAG        41.9320  -31.1570   57.5260           1 36J301      0.0000 
     18 CAF        41.3520  -30.8800   56.3720           1 36J301      0.0000 
     19 CAJ        40.3920  -29.7740   56.0770           1 36J301      0.0000 
     20 CAK        39.5700  -29.3310   57.2810           1 36J301      0.0000 
     21 CAN        40.2520  -28.2700   58.1300           1 36J301      0.0000 
     22 CAW        39.8020  -28.2040   59.5820           1 36J301      0.0000 
     23 OAE        39.0130  -27.0210   59.7960           1 36J301      0.0000 
@<TRIPOS>BOND
     1    1    2 du   
     2    1   22 du   
     3    2    3 du   
     4    3    4 du   
     5    4    5 du   
     6    4    6 du   
     7    6    7 du   
     8    7    8 du   
     9    7    9 du   
    10    9   10 du   
    11    9   16 du   
    12   10   11 du   
    13   10   12 du   
    14   12   13 du   
    15   13   14 du   
    16   13   15 du   
    17   15   16 du   
    18   16   17 du   
    19   17   18 du   
    20   18   19 du   
    21   19   20 du   
    22   20   21 du   
    23   21   22 du   
    24   22   23 du   
@<TRIPOS>SUBSTRUCTURE
     1 36J301      1 GROUP   
@<TRIPOS>SET

