#    Name: 5z7j_3_36J
#    Modification time : Fri May 22 19:30:10 2020

@<TRIPOS>MOLECULE
5z7j_3_36J
   23    24     1     0     0
SMALL
NO_CHARGES


@<TRIPOS>ATOM
      1 CAO       -23.3660   26.8080    1.0990           1 36J301      0.0000 
      2 CAL       -24.4590   27.5800    0.3690           1 36J301      0.0000 
      3 CAM       -24.7880   27.0100   -1.0030           1 36J301      0.0000 
      4 CAV       -26.1210   27.4240   -1.5950           1 36J301      0.0000 
      5 CAA       -26.6790   28.6950   -1.0020           1 36J301      0.0000 
      6 OAP       -27.0400   26.3120   -1.2990           1 36J301      0.0000 
      7 CAQ       -28.2940   26.4110   -1.7610           1 36J301      0.0000 
      8 OAB       -28.5600   26.9580   -2.7990           1 36J301      0.0000 
      9 CAU       -29.3240   25.8380   -0.8640           1 36J301      0.0000 
     10 CAS       -30.6510   26.2970   -1.0450           1 36J301      0.0000 
     11 OAD       -30.9430   27.2010   -2.0080           1 36J301      0.0000 
     12 CAH       -31.6810   25.8350   -0.2460           1 36J301      0.0000 
     13 CAR       -31.4180   24.9040    0.7450           1 36J301      0.0000 
     14 OAC       -32.4280   24.4470    1.5360           1 36J301      0.0000 
     15 CAI       -30.1290   24.4330    0.9510           1 36J301      0.0000 
     16 CAT       -29.0710   24.8830    0.1630           1 36J301      0.0000 
     17 CAG       -27.7330   24.3390    0.4380           1 36J301      0.0000 
     18 CAF       -27.4960   23.1470    0.9580           1 36J301      0.0000 
     19 CAJ       -26.1780   22.6140    1.4200           1 36J301      0.0000 
     20 CAK       -25.3460   23.6240    2.2010           1 36J301      0.0000 
     21 CAN       -24.6490   24.6360    1.3050           1 36J301      0.0000 
     22 CAW       -23.8570   25.7090    2.0270           1 36J301      0.0000 
     23 OAE       -22.7420   25.1080    2.7070           1 36J301      0.0000 
@<TRIPOS>BOND
     1    1    2 du   
     2    1   22 du   
     3    2    3 du   
     4    3    4 du   
     5    4    5 du   
     6    4    6 du   
     7    6    7 du   
     8    7    8 du   
     9    7    9 du   
    10    9   10 du   
    11    9   16 du   
    12   10   11 du   
    13   10   12 du   
    14   12   13 du   
    15   13   14 du   
    16   13   15 du   
    17   15   16 du   
    18   16   17 du   
    19   17   18 du   
    20   18   19 du   
    21   19   20 du   
    22   20   21 du   
    23   21   22 du   
    24   22   23 du   
@<TRIPOS>SUBSTRUCTURE
     1 36J301      1 GROUP   
@<TRIPOS>SET

