#    Name: 5z7j_5_36J
#    Modification time : Fri May 22 19:30:19 2020

@<TRIPOS>MOLECULE
5z7j_5_36J
   23    24     1     0     0
SMALL
NO_CHARGES


@<TRIPOS>ATOM
      1 CAO         3.5730   11.8830   36.4940           1 36J301      0.0000 
      2 CAL         4.7380   12.5170   35.7430           1 36J301      0.0000 
      3 CAM         4.5000   13.9700   35.3630           1 36J301      0.0000 
      4 CAV         5.6580   14.9190   35.6050           1 36J301      0.0000 
      5 CAA         6.9910   14.3640   35.1650           1 36J301      0.0000 
      6 OAP         5.6820   15.1410   37.0600           1 36J301      0.0000 
      7 CAQ         6.4050   16.1760   37.5180           1 36J301      0.0000 
      8 OAB         6.3890   17.2610   36.9990           1 36J301      0.0000 
      9 CAU         7.2420   15.8560   38.6980           1 36J301      0.0000 
     10 CAS         8.4630   16.5630   38.8260           1 36J301      0.0000 
     11 OAD         8.8340   17.4930   37.9220           1 36J301      0.0000 
     12 CAH         9.3170   16.3260   39.8870           1 36J301      0.0000 
     13 CAR         8.9790   15.3850   40.8450           1 36J301      0.0000 
     14 OAC         9.8210   15.1500   41.8890           1 36J301      0.0000 
     15 CAI         7.7910   14.6730   40.7520           1 36J301      0.0000 
     16 CAT         6.9110   14.8900   39.6930           1 36J301      0.0000 
     17 CAG         5.6720   14.1010   39.6580           1 36J301      0.0000 
     18 CAF         5.1910   13.3650   40.6440           1 36J301      0.0000 
     19 CAJ         3.9020   12.6100   40.6290           1 36J301      0.0000 
     20 CAK         4.0040   11.2360   39.9780           1 36J301      0.0000 
     21 CAN         4.7500   11.2520   38.6500           1 36J301      0.0000 
     22 CAW         3.9480   10.7680   37.4570           1 36J301      0.0000 
     23 OAE         2.7570   10.1150   37.9290           1 36J301      0.0000 
@<TRIPOS>BOND
     1    1    2 du   
     2    1   22 du   
     3    2    3 du   
     4    3    4 du   
     5    4    5 du   
     6    4    6 du   
     7    6    7 du   
     8    7    8 du   
     9    7    9 du   
    10    9   10 du   
    11    9   16 du   
    12   10   11 du   
    13   10   12 du   
    14   12   13 du   
    15   13   14 du   
    16   13   15 du   
    17   15   16 du   
    18   16   17 du   
    19   17   18 du   
    20   18   19 du   
    21   19   20 du   
    22   20   21 du   
    23   21   22 du   
    24   22   23 du   
@<TRIPOS>SUBSTRUCTURE
     1 36J301      1 GROUP   
@<TRIPOS>SET

