#    Name: 5z7j_4_36J
#    Modification time : Fri May 22 19:30:15 2020

@<TRIPOS>MOLECULE
5z7j_4_36J
   23    24     1     0     0
SMALL
NO_CHARGES


@<TRIPOS>ATOM
      1 CAO        13.8870  -43.6570   -5.7940           1 36J301      0.0000 
      2 CAL        12.8810  -44.6500   -5.2210           1 36J301      0.0000 
      3 CAM        12.4850  -44.3660   -3.7770           1 36J301      0.0000 
      4 CAV        11.0990  -44.8250   -3.3690           1 36J301      0.0000 
      5 CAA        10.6320  -46.0580   -4.1020           1 36J301      0.0000 
      6 OAP        10.2080  -43.7020   -3.7040           1 36J301      0.0000 
      7 CAQ         8.9660  -43.7190   -3.1950           1 36J301      0.0000 
      8 OAB         8.6950  -44.2390   -2.1450           1 36J301      0.0000 
      9 CAU         7.9550  -43.0790   -4.0630           1 36J301      0.0000 
     10 CAS         6.6210  -43.5270   -3.9220           1 36J301      0.0000 
     11 OAD         6.3090  -44.4830   -3.0180           1 36J301      0.0000 
     12 CAH         5.6060  -43.0010   -4.6980           1 36J301      0.0000 
     13 CAR         5.8930  -42.0190   -5.6330           1 36J301      0.0000 
     14 OAC         4.8950  -41.4980   -6.4000           1 36J301      0.0000 
     15 CAI         7.1900  -41.5560   -5.7980           1 36J301      0.0000 
     16 CAT         8.2330  -42.0680   -5.0270           1 36J301      0.0000 
     17 CAG         9.5810  -41.5350   -5.2560           1 36J301      0.0000 
     18 CAF         9.8760  -40.3880   -5.8420           1 36J301      0.0000 
     19 CAJ        11.2320  -39.7630   -5.9130           1 36J301      0.0000 
     20 CAK        12.1490  -40.4120   -6.9410           1 36J301      0.0000 
     21 CAN        13.2500  -41.2560   -6.3180           1 36J301      0.0000 
     22 CAW        13.3280  -42.6870   -6.8230           1 36J301      0.0000 
     23 OAE        14.1200  -42.7330   -8.0230           1 36J301      0.0000 
@<TRIPOS>BOND
     1    1    2 du   
     2    1   22 du   
     3    2    3 du   
     4    3    4 du   
     5    4    5 du   
     6    4    6 du   
     7    6    7 du   
     8    7    8 du   
     9    7    9 du   
    10    9   10 du   
    11    9   16 du   
    12   10   11 du   
    13   10   12 du   
    14   12   13 du   
    15   13   14 du   
    16   13   15 du   
    17   15   16 du   
    18   16   17 du   
    19   17   18 du   
    20   18   19 du   
    21   19   20 du   
    22   20   21 du   
    23   21   22 du   
    24   22   23 du   
@<TRIPOS>SUBSTRUCTURE
     1 36J301      1 GROUP   
@<TRIPOS>SET

