#    Name: 6o5x_2_0Q4
#    Modification time : Fri May 22 19:34:34 2020

@<TRIPOS>MOLECULE
6o5x_2_0Q4
   59    59     1     0     0
SMALL
NO_CHARGES


@<TRIPOS>ATOM
      1 N         -10.1300  -34.0890  -21.8230 N.4       1 0Q4101      0.0000 
      2 CA        -10.6970  -32.7850  -21.4260 C.3       1 0Q4101      0.0000 
      3 C          -9.6080  -32.0400  -20.7170 C.2       1 0Q4101      0.0000 
      4 O          -8.8070  -32.6770  -20.0380 O.2       1 0Q4101      0.0000 
      5 CB        -11.9760  -33.1650  -20.6860 C.3       1 0Q4101      0.0000 
      6 CG        -12.3960  -32.4490  -19.4270 C.3       1 0Q4101      0.0000 
      7 CD        -13.9120  -32.5650  -19.2760 C.3       1 0Q4101      0.0000 
      8 NE        -14.1680  -33.3010  -18.0800 N.pl3     1 0Q4101      0.0000 
      9 CZ        -15.3660  -33.7290  -17.7190 C.cat     1 0Q4101      0.0000 
     10 NH1       -15.4000  -34.4080  -16.5670 N.pl3     1 0Q4101      0.0000 
     11 NH2       -16.4220  -33.4610  -18.3900 N.pl3     1 0Q4101      0.0000 
     12 N1         -9.5290  -30.7060  -20.8860 N.am      1 0Q4101      0.0000 
     13 CA1        -8.5390  -29.8610  -20.3330 C.3       1 0Q4101      0.0000 
     14 C1         -9.2610  -28.8430  -19.5790 C.2       1 0Q4101      0.0000 
     15 O1         -9.8000  -27.9420  -20.1060 O.2       1 0Q4101      0.0000 
     16 CB1        -7.5740  -29.3910  -21.4160 C.3       1 0Q4101      0.0000 
     17 CG1        -6.8530  -30.5640  -22.0400 C.3       1 0Q4101      0.0000 
     18 CG2        -6.6330  -28.3450  -20.8250 C.3       1 0Q4101      0.0000 
     19 N2         -9.1540  -28.9020  -18.2210 N.am      1 0Q4101      0.0000 
     20 CA2        -9.7730  -27.9350  -17.4120 C.3       1 0Q4101      0.0000 
     21 C2         -8.7050  -27.0540  -16.6740 C.3       1 0Q4101      0.0000 
     22 CB2       -10.6410  -28.5850  -16.3260 C.3       1 0Q4101      0.0000 
     23 CG3       -11.7550  -29.5670  -16.8130 C.3       1 0Q4101      0.0000 
     24 CD1       -12.7330  -28.8690  -17.7610 C.3       1 0Q4101      0.0000 
     25 CD2       -12.6480  -30.1700  -15.7660 C.3       1 0Q4101      0.0000 
     26 N3         -7.8500  -26.3490  -17.6280 N.4       1 0Q4101      0.0000 
     27 CA3        -7.2540  -25.0410  -17.2570 C.3       1 0Q4101      0.0000 
     28 C3         -8.3470  -24.0800  -16.9350 C.2       1 0Q4101      0.0000 
     29 O2         -9.3580  -23.9590  -17.6030 O.2       1 0Q4101      0.0000 
     30 CB3        -6.4040  -24.4890  -18.4110 C.3       1 0Q4101      0.0000 
     31 CG4        -6.0510  -23.0490  -18.2640 C.ar      1 0Q4101      0.0000 
     32 CD11       -6.5680  -22.0110  -19.0940 C.ar      1 0Q4101      0.0000 
     33 CD21       -5.1720  -22.6220  -17.3210 C.ar      1 0Q4101      0.0000 
     34 CE1        -6.1590  -20.6810  -18.8990 C.ar      1 0Q4101      0.0000 
     35 CE2        -4.7560  -21.2990  -17.1430 C.ar      1 0Q4101      0.0000 
     36 CZ1        -5.2560  -20.3140  -17.9570 C.ar      1 0Q4101      0.0000 
     37 N4         -8.1670  -23.2930  -15.8950 N.am      1 0Q4101      0.0000 
     38 CA4        -9.0680  -22.1580  -15.5380 C.3       1 0Q4101      0.0000 
     39 C4         -8.3480  -21.0480  -14.8400 C.2       1 0Q4101      0.0000 
     40 O3         -7.3900  -21.2220  -14.0340 O.2       1 0Q4101      0.0000 
     41 CB4       -10.1230  -22.6980  -14.5180 C.3       1 0Q4101      0.0000 
     42 CG5       -11.1280  -21.6400  -14.0830 C.3       1 0Q4101      0.0000 
     43 CD3       -10.6770  -20.7760  -12.9280 C.2       1 0Q4101      0.0000 
     44 OE1       -11.1800  -19.6020  -12.7800 O.co2     1 0Q4101      0.0000 
     45 OE2        -9.7740  -21.1290  -12.1650 O.co2     1 0Q4101      0.0000 
     46 N5         -8.7630  -19.8280  -15.2060 N.am      1 0Q4101      0.0000 
     47 CA5        -8.3020  -18.5690  -14.6630 C.3       1 0Q4101      0.0000 
     48 C5         -9.3270  -17.5310  -14.6600 C.2       1 0Q4101      0.0000 
     49 O4        -10.1650  -17.4990  -15.5050 O.2       1 0Q4101      0.0000 
     50 CB5        -6.9810  -18.2150  -15.3210 C.3       1 0Q4101      0.0000 
     51 N6         -9.2850  -16.5520  -13.7040 N.am      1 0Q4101      0.0000 
     52 CA6       -10.1870  -15.4720  -13.7120 C.3       1 0Q4101      0.0000 
     53 C6         -9.6790  -14.4000  -14.6360 C.2       1 0Q4101      0.0000 
     54 O5         -8.4830  -14.0630  -14.5830 O.2       1 0Q4101      0.0000 
     55 CB6       -10.1690  -14.8270  -12.2700 C.3       1 0Q4101      0.0000 
     56 CG6       -11.2670  -13.8090  -12.1330 C.3       1 0Q4101      0.0000 
     57 CD4       -12.6810  -14.2770  -11.9940 C.3       1 0Q4101      0.0000 
     58 CE        -13.0700  -14.9000  -10.6680 C.3       1 0Q4101      0.0000 
     59 N7        -10.5360  -13.8960  -15.4830 N.am      1 0Q4101      0.0000 
@<TRIPOS>BOND
     1   41   42 1    
     2   42   43 1    
     3   43   44 ar   
     4   43   45 ar   
     5   46   47 1    
     6   47   48 1    
     7   47   50 1    
     8   48   49 2    
     9   48   51 am   
    10   51   52 1    
    11   52   53 1    
    12   52   55 1    
    13   53   54 2    
    14   53   59 am   
    15   55   56 1    
    16   56   57 1    
    17   57   58 1    
    18    1    2 1    
    19    2    3 1    
    20    2    5 1    
    21    3    4 2    
    22    3   12 am   
    23    5    6 1    
    24    6    7 1    
    25    7    8 1    
    26    8    9 ar   
    27    9   10 ar   
    28    9   11 ar   
    29   12   13 1    
    30   13   14 1    
    31   13   16 1    
    32   14   15 2    
    33   14   19 am   
    34   16   17 1    
    35   16   18 1    
    36   19   20 1    
    37   20   21 1    
    38   20   22 1    
    39   21   26 1    
    40   22   23 1    
    41   23   24 1    
    42   23   25 1    
    43   26   27 1    
    44   27   28 1    
    45   27   30 1    
    46   28   29 2    
    47   28   37 am   
    48   30   31 1    
    49   31   32 ar   
    50   31   33 ar   
    51   32   34 ar   
    52   33   35 ar   
    53   34   36 ar   
    54   35   36 ar   
    55   37   38 1    
    56   38   39 1    
    57   38   41 1    
    58   39   40 2    
    59   39   46 am   
@<TRIPOS>SUBSTRUCTURE
     1 0Q4101      1 GROUP   
@<TRIPOS>SET

