#    Name: 6o5x_1_0Q4
#    Modification time : Fri May 22 19:34:28 2020

@<TRIPOS>MOLECULE
6o5x_1_0Q4
   59    59     1     0     0
SMALL
NO_CHARGES


@<TRIPOS>ATOM
      1 N         -15.8540    3.1440  -30.6150 N.4       1 0Q4101      0.0000 
      2 CA        -15.4100    1.9270  -29.9500 C.3       1 0Q4101      0.0000 
      3 C         -16.1000    1.7170  -28.6430 C.2       1 0Q4101      0.0000 
      4 O         -16.6340    2.6990  -28.1120 O.2       1 0Q4101      0.0000 
      5 CB        -13.9230    2.0560  -29.7510 C.3       1 0Q4101      0.0000 
      6 CG        -13.3450    2.9910  -28.7780 C.3       1 0Q4101      0.0000 
      7 CD        -11.8190    3.0250  -28.8120 C.3       1 0Q4101      0.0000 
      8 NE        -11.2170    4.1950  -28.1850 N.pl3     1 0Q4101      0.0000 
      9 CZ         -9.9820    4.6280  -28.4880 C.cat     1 0Q4101      0.0000 
     10 NH1        -9.4120    5.6040  -27.7850 N.pl3     1 0Q4101      0.0000 
     11 NH2        -9.3560    4.1190  -29.4540 N.pl3     1 0Q4101      0.0000 
     12 N1        -16.0840    0.5390  -28.1940 N.am      1 0Q4101      0.0000 
     13 CA1       -16.8350    0.1270  -27.0020 C.3       1 0Q4101      0.0000 
     14 C1        -15.9340   -0.5470  -26.0410 C.2       1 0Q4101      0.0000 
     15 O1        -15.5380   -1.7330  -26.1320 O.2       1 0Q4101      0.0000 
     16 CB1       -18.0520   -0.7570  -27.3610 C.3       1 0Q4101      0.0000 
     17 CG1       -18.9700   -0.0920  -28.3960 C.3       1 0Q4101      0.0000 
     18 CG2       -18.7450   -1.2130  -26.0520 C.3       1 0Q4101      0.0000 
     19 N2        -15.6420    0.1350  -24.9920 N.am      1 0Q4101      0.0000 
     20 CA2       -14.6770   -0.3820  -23.9750 C.3       1 0Q4101      0.0000 
     21 C2        -15.4190   -0.7010  -22.6620 C.3       1 0Q4101      0.0000 
     22 CB2       -13.5480    0.6190  -23.7120 C.3       1 0Q4101      0.0000 
     23 CG3       -12.8610    1.0690  -25.0000 C.3       1 0Q4101      0.0000 
     24 CD1       -12.3340   -0.0940  -25.8530 C.3       1 0Q4101      0.0000 
     25 CD2       -11.8080    2.0490  -24.7270 C.3       1 0Q4101      0.0000 
     26 N3        -16.5270   -1.6860  -22.8110 N.4       1 0Q4101      0.0000 
     27 CA3       -16.9190   -2.6020  -21.7370 C.3       1 0Q4101      0.0000 
     28 C3        -15.7410   -3.4290  -21.3030 C.2       1 0Q4101      0.0000 
     29 O2        -14.9580   -3.9680  -22.1610 O.2       1 0Q4101      0.0000 
     30 CB3       -18.1130   -3.4350  -22.2190 C.3       1 0Q4101      0.0000 
     31 CG4       -18.3310   -4.6620  -21.4230 C.ar      1 0Q4101      0.0000 
     32 CD11      -17.9920   -5.9430  -21.8440 C.ar      1 0Q4101      0.0000 
     33 CD21      -18.8910   -4.4700  -20.1850 C.ar      1 0Q4101      0.0000 
     34 CE1       -18.2250   -6.9940  -20.9690 C.ar      1 0Q4101      0.0000 
     35 CE2       -19.1060   -5.5300  -19.2830 C.ar      1 0Q4101      0.0000 
     36 CZ1       -18.7930   -6.8070  -19.6980 C.ar      1 0Q4101      0.0000 
     37 N4        -15.6000   -3.6290  -20.0280 N.am      1 0Q4101      0.0000 
     38 CA4       -14.5800   -4.4970  -19.4770 C.3       1 0Q4101      0.0000 
     39 C4        -15.0900   -5.1710  -18.2190 C.2       1 0Q4101      0.0000 
     40 O3        -15.7300   -4.4950  -17.3820 O.2       1 0Q4101      0.0000 
     41 CB4       -13.2820   -3.7570  -19.1950 C.3       1 0Q4101      0.0000 
     42 CG5       -12.1580   -4.4520  -18.5580 C.3       1 0Q4101      0.0000 
     43 CD3       -12.2010   -4.6490  -17.0660 C.2       1 0Q4101      0.0000 
     44 OE1       -11.6030   -5.6460  -16.5690 O.co2     1 0Q4101      0.0000 
     45 OE2       -12.8740   -3.9010  -16.3790 O.co2     1 0Q4101      0.0000 
     46 N5        -14.7850   -6.4280  -18.1000 N.am      1 0Q4101      0.0000 
     47 CA5       -15.0740   -7.1320  -16.8510 C.3       1 0Q4101      0.0000 
     48 C5        -13.9780   -8.0850  -16.5340 C.2       1 0Q4101      0.0000 
     49 O4        -13.2330   -8.6570  -17.3890 O.2       1 0Q4101      0.0000 
     50 CB5       -16.3860   -7.8470  -17.0310 C.3       1 0Q4101      0.0000 
     51 N6        -13.8470   -8.4410  -15.2760 N.am      1 0Q4101      0.0000 
     52 CA6       -12.8340   -9.3560  -14.8440 C.3       1 0Q4101      0.0000 
     53 C6        -13.4340  -10.7640  -14.9060 C.2       1 0Q4101      0.0000 
     54 O5        -14.6190  -11.0310  -14.4940 O.2       1 0Q4101      0.0000 
     55 CB6       -12.6400   -9.0480  -13.3480 C.3       1 0Q4101      0.0000 
     56 CG6       -11.6770   -9.9180  -12.6120 C.3       1 0Q4101      0.0000 
     57 CD4       -10.2340  -10.0750  -13.1560 C.3       1 0Q4101      0.0000 
     58 CE         -9.1950   -9.0730  -12.6430 C.3       1 0Q4101      0.0000 
     59 N7        -12.6880  -11.6670  -15.5210 N.am      1 0Q4101      0.0000 
@<TRIPOS>BOND
     1    1    2 1    
     2    2    3 1    
     3    2    5 1    
     4    3    4 2    
     5    3   12 am   
     6    5    6 1    
     7    6    7 1    
     8    7    8 1    
     9    8    9 ar   
    10    9   10 ar   
    11    9   11 ar   
    12   12   13 1    
    13   13   14 1    
    14   13   16 1    
    15   14   15 2    
    16   14   19 am   
    17   16   17 1    
    18   16   18 1    
    19   19   20 1    
    20   20   21 1    
    21   20   22 1    
    22   21   26 1    
    23   22   23 1    
    24   23   24 1    
    25   23   25 1    
    26   26   27 1    
    27   27   28 1    
    28   27   30 1    
    29   28   29 2    
    30   28   37 am   
    31   30   31 1    
    32   31   32 ar   
    33   31   33 ar   
    34   32   34 ar   
    35   33   35 ar   
    36   34   36 ar   
    37   35   36 ar   
    38   37   38 1    
    39   38   39 1    
    40   38   41 1    
    41   39   40 2    
    42   39   46 am   
    43   41   42 1    
    44   42   43 1    
    45   43   44 ar   
    46   43   45 ar   
    47   46   47 1    
    48   47   48 1    
    49   47   50 1    
    50   48   49 2    
    51   48   51 am   
    52   51   52 1    
    53   52   53 1    
    54   52   55 1    
    55   53   54 2    
    56   53   59 am   
    57   55   56 1    
    58   56   57 1    
    59   57   58 1    
@<TRIPOS>SUBSTRUCTURE
     1 0Q4101      1 GROUP   
@<TRIPOS>SET

