#    Name: 5zy6_1_SAM
#    Modification time : Fri May 22 19:31:54 2020

@<TRIPOS>MOLECULE
5zy6_1_SAM
   27    29     1     0     0
SMALL
NO_CHARGES


@<TRIPOS>ATOM
      1 N         -21.5300   25.5190    2.6720 N.4       1 SAM301      0.0000 
      2 CA        -21.2700   24.3090    3.4510 C.3       1 SAM301      0.0000 
      3 C         -20.6480   24.6080    4.8180 C.2       1 SAM301      0.0000 
      4 O         -19.7650   25.4640    4.9430 O.co2     1 SAM301      0.0000 
      5 OXT       -21.0230   23.9740    5.8180 O.co2     1 SAM301      0.0000 
      6 CB        -20.3930   23.2900    2.7110 C.3       1 SAM301      0.0000 
      7 CG        -20.7570   22.9160    1.2670 C.3       1 SAM301      0.0000 
      8 SD        -19.5880   21.6660    0.6540 S.3       1 SAM301      0.0000 
      9 CE        -18.0710   22.6460    0.4740 C.3       1 SAM301      0.0000 
     10 C5'       -20.1350   21.3860   -1.0590 C.3       1 SAM301      0.0000 
     11 C4'       -21.5770   20.8890   -1.1420 C.3       1 SAM301      0.0000 
     12 O4'       -22.1430   21.2030   -2.3950 O.3       1 SAM301      0.0000 
     13 C3'       -21.7040   19.3740   -1.0070 C.3       1 SAM301      0.0000 
     14 O3'       -22.4550   19.1310    0.1670 O.3       1 SAM301      0.0000 
     15 C2'       -22.4450   18.8960   -2.2570 C.3       1 SAM301      0.0000 
     16 O2'       -23.4890   17.9880   -1.9600 O.3       1 SAM301      0.0000 
     17 C1'       -23.0680   20.1890   -2.7520 C.3       1 SAM301      0.0000 
     18 N9        -23.3580   20.2750   -4.1980 N.pl3     1 SAM301      0.0000 
     19 C8        -22.6510   19.7700   -5.2640 C.2       1 SAM301      0.0000 
     20 N7        -23.2900   20.1320   -6.4080 N.2       1 SAM301      0.0000 
     21 C5        -24.3830   20.8650   -6.0880 C.ar      1 SAM301      0.0000 
     22 C6        -25.3760   21.4780   -6.8540 C.ar      1 SAM301      0.0000 
     23 N6        -25.3640   21.4050   -8.1910 N.pl3     1 SAM301      0.0000 
     24 N1        -26.3880   22.1690   -6.2050 N.ar      1 SAM301      0.0000 
     25 C2        -26.4190   22.2550   -4.8210 C.ar      1 SAM301      0.0000 
     26 N3        -25.4310   21.6460   -4.0700 N.ar      1 SAM301      0.0000 
     27 C4        -24.4340   20.9600   -4.6970 C.ar      1 SAM301      0.0000 
@<TRIPOS>BOND
     1    1    2 1    
     2    2    3 1    
     3    2    6 1    
     4    3    4 ar   
     5    3    5 ar   
     6    6    7 1    
     7    7    8 1    
     8    8    9 1    
     9    8   10 1    
    10   10   11 1    
    11   11   12 1    
    12   11   13 1    
    13   12   17 1    
    14   13   14 1    
    15   13   15 1    
    16   15   16 1    
    17   15   17 1    
    18   17   18 1    
    19   18   19 1    
    20   18   27 1    
    21   19   20 2    
    22   20   21 1    
    23   21   22 ar   
    24   21   27 ar   
    25   22   23 1    
    26   22   24 ar   
    27   24   25 ar   
    28   25   26 ar   
    29   26   27 ar   
@<TRIPOS>SUBSTRUCTURE
     1 SAM301      1 GROUP   
@<TRIPOS>SET

