#    Name: 6h3d_1_NDP_CAVITY_N1_4
#    Modification time : Fri May 22 19:27:22 2020

@<TRIPOS>MOLECULE
6h3d_1_NDP_CAVITY_N1_4
   59     0     6     0     0
SMALL
NO_CHARGES


@<TRIPOS>ATOM
      1 OG        -30.1600   18.0200  -11.1000 O.3       1 SER1        0.0000 
      2 OG        -29.1900   17.0300  -11.6800 O.3       1 SER1        0.0000 
      3 OG        -28.0700   17.7100  -10.9600 O.3       1 SER1        0.0000 
      4 OG        -26.8900   17.6200  -12.7200 O.3       1 SER1        0.0000 
      5 N         -31.5000   16.4400  -10.6400 N.am      2 ALA2        0.0000 
      6 N         -31.7200   15.5400   -9.4600 N.am      2 ALA2        0.0000 
      7 N         -30.3200   16.3500  -12.4000 N.am      2 ALA2        0.0000 
      8 N         -30.5300   15.4500  -11.2200 N.am      2 ALA2        0.0000 
      9 N         -30.5900   16.2200   -8.7400 N.am      2 ALA2        0.0000 
     10 OD1       -27.3100   15.8200  -10.3600 O.co2     3 ASP3        0.0000 
     11 OD1       -27.5300   14.9200   -9.1800 O.co2     3 ASP3        0.0000 
     12 OD1       -27.3700   16.5900   -7.8800 O.co2     3 ASP3        0.0000 
     13 OD1       -25.9700   17.4000  -10.8200 O.co2     3 ASP3        0.0000 
     14 OD1       -26.1900   16.5000   -9.6400 O.co2     3 ASP3        0.0000 
     15 OD1       -25.0100   16.4100  -11.4000 O.co2     3 ASP3        0.0000 
     16 OD1       -25.1800   21.7700  -13.0600 O.co2     3 ASP3        0.0000 
     17 OD1       -26.0300   18.1700   -8.3400 O.co2     3 ASP3        0.0000 
     18 OD1       -24.8500   18.0800  -10.1000 O.co2     3 ASP3        0.0000 
     19 OD1       -25.0600   17.1800   -8.9200 O.co2     3 ASP3        0.0000 
     20 OD1       -23.6700   17.9900  -11.8600 O.co2     3 ASP3        0.0000 
     21 OD1       -24.2600   21.5500  -11.1600 O.co2     3 ASP3        0.0000 
     22 OD1       -23.0800   21.4600  -12.9200 O.co2     3 ASP3        0.0000 
     23 NZ        -28.2300   16.0400  -12.2600 N.4       4 LYS4        0.0000 
     24 NZ        -27.1000   16.7200  -11.5400 N.4       4 LYS4        0.0000 
     25 NZ        -25.7100   17.5300  -14.4800 N.4       4 LYS4        0.0000 
     26 NZ        -25.9200   16.6300  -13.3000 N.4       4 LYS4        0.0000 
     27 NZ        -26.1300   15.7300  -12.1200 N.4       4 LYS4        0.0000 
     28 NZ        -24.7900   17.3100  -12.5800 N.4       4 LYS4        0.0000 
     29 NZ        -24.4800   20.6500   -9.9800 N.4       4 LYS4        0.0000 
     30 CA        -30.7500   14.5500  -10.0400 C.3       5 GLY6        0.0000 
     31 CA        -31.5600   17.2100   -8.1600 C.3       5 GLY6        0.0000 
     32 CA        -30.3800   17.1200   -9.9200 C.3       5 GLY6        0.0000 
     33 CA        -29.6200   15.2300   -9.3200 C.3       5 GLY6        0.0000 
     34 CA        -28.0100   16.9400  -13.4400 C.3       5 GLY6        0.0000 
     35 CA        -28.4400   15.1400  -11.0800 C.3       5 GLY6        0.0000 
     36 CA        -28.6500   14.2400   -9.9000 C.3       5 GLY6        0.0000 
     37 CA        -29.2500   17.8000   -9.2000 C.3       5 GLY6        0.0000 
     38 CA        -29.4600   16.9000   -8.0200 C.3       5 GLY6        0.0000 
     39 CA        -27.9100   19.3800   -9.6600 C.3       5 GLY6        0.0000 
     40 CA        -25.3400   20.1000  -14.3600 C.3       5 GLY6        0.0000 
     41 DU        -29.4100   16.1300  -10.5000 H         6 CUB7        0.0000 
     42 DU        -28.2800   16.8100   -9.7800 H         6 CUB7        0.0000 
     43 DU        -28.5000   15.9100   -8.6000 H         6 CUB7        0.0000 
     44 DU        -26.7300   19.2900  -11.4200 H         6 CUB7        0.0000 
     45 DU        -26.9400   18.3900  -10.2400 H         6 CUB7        0.0000 
     46 DU        -27.1600   17.4900   -9.0600 H         6 CUB7        0.0000 
     47 DU        -25.5500   19.2000  -13.1800 H         6 CUB7        0.0000 
     48 DU        -25.7600   18.3000  -12.0000 H         6 CUB7        0.0000 
     49 DU        -24.5800   18.2100  -13.7600 H         6 CUB7        0.0000 
     50 DU        -27.0000   19.1600   -7.7600 H         6 CUB7        0.0000 
     51 DU        -25.3900   20.8700  -11.8800 H         6 CUB7        0.0000 
     52 DU        -25.8200   19.0700   -9.5200 H         6 CUB7        0.0000 
     53 DU        -24.2100   20.7800  -13.6400 H         6 CUB7        0.0000 
     54 DU        -24.6400   18.9800  -11.2800 H         6 CUB7        0.0000 
     55 DU        -23.4500   18.8900  -13.0400 H         6 CUB7        0.0000 
     56 DU        -23.3000   20.5600  -11.7400 H         6 CUB7        0.0000 
     57 DU        -23.5100   19.6600  -10.5600 H         6 CUB7        0.0000 
     58 DU        -22.3300   19.5700  -12.3200 H         6 CUB7        0.0000 
     59 DU        -22.5400   18.6700  -11.1300 H         6 CUB7        0.0000 
@<TRIPOS>BOND
@<TRIPOS>SUBSTRUCTURE
     1 SER1        1 GROUP   
     2 ALA2        5 GROUP   
     3 ASP3       10 GROUP   
     4 LYS4       23 GROUP   
     5 GLY6       30 GROUP   
     6 CUB7       41 GROUP   
@<TRIPOS>SET

