#    Name: 6h3d_1_NDP_CAVITY_N1_8
#    Modification time : Fri May 22 19:27:22 2020

@<TRIPOS>MOLECULE
6h3d_1_NDP_CAVITY_N1_8
   71     0     7     0     0
SMALL
NO_CHARGES


@<TRIPOS>ATOM
      1 OG        -30.1600   18.0200  -11.1000 O.3       1 SER1        0.0000 
      2 OG        -29.1900   17.0300  -11.6800 O.3       1 SER1        0.0000 
      3 OG        -28.0700   17.7100  -10.9600 O.3       1 SER1        0.0000 
      4 OG        -26.8900   17.6200  -12.7200 O.3       1 SER1        0.0000 
      5 OG        -24.3700   19.1100  -14.9400 O.3       1 SER1        0.0000 
      6 OG        -23.2400   19.7900  -14.2200 O.3       1 SER1        0.0000 
      7 OG        -22.1200   20.4700  -13.5000 O.3       1 SER1        0.0000 
      8 N         -31.5000   16.4400  -10.6400 N.am      2 ALA2        0.0000 
      9 N         -31.7200   15.5400   -9.4600 N.am      2 ALA2        0.0000 
     10 N         -30.3200   16.3500  -12.4000 N.am      2 ALA2        0.0000 
     11 N         -30.5300   15.4500  -11.2200 N.am      2 ALA2        0.0000 
     12 N         -30.5900   16.2200   -8.7400 N.am      2 ALA2        0.0000 
     13 O         -25.4900   18.4300  -15.6600 O.2       2 ALA2        0.0000 
     14 OD1       -27.3100   15.8200  -10.3600 O.co2     3 ASP3        0.0000 
     15 OD1       -27.5300   14.9200   -9.1800 O.co2     3 ASP3        0.0000 
     16 OD1       -27.3700   16.5900   -7.8800 O.co2     3 ASP3        0.0000 
     17 OD1       -25.9700   17.4000  -10.8200 O.co2     3 ASP3        0.0000 
     18 OD1       -26.1900   16.5000   -9.6400 O.co2     3 ASP3        0.0000 
     19 OD1       -25.0100   16.4100  -11.4000 O.co2     3 ASP3        0.0000 
     20 OD1       -25.1800   21.7700  -13.0600 O.co2     3 ASP3        0.0000 
     21 OD1       -26.0300   18.1700   -8.3400 O.co2     3 ASP3        0.0000 
     22 OD1       -24.8500   18.0800  -10.1000 O.co2     3 ASP3        0.0000 
     23 OD1       -25.0600   17.1800   -8.9200 O.co2     3 ASP3        0.0000 
     24 OD1       -23.6700   17.9900  -11.8600 O.co2     3 ASP3        0.0000 
     25 OD1       -24.2600   21.5500  -11.1600 O.co2     3 ASP3        0.0000 
     26 OD1       -23.0800   21.4600  -12.9200 O.co2     3 ASP3        0.0000 
     27 OD1       -21.9600   22.1400  -12.2000 O.co2     3 ASP3        0.0000 
     28 NZ        -28.2300   16.0400  -12.2600 N.4       4 LYS4        0.0000 
     29 NZ        -27.1000   16.7200  -11.5400 N.4       4 LYS4        0.0000 
     30 NZ        -25.7100   17.5300  -14.4800 N.4       4 LYS4        0.0000 
     31 NZ        -25.9200   16.6300  -13.3000 N.4       4 LYS4        0.0000 
     32 NZ        -26.1300   15.7300  -12.1200 N.4       4 LYS4        0.0000 
     33 NZ        -24.7900   17.3100  -12.5800 N.4       4 LYS4        0.0000 
     34 NZ        -23.6100   17.2200  -14.3400 N.4       4 LYS4        0.0000 
     35 NZ        -22.7000   17.0000  -12.4400 N.4       4 LYS4        0.0000 
     36 NZ        -24.4800   20.6500   -9.9800 N.4       4 LYS4        0.0000 
     37 CZ        -22.4900   17.9000  -13.6200 C.ar      5 PHE5        0.0000 
     38 CZ        -21.3600   18.5800  -12.8900 C.ar      5 PHE5        0.0000 
     39 CZ        -21.5700   17.6800  -11.7100 C.ar      5 PHE5        0.0000 
     40 CZ        -20.2300   19.2600  -12.1700 C.ar      5 PHE5        0.0000 
     41 CA        -30.7500   14.5500  -10.0400 C.3       6 GLY6        0.0000 
     42 CA        -31.5600   17.2100   -8.1600 C.3       6 GLY6        0.0000 
     43 CA        -30.3800   17.1200   -9.9200 C.3       6 GLY6        0.0000 
     44 CA        -29.6200   15.2300   -9.3200 C.3       6 GLY6        0.0000 
     45 CA        -28.0100   16.9400  -13.4400 C.3       6 GLY6        0.0000 
     46 CA        -28.4400   15.1400  -11.0800 C.3       6 GLY6        0.0000 
     47 CA        -28.6500   14.2400   -9.9000 C.3       6 GLY6        0.0000 
     48 CA        -29.2500   17.8000   -9.2000 C.3       6 GLY6        0.0000 
     49 CA        -29.4600   16.9000   -8.0200 C.3       6 GLY6        0.0000 
     50 CA        -27.9100   19.3800   -9.6600 C.3       6 GLY6        0.0000 
     51 CA        -25.3400   20.1000  -14.3600 C.3       6 GLY6        0.0000 
     52 CA        -24.0000   21.6800  -14.8200 C.3       6 GLY6        0.0000 
     53 DU        -29.4100   16.1300  -10.5000 H         7 CUB7        0.0000 
     54 DU        -28.2800   16.8100   -9.7800 H         7 CUB7        0.0000 
     55 DU        -28.5000   15.9100   -8.6000 H         7 CUB7        0.0000 
     56 DU        -26.7300   19.2900  -11.4200 H         7 CUB7        0.0000 
     57 DU        -26.9400   18.3900  -10.2400 H         7 CUB7        0.0000 
     58 DU        -27.1600   17.4900   -9.0600 H         7 CUB7        0.0000 
     59 DU        -25.5500   19.2000  -13.1800 H         7 CUB7        0.0000 
     60 DU        -25.7600   18.3000  -12.0000 H         7 CUB7        0.0000 
     61 DU        -24.5800   18.2100  -13.7600 H         7 CUB7        0.0000 
     62 DU        -27.0000   19.1600   -7.7600 H         7 CUB7        0.0000 
     63 DU        -25.3900   20.8700  -11.8800 H         7 CUB7        0.0000 
     64 DU        -25.8200   19.0700   -9.5200 H         7 CUB7        0.0000 
     65 DU        -24.2100   20.7800  -13.6400 H         7 CUB7        0.0000 
     66 DU        -24.6400   18.9800  -11.2800 H         7 CUB7        0.0000 
     67 DU        -23.4500   18.8900  -13.0400 H         7 CUB7        0.0000 
     68 DU        -23.3000   20.5600  -11.7400 H         7 CUB7        0.0000 
     69 DU        -23.5100   19.6600  -10.5600 H         7 CUB7        0.0000 
     70 DU        -22.3300   19.5700  -12.3200 H         7 CUB7        0.0000 
     71 DU        -22.5400   18.6700  -11.1300 H         7 CUB7        0.0000 
@<TRIPOS>BOND
@<TRIPOS>SUBSTRUCTURE
     1 SER1        1 GROUP   
     2 ALA2        8 GROUP   
     3 ASP3       14 GROUP   
     4 LYS4       28 GROUP   
     5 PHE5       37 GROUP   
     6 GLY6       41 GROUP   
     7 CUB7       53 GROUP   
@<TRIPOS>SET

