#    Name: 6h3d_1_NDP
#    Modification time : Fri May 22 19:27:20 2020

@<TRIPOS>MOLECULE
6h3d_1_NDP
   48    52     1     0     1
SMALL
NO_CHARGES


@<TRIPOS>ATOM
      1 PA        -30.5190   14.3540   -5.8880 P.3       1 NDP600      0.0000 
      2 O1A       -29.5990   13.1900   -6.1880 O.co2     1 NDP600      0.0000 
      3 O2A       -31.1930   14.4470   -4.5240 O.co2     1 NDP600      0.0000 
      4 O5B       -31.6230   14.6040   -7.0680 O.3       1 NDP600      0.0000 
      5 C5B       -32.1230   13.6740   -8.0270 C.3       1 NDP600      0.0000 
      6 C4B       -33.5650   13.3720   -7.6460 C.3       1 NDP600      0.0000 
      7 O4B       -34.1370   12.4230   -8.5400 O.3       1 NDP600      0.0000 
      8 C3B       -33.5400   12.7020   -6.2830 C.3       1 NDP600      0.0000 
      9 O3B       -34.7310   12.9580   -5.5470 O.3       1 NDP600      0.0000 
     10 C2B       -33.4330   11.2290   -6.6440 C.3       1 NDP600      0.0000 
     11 O2B       -33.7990   10.3490   -5.5700 O.3       1 NDP600      0.0000 
     12 C1B       -34.4030   11.1990   -7.8320 C.3       1 NDP600      0.0000 
     13 N9A       -34.3680    9.9160   -8.6310 N.pl3     1 NDP600      0.0000 
     14 C8A       -33.3030    9.2130   -9.1190 C.2       1 NDP600      0.0000 
     15 N7A       -33.7380    8.0790   -9.7600 N.2       1 NDP600      0.0000 
     16 C5A       -35.0960    8.0390   -9.6810 C.ar      1 NDP600      0.0000 
     17 C6A       -36.2170    7.1530  -10.1200 C.ar      1 NDP600      0.0000 
     18 N6A       -35.9920    6.0240  -10.8150 N.pl3     1 NDP600      0.0000 
     19 N1A       -37.4920    7.5010   -9.8140 N.ar      1 NDP600      0.0000 
     20 C2A       -37.7810    8.6240   -9.1300 C.ar      1 NDP600      0.0000 
     21 N3A       -36.8280    9.4710   -8.7100 N.ar      1 NDP600      0.0000 
     22 C4A       -35.4990    9.2460   -8.9360 C.ar      1 NDP600      0.0000 
     23 O3        -29.6300   15.6840   -6.1170 O.3       1 NDP600      0.0000 
     24 PN        -30.1250   17.1040   -6.7630 P.3       1 NDP600      0.0000 
     25 O1N       -31.5440   17.4700   -6.2850 O.co2     1 NDP600      0.0000 
     26 O2N       -29.0180   18.0700   -6.3760 O.co2     1 NDP600      0.0000 
     27 O5D       -29.9220   16.8920   -8.3820 O.3       1 NDP600      0.0000 
     28 C5D       -30.9090   16.8260   -9.4390 C.3       1 NDP600      0.0000 
     29 C4D       -30.1960   16.7870  -10.8010 C.3       1 NDP600      0.0000 
     30 O4D       -29.6020   18.0740  -11.0720 O.3       1 NDP600      0.0000 
     31 C3D       -29.0400   15.7740  -10.8270 C.3       1 NDP600      0.0000 
     32 O3D       -28.7400   15.2620  -12.1470 O.3       1 NDP600      0.0000 
     33 C2D       -27.8670   16.6210  -10.3640 C.3       1 NDP600      0.0000 
     34 O2D       -26.6110   16.0040  -10.6760 O.3       1 NDP600      0.0000 
     35 C1D       -28.1520   17.9250  -11.1290 C.3       1 NDP600      0.0000 
     36 N1N       -27.3750   19.0890  -10.6470 N.pl3     1 NDP600      0.0000 
     37 C2N       -27.4420   19.4840   -9.3640 C.2       1 NDP600      0.0000 
     38 C3N       -26.7060   20.5880   -8.9280 C.2       1 NDP600      0.0000 
     39 C7N       -26.7710   21.0480   -7.4930 C.2       1 NDP600      0.0000 
     40 O7N       -27.5400   20.5910   -6.6700 O.2       1 NDP600      0.0000 
     41 N7N       -25.9060   21.9680   -7.1340 N.am      1 NDP600      0.0000 
     42 C4N       -25.7810   21.3490   -9.8790 C.3       1 NDP600      0.0000 
     43 C5N       -25.7910   20.8140  -11.2400 C.2       1 NDP600      0.0000 
     44 C6N       -26.5830   19.7080  -11.5440 C.2       1 NDP600      0.0000 
     45 P2B       -32.9650   10.1270   -4.1900 P.3       1 NDP600      0.0000 
     46 O1X       -31.4930   10.0770   -4.5790 O.co2     1 NDP600      0.0000 
     47 O2X       -33.3540   11.2880   -3.2800 O.co2     1 NDP600      0.0000 
     48 O3X       -33.5090    8.7960   -3.7250 O.co2     1 NDP600      0.0000 
@<TRIPOS>BOND
     1    1    2 ar   
     2    1    3 ar   
     3    1    4 1    
     4    1   23 1    
     5    4    5 1    
     6    5    6 1    
     7    6    7 1    
     8    6    8 1    
     9    7   12 1    
    10    8    9 1    
    11    8   10 1    
    12   10   11 1    
    13   10   12 1    
    14   11   45 1    
    15   12   13 1    
    16   13   14 1    
    17   13   22 1    
    18   14   15 2    
    19   15   16 1    
    20   16   17 ar   
    21   16   22 ar   
    22   17   18 1    
    23   17   19 ar   
    24   19   20 ar   
    25   20   21 ar   
    26   21   22 ar   
    27   23   24 1    
    28   24   25 ar   
    29   24   26 ar   
    30   24   27 1    
    31   27   28 1    
    32   28   29 1    
    33   29   30 1    
    34   29   31 1    
    35   30   35 1    
    36   31   32 1    
    37   31   33 1    
    38   33   34 1    
    39   33   35 1    
    40   35   36 1    
    41   36   37 1    
    42   36   44 1    
    43   37   38 2    
    44   38   39 1    
    45   38   42 1    
    46   39   40 2    
    47   39   41 am   
    48   42   43 1    
    49   43   44 2    
    50   45   46 ar   
    51   45   47 ar   
    52   45   48 ar   
@<TRIPOS>SUBSTRUCTURE
     1 NDP600      1 GROUP   
@<TRIPOS>SET
ATOM$ORANGE STATIC     ATOMS   COLORGROUP SYSTEM 
42 5 5 6 6 8 8 10 10 12 12 14 14 16 16 17 17 20 \
20 22 22 28 28 29 29 31 31 33 33 35 35 37 37 38 38 39 \
39 42 42 43 43 44 44 

