#    Name: 6sb2_2_GDP_CAVITY_N1_4
#    Modification time : Fri May 22 19:26:49 2020

@<TRIPOS>MOLECULE
6sb2_2_GDP_CAVITY_N1_4
   28     0     3     0     0
SMALL
NO_CHARGES


@<TRIPOS>ATOM
      1 N          96.2500  263.6900  207.0000 N.am      1 ALA2        0.0000 
      2 O          97.0400  265.5800  208.6000 O.2       1 ALA2        0.0000 
      3 CA         95.6200  265.1600  208.4000 C.3       2 GLY6        0.0000 
      4 CA         95.4300  266.5700  206.8200 C.3       2 GLY6        0.0000 
      5 CA         95.8400  265.1300  206.9100 C.3       2 GLY6        0.0000 
      6 CA         95.2300  267.9800  205.2500 C.3       2 GLY6        0.0000 
      7 CA         96.4700  263.6600  205.5200 C.3       2 GLY6        0.0000 
      8 CA         95.8700  266.5100  203.8600 C.3       2 GLY6        0.0000 
      9 CA         96.9100  263.6000  202.5500 C.3       2 GLY6        0.0000 
     10 CA         96.4400  268.4300  206.9300 C.3       2 GLY6        0.0000 
     11 CA         96.8500  266.9900  207.0300 C.3       2 GLY6        0.0000 
     12 CA         97.2600  265.5500  207.1200 C.3       2 GLY6        0.0000 
     13 CA         97.4800  265.5200  205.6300 C.3       2 GLY6        0.0000 
     14 CA         96.8800  268.3700  203.9700 C.3       2 GLY6        0.0000 
     15 CA         98.8800  264.5600  208.8900 C.3       2 GLY6        0.0000 
     16 CA         97.8600  268.8500  207.1400 C.3       2 GLY6        0.0000 
     17 CA         98.2800  267.4100  207.2300 C.3       2 GLY6        0.0000 
     18 CA         98.6900  265.9700  207.3200 C.3       2 GLY6        0.0000 
     19 CA         97.8900  270.2300  204.0800 C.3       2 GLY6        0.0000 
     20 CA        100.0800  265.0100  210.5800 C.3       2 GLY6        0.0000 
     21 CA         99.2900  269.2700  207.3400 C.3       2 GLY6        0.0000 
     22 DU         95.6500  266.5400  205.3400 H         3 CUB7        0.0000 
     23 DU         96.0600  265.1000  205.4300 H         3 CUB7        0.0000 
     24 DU         96.2800  265.0700  203.9500 H         3 CUB7        0.0000 
     25 DU         96.6900  263.6300  204.0400 H         3 CUB7        0.0000 
     26 DU         96.6600  268.4000  205.4500 H         3 CUB7        0.0000 
     27 DU         97.0700  266.9600  205.5400 H         3 CUB7        0.0000 
     28 DU         98.0800  268.8200  205.6600 H         3 CUB7        0.0000 
@<TRIPOS>BOND
@<TRIPOS>SUBSTRUCTURE
     1 ALA2        1 GROUP   
     2 GLY6        3 GROUP   
     3 CUB7       22 GROUP   
@<TRIPOS>SET

