#    Name: 6sb2_3_GTP
#    Modification time : Fri May 22 19:26:54 2020

@<TRIPOS>MOLECULE
6sb2_3_GTP
   32    34     1     0     1
SMALL
NO_CHARGES


@<TRIPOS>ATOM
      1 PG        331.7360  200.6600  201.3680 P.3       1 GTP401      0.0000 
      2 O1G       331.7330  201.3800  202.6780 O.co2     1 GTP401      0.0000 
      3 O2G       331.2820  199.2170  201.5150 O.co2     1 GTP401      0.0000 
      4 O3G       330.9890  201.4720  200.3200 O.co2     1 GTP401      0.0000 
      5 O3B       333.2350  200.5290  200.7850 O.3       1 GTP401      0.0000 
      6 PB        334.4170  201.5660  200.4680 P.3       1 GTP401      0.0000 
      7 O1B       334.2820  202.6800  201.4430 O.co2     1 GTP401      0.0000 
      8 O2B       334.4440  201.8760  199.0180 O.co2     1 GTP401      0.0000 
      9 O3A       335.7070  200.6680  200.7590 O.3       1 GTP401      0.0000 
     10 PA        336.8550  200.7310  201.8740 P.3       1 GTP401      0.0000 
     11 O1A       336.2660  200.6500  203.2400 O.co2     1 GTP401      0.0000 
     12 O2A       337.7340  201.8960  201.5640 O.co2     1 GTP401      0.0000 
     13 O5'       337.6100  199.3490  201.5840 O.3       1 GTP401      0.0000 
     14 C5'       338.4080  199.1660  200.4090 C.3       1 GTP401      0.0000 
     15 C4'       339.3270  197.9880  200.6250 C.3       1 GTP401      0.0000 
     16 O4'       340.2560  197.9600  199.5170 O.3       1 GTP401      0.0000 
     17 C3'       340.2400  198.0420  201.8590 C.3       1 GTP401      0.0000 
     18 O3'       340.9180  196.8270  202.1410 O.3       1 GTP401      0.0000 
     19 C2'       341.3250  198.9880  201.3620 C.3       1 GTP401      0.0000 
     20 O2'       342.5060  198.9100  202.1270 O.3       1 GTP401      0.0000 
     21 C1'       341.4990  198.4810  199.9320 C.3       1 GTP401      0.0000 
     22 N9        341.8960  199.5350  199.0130 N.pl3     1 GTP401      0.0000 
     23 C8        341.4390  200.8280  198.9900 C.2       1 GTP401      0.0000 
     24 N7        342.0260  201.5690  198.0820 N.2       1 GTP401      0.0000 
     25 C5        342.9220  200.7030  197.4730 C.2       1 GTP401      0.0000 
     26 C6        343.8300  200.9370  196.4170 C.2       1 GTP401      0.0000 
     27 O6        344.0360  201.9900  195.8050 O.2       1 GTP401      0.0000 
     28 N1        344.5630  199.7920  196.1160 N.am      1 GTP401      0.0000 
     29 C2        344.4230  198.5730  196.7320 C.2       1 GTP401      0.0000 
     30 N2        345.2110  197.5880  196.2890 N.pl3     1 GTP401      0.0000 
     31 N3        343.5680  198.3430  197.7260 N.2       1 GTP401      0.0000 
     32 C4        342.8540  199.4490  198.0370 C.2       1 GTP401      0.0000 
@<TRIPOS>BOND
     1    1    2 ar   
     2    1    3 ar   
     3    1    4 ar   
     4    1    5 1    
     5    5    6 1    
     6    6    7 ar   
     7    6    8 ar   
     8    6    9 1    
     9    9   10 1    
    10   10   11 ar   
    11   10   12 ar   
    12   10   13 1    
    13   13   14 1    
    14   14   15 1    
    15   15   16 1    
    16   15   17 1    
    17   16   21 1    
    18   17   18 1    
    19   17   19 1    
    20   19   20 1    
    21   19   21 1    
    22   21   22 1    
    23   22   23 1    
    24   22   32 1    
    25   23   24 2    
    26   24   25 1    
    27   25   26 1    
    28   25   32 2    
    29   26   27 2    
    30   26   28 am   
    31   28   29 1    
    32   29   30 1    
    33   29   31 2    
    34   31   32 1    
@<TRIPOS>SUBSTRUCTURE
     1 GTP401      1 GROUP   
@<TRIPOS>SET
ATOM$ORANGE STATIC     ATOMS   COLORGROUP SYSTEM 
20 14 14 15 15 17 17 19 19 21 21 23 23 25 25 26 26 29 \
29 32 32 

