#    Name: 6sb2_2_GDP
#    Modification time : Fri May 22 19:26:48 2020

@<TRIPOS>MOLECULE
6sb2_2_GDP
   28    30     1     0     1
SMALL
NO_CHARGES


@<TRIPOS>ATOM
      1 PB         96.0830  270.1830  198.8790 P.3       1 GDP401      0.0000 
      2 O1B        96.3990  271.4080  198.0410 O.co2     1 GDP401      0.0000 
      3 O2B        95.7480  268.9150  198.1110 O.co2     1 GDP401      0.0000 
      4 O3B        95.1410  270.4830  199.9700 O.co2     1 GDP401      0.0000 
      5 O3A        97.4510  269.8680  199.6740 O.3       1 GDP401      0.0000 
      6 PA         98.1950  268.4690  199.4520 P.3       1 GDP401      0.0000 
      7 O1A        98.9440  268.6240  198.1600 O.co2     1 GDP401      0.0000 
      8 O2A        97.2120  267.3550  199.6420 O.co2     1 GDP401      0.0000 
      9 O5'        99.2140  268.4040  200.6770 O.3       1 GDP401      0.0000 
     10 C5'       100.0570  269.5640  200.8390 C.3       1 GDP401      0.0000 
     11 C4'       101.3520  269.1130  201.4730 C.3       1 GDP401      0.0000 
     12 O4'       101.0590  268.8140  202.8340 O.3       1 GDP401      0.0000 
     13 C3'       101.9540  267.8440  200.8630 C.3       1 GDP401      0.0000 
     14 O3'       103.3700  267.9780  200.8140 O.3       1 GDP401      0.0000 
     15 C2'       101.5810  266.7120  201.8050 C.3       1 GDP401      0.0000 
     16 O2'       102.6040  265.7230  201.9240 O.3       1 GDP401      0.0000 
     17 C1'       101.4480  267.4760  203.1020 C.3       1 GDP401      0.0000 
     18 N9        100.4470  266.9140  204.0220 N.pl3     1 GDP401      0.0000 
     19 C8         99.1190  266.7840  203.8340 C.2       1 GDP401      0.0000 
     20 N7         98.5460  266.2520  204.9310 N.2       1 GDP401      0.0000 
     21 C5         99.5230  266.0250  205.8260 C.2       1 GDP401      0.0000 
     22 C6         99.6400  265.4990  207.1940 C.2       1 GDP401      0.0000 
     23 O6         98.6400  265.0980  207.7940 O.2       1 GDP401      0.0000 
     24 N1        100.8540  265.4570  207.7590 N.am      1 GDP401      0.0000 
     25 C2        101.9690  265.8890  207.1320 C.2       1 GDP401      0.0000 
     26 N2        103.1630  265.8220  207.7600 N.pl3     1 GDP401      0.0000 
     27 N3        101.9420  266.3950  205.8840 N.2       1 GDP401      0.0000 
     28 C4        100.7750  266.4830  205.2210 C.2       1 GDP401      0.0000 
@<TRIPOS>BOND
     1    1    2 ar   
     2    1    3 ar   
     3    1    4 ar   
     4    1    5 1    
     5    5    6 1    
     6    6    7 ar   
     7    6    8 ar   
     8    6    9 1    
     9    9   10 1    
    10   10   11 1    
    11   11   12 1    
    12   11   13 1    
    13   12   17 1    
    14   13   14 1    
    15   13   15 1    
    16   15   16 1    
    17   15   17 1    
    18   17   18 1    
    19   18   19 1    
    20   18   28 1    
    21   19   20 2    
    22   20   21 1    
    23   21   22 1    
    24   21   28 2    
    25   22   23 2    
    26   22   24 am   
    27   24   25 1    
    28   25   26 1    
    29   25   27 2    
    30   27   28 1    
@<TRIPOS>SUBSTRUCTURE
     1 GDP401      1 GROUP   
@<TRIPOS>SET
ATOM$ORANGE STATIC     ATOMS   COLORGROUP SYSTEM 
20 10 10 11 11 13 13 15 15 17 17 19 19 21 21 22 22 25 \
25 28 28 

