#    Name: 6sb2_1_GTP
#    Modification time : Fri May 22 19:26:42 2020

@<TRIPOS>MOLECULE
6sb2_1_GTP
   32    34     1     0     1
SMALL
NO_CHARGES


@<TRIPOS>ATOM
      1 PG        126.8440  256.9090  200.4000 P.3       1 GTP401      0.0000 
      2 O1G       126.8030  256.2480  201.7430 O.co2     1 GTP401      0.0000 
      3 O2G       127.3580  258.2990  200.4820 O.co2     1 GTP401      0.0000 
      4 O3G       127.5780  256.0970  199.3770 O.co2     1 GTP401      0.0000 
      5 O3B       125.3390  257.0570  199.8170 O.3       1 GTP401      0.0000 
      6 PB        124.1530  256.0210  199.5020 P.3       1 GTP401      0.0000 
      7 O1B       124.2850  254.9060  200.4840 O.co2     1 GTP401      0.0000 
      8 O2B       124.1340  255.7180  198.0530 O.co2     1 GTP401      0.0000 
      9 O3A       122.8690  256.9270  199.7930 O.3       1 GTP401      0.0000 
     10 PA        121.7180  256.8630  200.9030 P.3       1 GTP401      0.0000 
     11 O1A       122.3040  256.9420  202.2720 O.co2     1 GTP401      0.0000 
     12 O2A       120.8340  255.6970  200.5930 O.co2     1 GTP401      0.0000 
     13 O5'       120.9660  258.2460  200.6170 O.3       1 GTP401      0.0000 
     14 C5'       120.1720  258.4300  199.4400 C.3       1 GTP401      0.0000 
     15 C4'       119.2500  259.6060  199.6590 C.3       1 GTP401      0.0000 
     16 O4'       118.3270  259.6370  198.5470 O.3       1 GTP401      0.0000 
     17 C3'       118.3350  259.5430  200.8910 C.3       1 GTP401      0.0000 
     18 O3'       117.6580  260.7580  201.1780 O.3       1 GTP401      0.0000 
     19 C2'       117.2500  258.5990  200.3860 C.3       1 GTP401      0.0000 
     20 O2'       116.0610  258.6820  201.1420 O.3       1 GTP401      0.0000 
     21 C1'       117.0840  259.1130  198.9560 C.3       1 GTP401      0.0000 
     22 N9        116.6900  258.0640  198.0310 N.pl3     1 GTP401      0.0000 
     23 C8        117.1430  256.7710  198.0060 C.2       1 GTP401      0.0000 
     24 N7        116.5590  256.0340  197.0940 N.2       1 GTP401      0.0000 
     25 C5        115.6670  256.9020  196.4850 C.2       1 GTP401      0.0000 
     26 C6        114.7610  256.6740  195.4270 C.2       1 GTP401      0.0000 
     27 O6        114.5570  255.6220  194.8110 O.2       1 GTP401      0.0000 
     28 N1        114.0310  257.8210  195.1270 N.am      1 GTP401      0.0000 
     29 C2        114.1690  259.0370  195.7490 C.2       1 GTP401      0.0000 
     30 N2        113.3840  260.0250  195.3090 N.pl3     1 GTP401      0.0000 
     31 N3        115.0230  259.2630  196.7440 N.2       1 GTP401      0.0000 
     32 C4        115.7360  258.1550  197.0520 C.2       1 GTP401      0.0000 
@<TRIPOS>BOND
     1    1    2 ar   
     2    1    3 ar   
     3    1    4 ar   
     4    1    5 1    
     5    5    6 1    
     6    6    7 ar   
     7    6    8 ar   
     8    6    9 1    
     9    9   10 1    
    10   10   11 ar   
    11   10   12 ar   
    12   10   13 1    
    13   13   14 1    
    14   14   15 1    
    15   15   16 1    
    16   15   17 1    
    17   16   21 1    
    18   17   18 1    
    19   17   19 1    
    20   19   20 1    
    21   19   21 1    
    22   21   22 1    
    23   22   23 1    
    24   22   32 1    
    25   23   24 2    
    26   24   25 1    
    27   25   26 1    
    28   25   32 2    
    29   26   27 2    
    30   26   28 am   
    31   28   29 1    
    32   29   30 1    
    33   29   31 2    
    34   31   32 1    
@<TRIPOS>SUBSTRUCTURE
     1 GTP401      1 GROUP   
@<TRIPOS>SET
ATOM$ORANGE STATIC     ATOMS   COLORGROUP SYSTEM 
20 14 14 15 15 17 17 19 19 21 21 23 23 25 25 26 26 29 \
29 32 32 

