#    Name: 6sb2_4_GDP_CAVITY_N1_4
#    Modification time : Fri May 22 19:27:02 2020

@<TRIPOS>MOLECULE
6sb2_4_GDP_CAVITY_N1_4
   26     0     3     0     0
SMALL
NO_CHARGES


@<TRIPOS>ATOM
      1 N         360.2800  187.7200  206.9300 N.am      1 ALA2        0.0000 
      2 N         360.0900  189.1300  205.3500 N.am      1 ALA2        0.0000 
      3 O         360.6600  191.0500  208.4300 O.2       1 ALA2        0.0000 
      4 N         361.7000  188.1400  207.1300 N.am      1 ALA2        0.0000 
      5 N         361.5100  189.5500  205.5600 N.am      1 ALA2        0.0000 
      6 O         362.3300  192.8200  204.1000 O.2       1 ALA2        0.0000 
      7 O         362.7400  191.3800  204.1900 O.2       1 ALA2        0.0000 
      8 CA        359.6400  189.1900  208.3200 C.3       2 GLY6        0.0000 
      9 CA        361.0700  189.6100  208.5200 C.3       2 GLY6        0.0000 
     10 CA        360.4600  192.4600  206.8600 C.3       2 GLY6        0.0000 
     11 CA        361.2900  189.5800  207.0400 C.3       2 GLY6        0.0000 
     12 CA        361.7300  189.5200  204.0700 C.3       2 GLY6        0.0000 
     13 CA        361.6700  192.9100  208.5500 C.3       2 GLY6        0.0000 
     14 CA        362.0800  191.4700  208.6400 C.3       2 GLY6        0.0000 
     15 CA        361.4800  194.3200  206.9700 C.3       2 GLY6        0.0000 
     16 CA        361.8900  192.8800  207.0600 C.3       2 GLY6        0.0000 
     17 CA        362.7200  190.0000  207.2500 C.3       2 GLY6        0.0000 
     18 CA        362.9400  189.9700  205.7600 C.3       2 GLY6        0.0000 
     19 CA        363.1600  189.9400  204.2800 C.3       2 GLY6        0.0000 
     20 CA        363.5100  191.8900  208.8400 C.3       2 GLY6        0.0000 
     21 DU        359.8600  189.1600  206.8400 H         3 CUB7        0.0000 
     22 DU        360.8800  191.0200  206.9500 H         3 CUB7        0.0000 
     23 DU        361.1000  190.9900  205.4700 H         3 CUB7        0.0000 
     24 DU        362.3000  191.4400  207.1500 H         3 CUB7        0.0000 
     25 DU        362.1100  192.8500  205.5800 H         3 CUB7        0.0000 
     26 DU        362.5200  191.4100  205.6700 H         3 CUB7        0.0000 
@<TRIPOS>BOND
@<TRIPOS>SUBSTRUCTURE
     1 ALA2        1 GROUP   
     2 GLY6        8 GROUP   
     3 CUB7       21 GROUP   
@<TRIPOS>SET

