#    Name: 6sb2_4_GDP
#    Modification time : Fri May 22 19:27:01 2020

@<TRIPOS>MOLECULE
6sb2_4_GDP
   28    30     1     0     1
SMALL
NO_CHARGES


@<TRIPOS>ATOM
      1 PB        362.1510  186.7970  199.9250 P.3       1 GDP401      0.0000 
      2 O1B       361.9450  185.6120  199.0440 O.co2     1 GDP401      0.0000 
      3 O2B       362.4800  188.0070  199.1570 O.co2     1 GDP401      0.0000 
      4 O3B       363.0690  186.5050  201.0620 O.co2     1 GDP401      0.0000 
      5 O3A       360.8070  187.1100  200.7390 O.3       1 GDP401      0.0000 
      6 PA        360.0190  188.4760  200.4290 P.3       1 GDP401      0.0000 
      7 O1A       359.2980  188.3130  199.1090 O.co2     1 GDP401      0.0000 
      8 O2A       360.9640  189.6070  200.6970 O.co2     1 GDP401      0.0000 
      9 O5'       358.9530  188.5240  201.6190 O.3       1 GDP401      0.0000 
     10 C5'       358.0510  187.4430  201.7860 C.3       1 GDP401      0.0000 
     11 C4'       356.7750  188.0140  202.3560 C.3       1 GDP401      0.0000 
     12 O4'       357.0960  188.3250  203.6970 O.3       1 GDP401      0.0000 
     13 C3'       356.2560  189.3060  201.7080 C.3       1 GDP401      0.0000 
     14 O3'       354.8380  189.2250  201.6420 O.3       1 GDP401      0.0000 
     15 C2'       356.6540  190.4330  202.6460 C.3       1 GDP401      0.0000 
     16 O2'       355.6690  191.4610  202.7430 O.3       1 GDP401      0.0000 
     17 C1'       356.7420  189.6760  203.9600 C.3       1 GDP401      0.0000 
     18 N9        357.7580  190.2120  204.8760 N.pl3     1 GDP401      0.0000 
     19 C8        359.0900  190.2850  204.6980 C.2       1 GDP401      0.0000 
     20 N7        359.6700  190.8220  205.8010 N.2       1 GDP401      0.0000 
     21 C5        358.6930  191.0920  206.6810 C.2       1 GDP401      0.0000 
     22 C6        358.5720  191.6350  208.0380 C.2       1 GDP401      0.0000 
     23 O6        359.5740  192.0190  208.6510 O.2       1 GDP401      0.0000 
     24 N1        357.3500  191.7170  208.5880 N.am      1 GDP401      0.0000 
     25 C2        356.2330  191.3090  207.9550 C.2       1 GDP401      0.0000 
     26 N2        355.0300  191.4160  208.5590 N.pl3     1 GDP401      0.0000 
     27 N3        356.2620  190.7930  206.7150 N.2       1 GDP401      0.0000 
     28 C4        357.4380  190.6630  206.0660 C.2       1 GDP401      0.0000 
@<TRIPOS>BOND
     1    1    2 ar   
     2    1    3 ar   
     3    1    4 ar   
     4    1    5 1    
     5    5    6 1    
     6    6    7 ar   
     7    6    8 ar   
     8    6    9 1    
     9    9   10 1    
    10   10   11 1    
    11   11   12 1    
    12   11   13 1    
    13   12   17 1    
    14   13   14 1    
    15   13   15 1    
    16   15   16 1    
    17   15   17 1    
    18   17   18 1    
    19   18   19 1    
    20   18   28 1    
    21   19   20 2    
    22   20   21 1    
    23   21   22 1    
    24   21   28 2    
    25   22   23 2    
    26   22   24 am   
    27   24   25 1    
    28   25   26 1    
    29   25   27 2    
    30   27   28 1    
@<TRIPOS>SUBSTRUCTURE
     1 GDP401      1 GROUP   
@<TRIPOS>SET
ATOM$ORANGE STATIC     ATOMS   COLORGROUP SYSTEM 
20 10 10 11 11 13 13 15 15 17 17 19 19 21 21 22 22 25 \
25 28 28 

