#    Name: 6tdy_3_ATP
#    Modification time : Fri May 22 19:30:37 2020

@<TRIPOS>MOLECULE
6tdy_3_ATP
   43    45     1     0     1
SMALL
NO_CHARGES


@<TRIPOS>ATOM
      1 PG        331.9200  236.5090  305.1960 P.3       1 ATP601      0.0000 
      2 O1G       331.4560  236.5770  306.6130 O.co2     1 ATP601      0.0000 
      3 O2G       332.7250  235.2980  304.7980 O.co2     1 ATP601      0.0000 
      4 O3G       332.4550  237.8630  304.8740 O.co2     1 ATP601      0.0000 
      5 PB        329.4070  237.4230  304.6270 P.3       1 ATP601      0.0000 
      6 O1B       328.1170  236.6600  304.5140 O.co2     1 ATP601      0.0000 
      7 O2B       329.7580  238.1700  305.8970 O.co2     1 ATP601      0.0000 
      8 O3B       330.6000  236.4100  304.3060 O.3       1 ATP601      0.0000 
      9 PA        328.8720  239.9060  303.4780 P.3       1 ATP601      0.0000 
     10 O1A       329.9340  240.8030  304.0420 O.co2     1 ATP601      0.0000 
     11 O2A       327.4910  239.8760  304.0860 O.co2     1 ATP601      0.0000 
     12 O3A       329.4780  238.4240  303.3890 O.3       1 ATP601      0.0000 
     13 O5'       328.7510  240.2680  301.9300 O.3       1 ATP601      0.0000 
     14 C5'       329.8830  239.9450  301.1580 C.3       1 ATP601      0.0000 
     15 C4'       329.8860  240.6440  299.8100 C.3       1 ATP601      0.0000 
     16 O4'       328.6410  240.4340  299.1440 O.3       1 ATP601      0.0000 
     17 C3'       330.0700  242.1440  299.9390 C.3       1 ATP601      0.0000 
     18 O3'       330.9070  242.6020  298.8870 O.3       1 ATP601      0.0000 
     19 C2'       328.6620  242.6720  299.8100 C.3       1 ATP601      0.0000 
     20 O2'       328.5530  244.0330  299.3810 O.3       1 ATP601      0.0000 
     21 C1'       328.0800  241.7010  298.8110 C.3       1 ATP601      0.0000 
     22 N9        326.6170  241.7110  298.9420 N.pl3     1 ATP601      0.0000 
     23 C8        325.9160  241.0510  299.8660 C.2       1 ATP601      0.0000 
     24 N7        324.5940  241.2770  299.7250 N.2       1 ATP601      0.0000 
     25 C5        324.4560  242.1100  298.6850 C.ar      1 ATP601      0.0000 
     26 C6        323.3290  242.7530  298.0030 C.ar      1 ATP601      0.0000 
     27 N6        322.0800  242.5170  298.4340 N.pl3     1 ATP601      0.0000 
     28 N1        323.5990  243.5480  296.9550 N.ar      1 ATP601      0.0000 
     29 C2        324.8560  243.7670  296.5390 C.ar      1 ATP601      0.0000 
     30 N3        325.9290  243.2190  297.1180 N.ar      1 ATP601      0.0000 
     31 C4        325.7910  242.3990  298.1760 C.ar      1 ATP601      0.0000 
     32 H5'1      329.9040  238.8760  301.0030 H         1 ATP601      0.0000 
     33 H5'2      330.7680  240.2100  301.7260 H         1 ATP601      0.0000 
     34 H4'       330.6990  240.2380  299.2040 H         1 ATP601      0.0000 
     35 H3'       330.4860  242.3990  300.9210 H         1 ATP601      0.0000 
     36 HO3'      331.0240  243.5540  298.9680 H         1 ATP601      0.0000 
     37 H2'       328.1520  242.5460  300.7740 H         1 ATP601      0.0000 
     38 HO2'      328.9800  244.6120  300.0240 H         1 ATP601      0.0000 
     39 H1'       328.3820  242.0010  297.8080 H         1 ATP601      0.0000 
     40 H8        326.3600  240.4210  300.6160 H         1 ATP601      0.0000 
     41 HN61      321.9290  241.9100  299.2210 H         1 ATP601      0.0000 
     42 HN62      321.2980  242.9430  297.9800 H         1 ATP601      0.0000 
     43 H2        325.0130  244.4210  295.6960 H         1 ATP601      0.0000 
@<TRIPOS>BOND
     1    1    2 ar   
     2    1    3 ar   
     3    1    4 ar   
     4    1    8 1    
     5    5    6 ar   
     6    5    7 ar   
     7    5    8 1    
     8    5   12 1    
     9    9   10 ar   
    10    9   11 ar   
    11    9   12 1    
    12    9   13 1    
    13   13   14 1    
    14   14   15 1    
    15   14   32 1    
    16   14   33 1    
    17   15   16 1    
    18   15   17 1    
    19   15   34 1    
    20   16   21 1    
    21   17   18 1    
    22   17   19 1    
    23   17   35 1    
    24   18   36 1    
    25   19   20 1    
    26   19   21 1    
    27   19   37 1    
    28   20   38 1    
    29   21   22 1    
    30   21   39 1    
    31   22   23 1    
    32   22   31 1    
    33   23   24 2    
    34   23   40 1    
    35   24   25 1    
    36   25   26 ar   
    37   25   31 ar   
    38   26   27 1    
    39   26   28 ar   
    40   27   41 1    
    41   27   42 1    
    42   28   29 ar   
    43   29   30 ar   
    44   29   43 1    
    45   30   31 ar   
@<TRIPOS>SUBSTRUCTURE
     1 ATP601      1 GROUP   
@<TRIPOS>SET
ATOM$ORANGE STATIC     ATOMS   COLORGROUP SYSTEM 
20 14 14 15 15 17 17 19 19 21 21 23 23 25 25 26 26 29 \
29 31 31 

