#    Name: 6tdy_4_ADP
#    Modification time : Fri May 22 19:30:49 2020

@<TRIPOS>MOLECULE
6tdy_4_ADP
   39    41     1     0     1
SMALL
NO_CHARGES


@<TRIPOS>ATOM
      1 PB        308.9150  221.3390  313.6250 P.3       1 ADP601      0.0000 
      2 O1B       309.9270  220.6420  312.7660 O.co2     1 ADP601      0.0000 
      3 O2B       307.7680  220.4780  314.0660 O.co2     1 ADP601      0.0000 
      4 O3B       309.4920  222.2060  314.7110 O.co2     1 ADP601      0.0000 
      5 PA        306.9150  223.1820  313.0630 P.3       1 ADP601      0.0000 
      6 O1A       305.8440  222.2200  313.4900 O.co2     1 ADP601      0.0000 
      7 O2A       307.3910  224.2800  313.9720 O.co2     1 ADP601      0.0000 
      8 O3A       308.2040  222.3470  312.6160 O.3       1 ADP601      0.0000 
      9 O5'       306.4530  223.8280  311.6790 O.3       1 ADP601      0.0000 
     10 C5'       307.4410  224.5350  310.9770 C.3       1 ADP601      0.0000 
     11 C4'       306.9740  225.1930  309.6950 C.3       1 ADP601      0.0000 
     12 O4'       306.4720  224.2590  308.7400 O.3       1 ADP601      0.0000 
     13 C3'       305.8570  226.1520  309.9650 C.3       1 ADP601      0.0000 
     14 O3'       306.4000  227.3730  310.4300 O.3       1 ADP601      0.0000 
     15 C2'       305.1890  226.2260  308.6160 C.3       1 ADP601      0.0000 
     16 O2'       305.8500  227.1740  307.7830 O.3       1 ADP601      0.0000 
     17 C1'       305.3690  224.8380  308.0410 C.3       1 ADP601      0.0000 
     18 N9        304.1560  224.0240  308.2750 N.pl3     1 ADP601      0.0000 
     19 C8        304.0550  223.0190  309.1560 C.2       1 ADP601      0.0000 
     20 N7        302.8150  222.4760  309.1320 N.2       1 ADP601      0.0000 
     21 C5        302.1030  223.1470  308.2150 C.ar      1 ADP601      0.0000 
     22 C6        300.7300  223.0860  307.6880 C.ar      1 ADP601      0.0000 
     23 N6        299.8570  222.1750  308.1590 N.pl3     1 ADP601      0.0000 
     24 N1        300.3870  223.9680  306.7320 N.ar      1 ADP601      0.0000 
     25 C2        301.2560  224.8760  306.2630 C.ar      1 ADP601      0.0000 
     26 N3        302.5180  224.9860  306.6970 N.ar      1 ADP601      0.0000 
     27 C4        302.9930  224.1600  307.6490 C.ar      1 ADP601      0.0000 
     28 H5'1      308.2140  223.8490  310.7450 H         1 ADP601      0.0000 
     29 H5'2      307.8580  225.2810  311.6410 H         1 ADP601      0.0000 
     30 H4'       307.8100  225.7460  309.2630 H         1 ADP601      0.0000 
     31 H3'       305.1550  225.7220  310.6890 H         1 ADP601      0.0000 
     32 HO3'      305.8980  227.5860  311.2170 H         1 ADP601      0.0000 
     33 H2'       304.1280  226.4710  308.7280 H         1 ADP601      0.0000 
     34 HO2'      305.7540  228.0550  308.1600 H         1 ADP601      0.0000 
     35 H1'       305.5820  224.9120  306.9760 H         1 ADP601      0.0000 
     36 H8        304.8540  222.6870  309.8000 H         1 ADP601      0.0000 
     37 HN61      300.1470  221.5290  308.8780 H         1 ADP601      0.0000 
     38 HN62      298.9180  222.1420  307.7910 H         1 ADP601      0.0000 
     39 H2        300.9230  225.5560  305.4960 H         1 ADP601      0.0000 
@<TRIPOS>BOND
     1    1    2 ar   
     2    1    3 ar   
     3    1    4 ar   
     4    1    8 1    
     5    5    6 ar   
     6    5    7 ar   
     7    5    8 1    
     8    5    9 1    
     9    9   10 1    
    10   10   11 1    
    11   10   28 1    
    12   10   29 1    
    13   11   12 1    
    14   11   13 1    
    15   11   30 1    
    16   12   17 1    
    17   13   14 1    
    18   13   15 1    
    19   13   31 1    
    20   14   32 1    
    21   15   16 1    
    22   15   17 1    
    23   15   33 1    
    24   16   34 1    
    25   17   18 1    
    26   17   35 1    
    27   18   19 1    
    28   18   27 1    
    29   19   20 2    
    30   19   36 1    
    31   20   21 1    
    32   21   22 ar   
    33   21   27 ar   
    34   22   23 1    
    35   22   24 ar   
    36   23   37 1    
    37   23   38 1    
    38   24   25 ar   
    39   25   26 ar   
    40   25   39 1    
    41   26   27 ar   
@<TRIPOS>SUBSTRUCTURE
     1 ADP601      1 GROUP   
@<TRIPOS>SET
ATOM$ORANGE STATIC     ATOMS   COLORGROUP SYSTEM 
20 10 10 11 11 13 13 15 15 17 17 19 19 21 21 22 22 25 \
25 27 27 

