#    Name: 6tdy_2_ATP
#    Modification time : Fri May 22 19:30:25 2020

@<TRIPOS>MOLECULE
6tdy_2_ATP
   43    45     1     0     1
SMALL
NO_CHARGES


@<TRIPOS>ATOM
      1 PG        354.4670  196.6780  292.6510 P.3       1 ATP601      0.0000 
      2 O1G       353.1480  196.8880  293.3410 O.co2     1 ATP601      0.0000 
      3 O2G       354.7500  195.2620  292.2330 O.co2     1 ATP601      0.0000 
      4 O3G       355.6360  197.3830  293.2840 O.co2     1 ATP601      0.0000 
      5 PB        355.5460  198.0880  290.5360 P.3       1 ATP601      0.0000 
      6 O1B       355.1420  199.4320  289.9970 O.co2     1 ATP601      0.0000 
      7 O2B       356.7410  197.9340  291.4450 O.co2     1 ATP601      0.0000 
      8 O3B       354.2740  197.4370  291.2560 O.3       1 ATP601      0.0000 
      9 PA        357.0380  196.6930  288.5870 P.3       1 ATP601      0.0000 
     10 O1A       357.7860  195.7440  289.4860 O.co2     1 ATP601      0.0000 
     11 O2A       357.7200  197.9190  288.0470 O.co2     1 ATP601      0.0000 
     12 O3A       355.6540  197.0940  289.2870 O.3       1 ATP601      0.0000 
     13 O5'       356.4870  195.8440  287.3530 O.3       1 ATP601      0.0000 
     14 C5'       355.6110  194.7690  287.6400 C.3       1 ATP601      0.0000 
     15 C4'       355.4110  193.8940  286.4160 C.3       1 ATP601      0.0000 
     16 O4'       355.1450  194.7250  285.2870 O.3       1 ATP601      0.0000 
     17 C3'       356.6450  193.0700  286.0870 C.3       1 ATP601      0.0000 
     18 O3'       356.2550  191.7870  285.6050 O.3       1 ATP601      0.0000 
     19 C2'       357.3200  193.8950  285.0180 C.3       1 ATP601      0.0000 
     20 O2'       358.1870  193.1760  284.1370 O.3       1 ATP601      0.0000 
     21 C1'       356.1300  194.4730  284.2890 C.3       1 ATP601      0.0000 
     22 N9        356.5380  195.7020  283.5940 N.pl3     1 ATP601      0.0000 
     23 C8        356.7430  196.9000  284.1640 C.2       1 ATP601      0.0000 
     24 N7        357.1210  197.8070  283.2390 N.2       1 ATP601      0.0000 
     25 C5        357.1590  197.1700  282.0640 C.ar      1 ATP601      0.0000 
     26 C6        357.4880  197.5460  280.6880 C.ar      1 ATP601      0.0000 
     27 N6        357.8350  198.8200  280.4490 N.pl3     1 ATP601      0.0000 
     28 N1        357.4060  196.6050  279.7300 N.ar      1 ATP601      0.0000 
     29 C2        357.0460  195.3440  280.0180 C.ar      1 ATP601      0.0000 
     30 N3        356.7430  194.9310  281.2570 N.ar      1 ATP601      0.0000 
     31 C4        356.7830  195.7850  282.2990 C.ar      1 ATP601      0.0000 
     32 H5'1      354.6520  195.1690  287.9590 H         1 ATP601      0.0000 
     33 H5'2      356.0210  194.1800  288.4600 H         1 ATP601      0.0000 
     34 H4'       354.5630  193.2230  286.5890 H         1 ATP601      0.0000 
     35 H3'       357.2930  192.9820  286.9670 H         1 ATP601      0.0000 
     36 HO3'      357.0390  191.2670  285.3970 H         1 ATP601      0.0000 
     37 H2'       357.8770  194.6980  285.5090 H         1 ATP601      0.0000 
     38 HO2'      358.9110  192.7830  284.6390 H         1 ATP601      0.0000 
     39 H1'       355.7690  193.7350  283.5700 H         1 ATP601      0.0000 
     40 H8        356.6250  197.1130  285.2170 H         1 ATP601      0.0000 
     41 HN61      357.8710  199.4760  281.2100 H         1 ATP601      0.0000 
     42 HN62      358.0570  199.1190  279.5230 H         1 ATP601      0.0000 
     43 H2        357.0040  194.6230  279.2150 H         1 ATP601      0.0000 
@<TRIPOS>BOND
     1    1    2 ar   
     2    1    3 ar   
     3    1    4 ar   
     4    1    8 1    
     5    5    6 ar   
     6    5    7 ar   
     7    5    8 1    
     8    5   12 1    
     9    9   10 ar   
    10    9   11 ar   
    11    9   12 1    
    12    9   13 1    
    13   13   14 1    
    14   14   15 1    
    15   14   32 1    
    16   14   33 1    
    17   15   16 1    
    18   15   17 1    
    19   15   34 1    
    20   16   21 1    
    21   17   18 1    
    22   17   19 1    
    23   17   35 1    
    24   18   36 1    
    25   19   20 1    
    26   19   21 1    
    27   19   37 1    
    28   20   38 1    
    29   21   22 1    
    30   21   39 1    
    31   22   23 1    
    32   22   31 1    
    33   23   24 2    
    34   23   40 1    
    35   24   25 1    
    36   25   26 ar   
    37   25   31 ar   
    38   26   27 1    
    39   26   28 ar   
    40   27   41 1    
    41   27   42 1    
    42   28   29 ar   
    43   29   30 ar   
    44   29   43 1    
    45   30   31 ar   
@<TRIPOS>SUBSTRUCTURE
     1 ATP601      1 GROUP   
@<TRIPOS>SET
ATOM$ORANGE STATIC     ATOMS   COLORGROUP SYSTEM 
20 14 14 15 15 17 17 19 19 21 21 23 23 25 25 26 26 29 \
29 31 31 

