#    Name: 6tdy_1_ATP
#    Modification time : Fri May 22 19:30:11 2020

@<TRIPOS>MOLECULE
6tdy_1_ATP
   43    45     1     0     1
SMALL
NO_CHARGES


@<TRIPOS>ATOM
      1 PG        309.9190  195.8630  313.3740 P.3       1 ATP601      0.0000 
      2 O1G       310.9200  196.5910  312.5200 O.co2     1 ATP601      0.0000 
      3 O2G       308.9870  196.7640  314.1380 O.co2     1 ATP601      0.0000 
      4 O3G       310.4830  194.7110  314.1720 O.co2     1 ATP601      0.0000 
      5 PB        309.5090  193.8770  311.4820 P.3       1 ATP601      0.0000 
      6 O1B       310.4750  194.3910  310.4580 O.co2     1 ATP601      0.0000 
      7 O2B       309.9130  192.8080  312.4650 O.co2     1 ATP601      0.0000 
      8 O3B       308.9700  195.1390  312.3070 O.3       1 ATP601      0.0000 
      9 PA        307.1300  192.3900  311.2940 P.3       1 ATP601      0.0000 
     10 O1A       306.7250  192.9080  312.6490 O.co2     1 ATP601      0.0000 
     11 O2A       307.6100  190.9670  311.1470 O.co2     1 ATP601      0.0000 
     12 O3A       308.1980  193.4230  310.6820 O.3       1 ATP601      0.0000 
     13 O5'       305.9010  192.6340  310.3020 O.3       1 ATP601      0.0000 
     14 C5'       305.4750  193.9740  310.1610 C.3       1 ATP601      0.0000 
     15 C4'       304.1650  194.0960  309.3930 C.3       1 ATP601      0.0000 
     16 O4'       304.2950  193.4520  308.1360 O.3       1 ATP601      0.0000 
     17 C3'       302.9780  193.4700  310.1140 C.3       1 ATP601      0.0000 
     18 O3'       301.9890  194.4700  310.3480 O.3       1 ATP601      0.0000 
     19 C2'       302.4880  192.3710  309.1900 C.3       1 ATP601      0.0000 
     20 O2'       301.0610  192.2560  309.1180 O.3       1 ATP601      0.0000 
     21 C1'       303.0910  192.7580  307.8540 C.3       1 ATP601      0.0000 
     22 N9        303.3570  191.5830  307.0070 N.pl3     1 ATP601      0.0000 
     23 C8        304.4120  190.7550  307.0590 C.2       1 ATP601      0.0000 
     24 N7        304.3030  189.7880  306.1190 N.2       1 ATP601      0.0000 
     25 C5        303.1580  190.0080  305.4580 C.ar      1 ATP601      0.0000 
     26 C6        302.4250  189.3700  304.3600 C.ar      1 ATP601      0.0000 
     27 N6        302.9340  188.2810  303.7650 N.pl3     1 ATP601      0.0000 
     28 N1        301.2620  189.9200  303.9680 N.ar      1 ATP601      0.0000 
     29 C2        300.7590  191.0110  304.5620 C.ar      1 ATP601      0.0000 
     30 N3        301.3680  191.6370  305.5730 N.ar      1 ATP601      0.0000 
     31 C4        302.5420  191.1870  306.0530 C.ar      1 ATP601      0.0000 
     32 H5'1      306.2470  194.5280  309.6440 H         1 ATP601      0.0000 
     33 H5'2      305.3700  194.4100  311.1470 H         1 ATP601      0.0000 
     34 H4'       303.9540  195.1540  309.2260 H         1 ATP601      0.0000 
     35 H3'       303.3110  193.0280  311.0610 H         1 ATP601      0.0000 
     36 HO3'      301.2420  194.0910  310.8260 H         1 ATP601      0.0000 
     37 H2'       302.9090  191.4140  309.5230 H         1 ATP601      0.0000 
     38 HO2'      300.7020  192.0150  309.9820 H         1 ATP601      0.0000 
     39 H1'       302.3940  193.4220  307.3510 H         1 ATP601      0.0000 
     40 H8        305.2330  190.8400  307.7530 H         1 ATP601      0.0000 
     41 HN61      303.8110  187.9060  304.0870 H         1 ATP601      0.0000 
     42 HN62      302.4360  187.8470  303.0060 H         1 ATP601      0.0000 
     43 H2        299.8180  191.4040  304.2140 H         1 ATP601      0.0000 
@<TRIPOS>BOND
     1    1    2 ar   
     2    1    3 ar   
     3    1    4 ar   
     4    1    8 1    
     5    5    6 ar   
     6    5    7 ar   
     7    5    8 1    
     8    5   12 1    
     9    9   10 ar   
    10    9   11 ar   
    11    9   12 1    
    12    9   13 1    
    13   13   14 1    
    14   14   15 1    
    15   14   32 1    
    16   14   33 1    
    17   15   16 1    
    18   15   17 1    
    19   15   34 1    
    20   16   21 1    
    21   17   18 1    
    22   17   19 1    
    23   17   35 1    
    24   18   36 1    
    25   19   20 1    
    26   19   21 1    
    27   19   37 1    
    28   20   38 1    
    29   21   22 1    
    30   21   39 1    
    31   22   23 1    
    32   22   31 1    
    33   23   24 2    
    34   23   40 1    
    35   24   25 1    
    36   25   26 ar   
    37   25   31 ar   
    38   26   27 1    
    39   26   28 ar   
    40   27   41 1    
    41   27   42 1    
    42   28   29 ar   
    43   29   30 ar   
    44   29   43 1    
    45   30   31 ar   
@<TRIPOS>SUBSTRUCTURE
     1 ATP601      1 GROUP   
@<TRIPOS>SET
ATOM$ORANGE STATIC     ATOMS   COLORGROUP SYSTEM 
20 14 14 15 15 17 17 19 19 21 21 23 23 25 25 26 26 29 \
29 31 31 

