#    Name: 6tdy_5_ATP
#    Modification time : Fri May 22 19:31:03 2020

@<TRIPOS>MOLECULE
6tdy_5_ATP
   43    45     1     0     1
SMALL
NO_CHARGES


@<TRIPOS>ATOM
      1 PG        353.1870  222.7940  295.4770 P.3       1 ATP601      0.0000 
      2 O1G       354.3510  222.5010  294.5820 O.co2     1 ATP601      0.0000 
      3 O2G       352.5430  221.5830  296.0780 O.co2     1 ATP601      0.0000 
      4 O3G       353.4320  223.9240  296.4430 O.co2     1 ATP601      0.0000 
      5 PB        352.3200  224.7660  293.7580 P.3       1 ATP601      0.0000 
      6 O1B       350.9720  225.3430  293.4450 O.co2     1 ATP601      0.0000 
      7 O2B       353.3570  225.5300  294.5420 O.co2     1 ATP601      0.0000 
      8 O3B       352.0800  223.3550  294.4680 O.3       1 ATP601      0.0000 
      9 PA        353.6810  225.4420  291.4310 P.3       1 ATP601      0.0000 
     10 O1A       355.1600  225.3180  291.6670 O.co2     1 ATP601      0.0000 
     11 O2A       352.9690  226.7480  291.6310 O.co2     1 ATP601      0.0000 
     12 O3A       352.9500  224.3570  292.3560 O.3       1 ATP601      0.0000 
     13 O5'       353.3710  224.9140  289.9510 O.3       1 ATP601      0.0000 
     14 C5'       353.2330  223.5150  289.8360 C.3       1 ATP601      0.0000 
     15 C4'       353.1300  222.9760  288.4280 C.3       1 ATP601      0.0000 
     16 O4'       352.0750  223.6310  287.7160 O.3       1 ATP601      0.0000 
     17 C3'       354.4050  223.1800  287.6440 C.3       1 ATP601      0.0000 
     18 O3'       354.6270  222.0850  286.7830 O.3       1 ATP601      0.0000 
     19 C2'       354.0640  224.3770  286.8220 C.3       1 ATP601      0.0000 
     20 O2'       354.7920  224.4700  285.6250 O.3       1 ATP601      0.0000 
     21 C1'       352.6060  224.2170  286.5360 C.3       1 ATP601      0.0000 
     22 N9        352.0630  225.5580  286.2820 N.pl3     1 ATP601      0.0000 
     23 C8        351.5890  226.3940  287.2040 C.2       1 ATP601      0.0000 
     24 N7        351.1750  227.5520  286.6430 N.2       1 ATP601      0.0000 
     25 C5        351.4050  227.4470  285.3270 C.ar      1 ATP601      0.0000 
     26 C6        351.2160  228.3010  284.1450 C.ar      1 ATP601      0.0000 
     27 N6        350.6670  229.5250  284.2750 N.pl3     1 ATP601      0.0000 
     28 N1        351.5850  227.8080  282.9480 N.ar      1 ATP601      0.0000 
     29 C2        352.1200  226.5860  282.8170 C.ar      1 ATP601      0.0000 
     30 N3        352.3280  225.7640  283.8490 N.ar      1 ATP601      0.0000 
     31 C4        351.9940  226.1320  285.0990 C.ar      1 ATP601      0.0000 
     32 H5'1      352.3280  223.2270  290.3460 H         1 ATP601      0.0000 
     33 H5'2      354.0730  223.0530  290.3340 H         1 ATP601      0.0000 
     34 H4'       352.9180  221.9050  288.4780 H         1 ATP601      0.0000 
     35 H3'       355.2610  223.3670  288.3060 H         1 ATP601      0.0000 
     36 HO3'      355.4620  222.2080  286.3250 H         1 ATP601      0.0000 
     37 H2'       354.2350  225.2720  287.4330 H         1 ATP601      0.0000 
     38 HO2'      355.4180  225.1300  285.9040 H         1 ATP601      0.0000 
     39 H1'       352.4860  223.5660  285.6690 H         1 ATP601      0.0000 
     40 H8        351.5450  226.1560  288.2500 H         1 ATP601      0.0000 
     41 HN61      350.3960  229.8590  285.1870 H         1 ATP601      0.0000 
     42 HN62      350.5330  230.1020  283.4600 H         1 ATP601      0.0000 
     43 H2        352.4030  226.2480  281.8340 H         1 ATP601      0.0000 
@<TRIPOS>BOND
     1    1    2 ar   
     2    1    3 ar   
     3    1    4 ar   
     4    1    8 1    
     5    5    6 ar   
     6    5    7 ar   
     7    5    8 1    
     8    5   12 1    
     9    9   10 ar   
    10    9   11 ar   
    11    9   12 1    
    12    9   13 1    
    13   13   14 1    
    14   14   15 1    
    15   14   32 1    
    16   14   33 1    
    17   15   16 1    
    18   15   17 1    
    19   15   34 1    
    20   16   21 1    
    21   17   18 1    
    22   17   19 1    
    23   17   35 1    
    24   18   36 1    
    25   19   20 1    
    26   19   21 1    
    27   19   37 1    
    28   20   38 1    
    29   21   22 1    
    30   21   39 1    
    31   22   23 1    
    32   22   31 1    
    33   23   24 2    
    34   23   40 1    
    35   24   25 1    
    36   25   26 ar   
    37   25   31 ar   
    38   26   27 1    
    39   26   28 ar   
    40   27   41 1    
    41   27   42 1    
    42   28   29 ar   
    43   29   30 ar   
    44   29   43 1    
    45   30   31 ar   
@<TRIPOS>SUBSTRUCTURE
     1 ATP601      1 GROUP   
@<TRIPOS>SET
ATOM$ORANGE STATIC     ATOMS   COLORGROUP SYSTEM 
20 14 14 15 15 17 17 19 19 21 21 23 23 25 25 26 26 29 \
29 31 31 

