#    Name: 6nj7_3_NAP
#    Modification time : Fri May 22 19:37:06 2020

@<TRIPOS>MOLECULE
6nj7_3_NAP
   48    52     1     0     1
SMALL
NO_CHARGES


@<TRIPOS>ATOM
      1 PA          6.7150   49.1610   12.7300 P.3       1 NAP500      0.0000 
      2 O1A         5.7290   48.7830   13.8310 O.co2     1 NAP500      0.0000 
      3 O2A         6.2290   49.6250   11.4070 O.co2     1 NAP500      0.0000 
      4 O5B         7.6470   50.2780   13.3170 O.3       1 NAP500      0.0000 
      5 C5B         8.7340   50.8250   12.5410 C.3       1 NAP500      0.0000 
      6 C4B         9.3920   51.9630   13.2830 C.3       1 NAP500      0.0000 
      7 O4B        10.3600   52.6570   12.4420 O.3       1 NAP500      0.0000 
      8 C3B         8.3840   53.0130   13.7120 C.3       1 NAP500      0.0000 
      9 O3B         8.7250   53.5200   14.9910 O.3       1 NAP500      0.0000 
     10 C2B         8.5490   54.1020   12.6950 C.3       1 NAP500      0.0000 
     11 O2B         8.2010   55.3470   13.3080 O.3       1 NAP500      0.0000 
     12 C1B        10.0270   54.0320   12.3650 C.3       1 NAP500      0.0000 
     13 N9A        10.3910   54.5530   11.0510 N.pl3     1 NAP500      0.0000 
     14 C8A         9.7770   54.3850    9.8370 C.2       1 NAP500      0.0000 
     15 N7A        10.4090   54.9910    8.8470 N.2       1 NAP500      0.0000 
     16 C5A        11.5020   55.5920    9.4390 C.ar      1 NAP500      0.0000 
     17 C6A        12.5890   56.3930    8.9880 C.ar      1 NAP500      0.0000 
     18 N6A        12.7410   56.7470    7.7040 N.pl3     1 NAP500      0.0000 
     19 N1A        13.5280   56.8190    9.8800 N.ar      1 NAP500      0.0000 
     20 C2A        13.3820   56.4720   11.1580 C.ar      1 NAP500      0.0000 
     21 N3A        12.4000   55.7300   11.6850 N.ar      1 NAP500      0.0000 
     22 C4A        11.4930   55.3210   10.7970 C.ar      1 NAP500      0.0000 
     23 O3          7.6750   47.9220   12.5750 O.3       1 NAP500      0.0000 
     24 PN          7.6870   46.6580   13.5200 P.3       1 NAP500      0.0000 
     25 O1N         7.6990   47.1350   14.9760 O.co2     1 NAP500      0.0000 
     26 O2N         6.6000   45.7910   13.0380 O.co2     1 NAP500      0.0000 
     27 O5D         9.0740   45.9680   13.2660 O.3       1 NAP500      0.0000 
     28 C5D        10.2730   46.6550   13.6900 C.3       1 NAP500      0.0000 
     29 C4D        11.4900   45.8100   13.4420 C.3       1 NAP500      0.0000 
     30 O4D        11.2270   44.4010   13.6760 O.3       1 NAP500      0.0000 
     31 C3D        11.9920   45.9190   12.0140 C.3       1 NAP500      0.0000 
     32 O3D        13.4120   45.8180   12.0240 O.3       1 NAP500      0.0000 
     33 C2D        11.4180   44.7000   11.3420 C.3       1 NAP500      0.0000 
     34 O2D        12.1980   44.3510   10.2030 O.3       1 NAP500      0.0000 
     35 C1D        11.5080   43.6890   12.4960 C.3       1 NAP500      0.0000 
     36 N1N        10.5790   42.5570   12.3150 N.pl3     1 NAP500      0.0000 
     37 C2N         9.2660   42.7140   12.4750 C.ar      1 NAP500      0.0000 
     38 C3N         8.4090   41.6430   12.2970 C.ar      1 NAP500      0.0000 
     39 C7N         6.9290   41.7540   12.4620 C.2       1 NAP500      0.0000 
     40 O7N         6.2140   40.7530   12.2870 O.2       1 NAP500      0.0000 
     41 N7N         6.3580   42.9120   12.7930 N.am      1 NAP500      0.0000 
     42 C4N         8.9340   40.4070   11.9610 C.ar      1 NAP500      0.0000 
     43 C5N        10.2890   40.2720   11.7960 C.ar      1 NAP500      0.0000 
     44 C6N        11.0990   41.3610   11.9790 C.ar      1 NAP500      0.0000 
     45 P2B         7.8070   56.5990   12.4410 P.3       1 NAP500      0.0000 
     46 O1X         7.1030   57.5360   13.4140 O.co2     1 NAP500      0.0000 
     47 O2X         9.0600   57.1710   11.8610 O.co2     1 NAP500      0.0000 
     48 O3X         6.8130   56.1220   11.3790 O.co2     1 NAP500      0.0000 
@<TRIPOS>BOND
     1    1    2 ar   
     2    1    3 ar   
     3    1    4 1    
     4    1   23 1    
     5    4    5 1    
     6    5    6 1    
     7    6    7 1    
     8    6    8 1    
     9    7   12 1    
    10    8    9 1    
    11    8   10 1    
    12   10   11 1    
    13   10   12 1    
    14   11   45 1    
    15   12   13 1    
    16   13   14 1    
    17   13   22 1    
    18   14   15 2    
    19   15   16 1    
    20   16   17 ar   
    21   16   22 ar   
    22   17   18 1    
    23   17   19 ar   
    24   19   20 ar   
    25   20   21 ar   
    26   21   22 ar   
    27   23   24 1    
    28   24   25 ar   
    29   24   26 ar   
    30   24   27 1    
    31   27   28 1    
    32   28   29 1    
    33   29   30 1    
    34   29   31 1    
    35   30   35 1    
    36   31   32 1    
    37   31   33 1    
    38   33   34 1    
    39   33   35 1    
    40   35   36 1    
    41   36   37 ar   
    42   36   44 ar   
    43   37   38 ar   
    44   38   39 1    
    45   38   42 ar   
    46   39   40 2    
    47   39   41 am   
    48   42   43 ar   
    49   43   44 ar   
    50   45   46 ar   
    51   45   47 ar   
    52   45   48 ar   
@<TRIPOS>SUBSTRUCTURE
     1 NAP500      1 GROUP   
@<TRIPOS>SET
ATOM$ORANGE STATIC     ATOMS   COLORGROUP SYSTEM 
42 5 5 6 6 8 8 10 10 12 12 14 14 16 16 17 17 20 \
20 22 22 28 28 29 29 31 31 33 33 35 35 37 37 38 38 39 \
39 42 42 43 43 44 44 

