#    Name: 6nj7_1_NAP
#    Modification time : Fri May 22 19:36:59 2020

@<TRIPOS>MOLECULE
6nj7_1_NAP
   48    52     1     0     1
SMALL
NO_CHARGES


@<TRIPOS>ATOM
      1 PA         37.0210   -4.5910   23.2910 P.3       1 NAP500      0.0000 
      2 O1A        38.2680   -3.8610   23.7730 O.co2     1 NAP500      0.0000 
      3 O2A        37.1780   -5.7440   22.3530 O.co2     1 NAP500      0.0000 
      4 O5B        36.2000   -5.0040   24.5670 O.3       1 NAP500      0.0000 
      5 C5B        35.1500   -5.9950   24.4420 C.3       1 NAP500      0.0000 
      6 C4B        34.7310   -6.5150   25.7920 C.3       1 NAP500      0.0000 
      7 O4B        33.5100   -7.2890   25.6440 O.3       1 NAP500      0.0000 
      8 C3B        35.7970   -7.4370   26.3930 C.3       1 NAP500      0.0000 
      9 O3B        35.9800   -7.1650   27.7900 O.3       1 NAP500      0.0000 
     10 C2B        35.2400   -8.8210   26.0960 C.3       1 NAP500      0.0000 
     11 O2B        35.6590   -9.7950   27.0710 O.3       1 NAP500      0.0000 
     12 C1B        33.7260   -8.5980   26.1530 C.3       1 NAP500      0.0000 
     13 N9A        32.9560   -9.6440   25.4600 N.pl3     1 NAP500      0.0000 
     14 C8A        33.1840  -10.2060   24.2340 C.2       1 NAP500      0.0000 
     15 N7A        32.3190  -11.1490   23.9250 N.2       1 NAP500      0.0000 
     16 C5A        31.4720  -11.2280   25.0170 C.ar      1 NAP500      0.0000 
     17 C6A        30.3360  -12.0270   25.3390 C.ar      1 NAP500      0.0000 
     18 N6A        29.8470  -12.9440   24.4920 N.pl3     1 NAP500      0.0000 
     19 N1A        29.7240  -11.8430   26.5330 N.ar      1 NAP500      0.0000 
     20 C2A        30.2190  -10.9000   27.3540 C.ar      1 NAP500      0.0000 
     21 N3A        31.2740  -10.0950   27.1570 N.ar      1 NAP500      0.0000 
     22 C4A        31.8610  -10.3010   25.9710 C.ar      1 NAP500      0.0000 
     23 O3         36.0230   -3.5390   22.6660 O.3       1 NAP500      0.0000 
     24 PN         35.9880   -1.9670   22.7350 P.3       1 NAP500      0.0000 
     25 O1N        36.3800   -1.5340   24.1470 O.co2     1 NAP500      0.0000 
     26 O2N        36.7470   -1.5650   21.5290 O.co2     1 NAP500      0.0000 
     27 O5D        34.4820   -1.5650   22.5420 O.3       1 NAP500      0.0000 
     28 C5D        33.6970   -1.1040   23.6630 C.3       1 NAP500      0.0000 
     29 C4D        32.3600   -0.5280   23.2460 C.3       1 NAP500      0.0000 
     30 O4D        32.5380    0.7230   22.5420 O.3       1 NAP500      0.0000 
     31 C3D        31.5550   -1.3990   22.3010 C.3       1 NAP500      0.0000 
     32 O3D        30.1800   -1.2070   22.6270 O.3       1 NAP500      0.0000 
     33 C2D        31.8710   -0.8390   20.9260 C.3       1 NAP500      0.0000 
     34 O2D        30.8440   -1.1020   19.9790 O.3       1 NAP500      0.0000 
     35 C1D        31.9990    0.6540   21.2440 C.3       1 NAP500      0.0000 
     36 N1N        32.8560    1.4110   20.2930 N.pl3     1 NAP500      0.0000 
     37 C2N        34.1410    1.0810   20.1230 C.ar      1 NAP500      0.0000 
     38 C3N        34.9550    1.7920   19.2460 C.ar      1 NAP500      0.0000 
     39 C7N        36.3990    1.4610   19.0160 C.2       1 NAP500      0.0000 
     40 O7N        37.0880    2.1030   18.2110 O.2       1 NAP500      0.0000 
     41 N7N        36.9540    0.4470   19.6740 N.am      1 NAP500      0.0000 
     42 C4N        34.4120    2.8470   18.5460 C.ar      1 NAP500      0.0000 
     43 C5N        33.0900    3.1750   18.7380 C.ar      1 NAP500      0.0000 
     44 C6N        32.3250    2.4500   19.6150 C.ar      1 NAP500      0.0000 
     45 P2B        36.0690  -11.2850   26.7200 P.3       1 NAP500      0.0000 
     46 O1X        37.1870  -11.6160   27.7190 O.co2     1 NAP500      0.0000 
     47 O2X        34.8690  -12.1470   26.8570 O.co2     1 NAP500      0.0000 
     48 O3X        36.6090  -11.3250   25.2920 O.co2     1 NAP500      0.0000 
@<TRIPOS>BOND
     1    1    2 ar   
     2    1    3 ar   
     3    1    4 1    
     4    1   23 1    
     5    4    5 1    
     6    5    6 1    
     7    6    7 1    
     8    6    8 1    
     9    7   12 1    
    10    8    9 1    
    11    8   10 1    
    12   10   11 1    
    13   10   12 1    
    14   11   45 1    
    15   12   13 1    
    16   13   14 1    
    17   13   22 1    
    18   14   15 2    
    19   15   16 1    
    20   16   17 ar   
    21   16   22 ar   
    22   17   18 1    
    23   17   19 ar   
    24   19   20 ar   
    25   20   21 ar   
    26   21   22 ar   
    27   23   24 1    
    28   24   25 ar   
    29   24   26 ar   
    30   24   27 1    
    31   27   28 1    
    32   28   29 1    
    33   29   30 1    
    34   29   31 1    
    35   30   35 1    
    36   31   32 1    
    37   31   33 1    
    38   33   34 1    
    39   33   35 1    
    40   35   36 1    
    41   36   37 ar   
    42   36   44 ar   
    43   37   38 ar   
    44   38   39 1    
    45   38   42 ar   
    46   39   40 2    
    47   39   41 am   
    48   42   43 ar   
    49   43   44 ar   
    50   45   46 ar   
    51   45   47 ar   
    52   45   48 ar   
@<TRIPOS>SUBSTRUCTURE
     1 NAP500      1 GROUP   
@<TRIPOS>SET
ATOM$ORANGE STATIC     ATOMS   COLORGROUP SYSTEM 
42 5 5 6 6 8 8 10 10 12 12 14 14 16 16 17 17 20 \
20 22 22 28 28 29 29 31 31 33 33 35 35 37 37 38 38 39 \
39 42 42 43 43 44 44 

