#    Name: 6nj7_2_NAP
#    Modification time : Fri May 22 19:37:02 2020

@<TRIPOS>MOLECULE
6nj7_2_NAP
   48    52     1     0     1
SMALL
NO_CHARGES


@<TRIPOS>ATOM
      1 PA         -0.9130   -5.3740    8.7970 P.3       1 NAP500      0.0000 
      2 O1A        -2.1780   -4.8840    8.0710 O.co2     1 NAP500      0.0000 
      3 O2A        -0.9150   -5.6950   10.2520 O.co2     1 NAP500      0.0000 
      4 O5B        -0.4070   -6.6290    7.9970 O.3       1 NAP500      0.0000 
      5 C5B         0.6100   -7.4940    8.5280 C.3       1 NAP500      0.0000 
      6 C4B         0.8660   -8.6090    7.5500 C.3       1 NAP500      0.0000 
      7 O4B         1.9550   -9.4240    8.0510 O.3       1 NAP500      0.0000 
      8 C3B        -0.3290   -9.5430    7.3910 C.3       1 NAP500      0.0000 
      9 O3B        -0.4340  -10.1030    6.0820 O.3       1 NAP500      0.0000 
     10 C2B        -0.0100  -10.6620    8.3380 C.3       1 NAP500      0.0000 
     11 O2B        -0.6840  -11.8550    7.9080 O.3       1 NAP500      0.0000 
     12 C1B         1.5120  -10.7570    8.2220 C.3       1 NAP500      0.0000 
     13 N9A         2.1280  -11.3850    9.3860 N.pl3     1 NAP500      0.0000 
     14 C8A         1.8930  -11.0950   10.7000 C.2       1 NAP500      0.0000 
     15 N7A         2.5920  -11.8360   11.5170 N.2       1 NAP500      0.0000 
     16 C5A         3.3300  -12.6630   10.6840 C.ar      1 NAP500      0.0000 
     17 C6A         4.2790  -13.6860   10.9250 C.ar      1 NAP500      0.0000 
     18 N6A         4.6080  -14.0190   12.1840 N.pl3     1 NAP500      0.0000 
     19 N1A         4.8370  -14.3290    9.8650 N.ar      1 NAP500      0.0000 
     20 C2A         4.4630  -13.9550    8.6240 C.ar      1 NAP500      0.0000 
     21 N3A         3.5870  -12.9920    8.2960 N.ar      1 NAP500      0.0000 
     22 C4A         3.0480  -12.3920    9.3620 C.ar      1 NAP500      0.0000 
     23 O3          0.2450   -4.3370    8.5250 O.3       1 NAP500      0.0000 
     24 PN          0.3210   -2.9240    7.8280 P.3       1 NAP500      0.0000 
     25 O1N        -0.1470   -3.0860    6.3750 O.co2     1 NAP500      0.0000 
     26 O2N        -0.2540   -1.9440    8.7900 O.co2     1 NAP500      0.0000 
     27 O5D         1.8850   -2.7520    7.8380 O.3       1 NAP500      0.0000 
     28 C5D         2.7050   -3.4370    6.8710 C.3       1 NAP500      0.0000 
     29 C4D         4.0810   -2.8440    6.9080 C.3       1 NAP500      0.0000 
     30 O4D         3.9940   -1.4080    6.8100 O.3       1 NAP500      0.0000 
     31 C3D         4.8220   -3.1590    8.1970 C.3       1 NAP500      0.0000 
     32 O3D         6.1890   -3.3860    7.8770 O.3       1 NAP500      0.0000 
     33 C2D         4.6860   -1.8990    9.0210 C.3       1 NAP500      0.0000 
     34 O2D         5.7750   -1.7200    9.9190 O.3       1 NAP500      0.0000 
     35 C1D         4.6680   -0.8420    7.9120 C.3       1 NAP500      0.0000 
     36 N1N         4.0260    0.3950    8.4000 N.pl3     1 NAP500      0.0000 
     37 C2N         2.7000    0.4820    8.5120 C.ar      1 NAP500      0.0000 
     38 C3N         2.1050    1.6450    8.9740 C.ar      1 NAP500      0.0000 
     39 C7N         0.6200    1.8020    9.1150 C.2       1 NAP500      0.0000 
     40 O7N         0.1690    2.8690    9.5460 O.2       1 NAP500      0.0000 
     41 N7N        -0.2400    0.8280    8.7920 N.am      1 NAP500      0.0000 
     42 C4N         2.9130    2.7190    9.3260 C.ar      1 NAP500      0.0000 
     43 C5N         4.2770    2.6040    9.1960 C.ar      1 NAP500      0.0000 
     44 C6N         4.8130    1.4250    8.7430 C.ar      1 NAP500      0.0000 
     45 P2B        -1.0380  -13.0330    8.9060 P.3       1 NAP500      0.0000 
     46 O1X        -2.2910  -13.6560    8.2630 O.co2     1 NAP500      0.0000 
     47 O2X         0.1770  -13.9040    8.8470 O.co2     1 NAP500      0.0000 
     48 O3X        -1.3600  -12.5040   10.3230 O.co2     1 NAP500      0.0000 
@<TRIPOS>BOND
     1    1    2 ar   
     2    1    3 ar   
     3    1    4 1    
     4    1   23 1    
     5    4    5 1    
     6    5    6 1    
     7    6    7 1    
     8    6    8 1    
     9    7   12 1    
    10    8    9 1    
    11    8   10 1    
    12   10   11 1    
    13   10   12 1    
    14   11   45 1    
    15   12   13 1    
    16   13   14 1    
    17   13   22 1    
    18   14   15 2    
    19   15   16 1    
    20   16   17 ar   
    21   16   22 ar   
    22   17   18 1    
    23   17   19 ar   
    24   19   20 ar   
    25   20   21 ar   
    26   21   22 ar   
    27   23   24 1    
    28   24   25 ar   
    29   24   26 ar   
    30   24   27 1    
    31   27   28 1    
    32   28   29 1    
    33   29   30 1    
    34   29   31 1    
    35   30   35 1    
    36   31   32 1    
    37   31   33 1    
    38   33   34 1    
    39   33   35 1    
    40   35   36 1    
    41   36   37 ar   
    42   36   44 ar   
    43   37   38 ar   
    44   38   39 1    
    45   38   42 ar   
    46   39   40 2    
    47   39   41 am   
    48   42   43 ar   
    49   43   44 ar   
    50   45   46 ar   
    51   45   47 ar   
    52   45   48 ar   
@<TRIPOS>SUBSTRUCTURE
     1 NAP500      1 GROUP   
@<TRIPOS>SET
ATOM$ORANGE STATIC     ATOMS   COLORGROUP SYSTEM 
42 5 5 6 6 8 8 10 10 12 12 14 14 16 16 17 17 20 \
20 22 22 28 28 29 29 31 31 33 33 35 35 37 37 38 38 39 \
39 42 42 43 43 44 44 

