#    Name: 6nj7_4_NAP
#    Modification time : Fri May 22 19:37:10 2020

@<TRIPOS>MOLECULE
6nj7_4_NAP
   48    52     1     0     1
SMALL
NO_CHARGES


@<TRIPOS>ATOM
      1 PA         38.4950   40.8660  -10.8950 P.3       1 NAP500      0.0000 
      2 O1A        39.4770   39.9370  -11.6100 O.co2     1 NAP500      0.0000 
      3 O2A        39.0260   41.8950   -9.9750 O.co2     1 NAP500      0.0000 
      4 O5B        37.5450   41.5280  -11.9520 O.3       1 NAP500      0.0000 
      5 C5B        36.7210   42.6540  -11.5860 C.3       1 NAP500      0.0000 
      6 C4B        35.9400   43.0810  -12.8010 C.3       1 NAP500      0.0000 
      7 O4B        34.9560   44.1020  -12.4790 O.3       1 NAP500      0.0000 
      8 C3B        36.8650   43.6920  -13.8370 C.3       1 NAP500      0.0000 
      9 O3B        36.4620   43.2920  -15.1350 O.3       1 NAP500      0.0000 
     10 C2B        36.6680   45.1740  -13.6270 C.3       1 NAP500      0.0000 
     11 O2B        36.9430   45.9340  -14.8200 O.3       1 NAP500      0.0000 
     12 C1B        35.2040   45.2760  -13.2300 C.3       1 NAP500      0.0000 
     13 N9A        34.8860   46.4680  -12.4470 N.pl3     1 NAP500      0.0000 
     14 C8A        35.5570   47.0010  -11.3660 C.2       1 NAP500      0.0000 
     15 N7A        34.9960   48.1000  -10.8950 N.2       1 NAP500      0.0000 
     16 C5A        33.9010   48.2920  -11.7200 C.ar      1 NAP500      0.0000 
     17 C6A        32.8740   49.2570  -11.7650 C.ar      1 NAP500      0.0000 
     18 N6A        32.8370   50.2640  -10.8810 N.pl3     1 NAP500      0.0000 
     19 N1A        31.9160   49.1610  -12.7240 N.ar      1 NAP500      0.0000 
     20 C2A        31.9720   48.1340  -13.5920 C.ar      1 NAP500      0.0000 
     21 N3A        32.8910   47.1620  -13.6400 N.ar      1 NAP500      0.0000 
     22 C4A        33.8240   47.2940  -12.6810 C.ar      1 NAP500      0.0000 
     23 O3         37.4320   40.0130  -10.1030 O.3       1 NAP500      0.0000 
     24 PN         37.1970   38.4630  -10.0560 P.3       1 NAP500      0.0000 
     25 O1N        37.2050   37.9610  -11.4980 O.co2     1 NAP500      0.0000 
     26 O2N        38.1210   37.9440   -9.0290 O.co2     1 NAP500      0.0000 
     27 O5D        35.7390   38.3540   -9.4970 O.3       1 NAP500      0.0000 
     28 C5D        34.6340   37.9890  -10.3460 C.3       1 NAP500      0.0000 
     29 C4D        33.4080   37.6980   -9.5090 C.3       1 NAP500      0.0000 
     30 O4D        33.5670   36.4480   -8.8000 O.3       1 NAP500      0.0000 
     31 C3D        33.1020   38.7500   -8.4470 C.3       1 NAP500      0.0000 
     32 O3D        31.6940   38.9140   -8.3440 O.3       1 NAP500      0.0000 
     33 C2D        33.6290   38.1640   -7.1530 C.3       1 NAP500      0.0000 
     34 O2D        32.9370   38.6190   -5.9890 O.3       1 NAP500      0.0000 
     35 C1D        33.3790   36.6830   -7.4300 C.3       1 NAP500      0.0000 
     36 N1N        34.3070   35.8420   -6.6650 N.pl3     1 NAP500      0.0000 
     37 C2N        35.6050   35.8270   -6.9600 C.ar      1 NAP500      0.0000 
     38 C3N        36.4720   35.0210   -6.2270 C.ar      1 NAP500      0.0000 
     39 C7N        37.9480   34.9510   -6.4930 C.2       1 NAP500      0.0000 
     40 O7N        38.6750   34.2170   -5.8030 O.2       1 NAP500      0.0000 
     41 N7N        38.4990   35.6730   -7.4700 N.am      1 NAP500      0.0000 
     42 C4N        35.9550   34.2370   -5.1940 C.ar      1 NAP500      0.0000 
     43 C5N        34.6050   34.2750   -4.9250 C.ar      1 NAP500      0.0000 
     44 C6N        33.7970   35.0910   -5.6690 C.ar      1 NAP500      0.0000 
     45 P2B        37.8200   47.2480  -14.7550 P.3       1 NAP500      0.0000 
     46 O1X        38.4370   47.3870  -16.1500 O.co2     1 NAP500      0.0000 
     47 O2X        36.8600   48.3350  -14.4570 O.co2     1 NAP500      0.0000 
     48 O3X        38.9220   47.0580  -13.6970 O.co2     1 NAP500      0.0000 
@<TRIPOS>BOND
     1    1    2 ar   
     2    1    3 ar   
     3    1    4 1    
     4    1   23 1    
     5    4    5 1    
     6    5    6 1    
     7    6    7 1    
     8    6    8 1    
     9    7   12 1    
    10    8    9 1    
    11    8   10 1    
    12   10   11 1    
    13   10   12 1    
    14   11   45 1    
    15   12   13 1    
    16   13   14 1    
    17   13   22 1    
    18   14   15 2    
    19   15   16 1    
    20   16   17 ar   
    21   16   22 ar   
    22   17   18 1    
    23   17   19 ar   
    24   19   20 ar   
    25   20   21 ar   
    26   21   22 ar   
    27   23   24 1    
    28   24   25 ar   
    29   24   26 ar   
    30   24   27 1    
    31   27   28 1    
    32   28   29 1    
    33   29   30 1    
    34   29   31 1    
    35   30   35 1    
    36   31   32 1    
    37   31   33 1    
    38   33   34 1    
    39   33   35 1    
    40   35   36 1    
    41   36   37 ar   
    42   36   44 ar   
    43   37   38 ar   
    44   38   39 1    
    45   38   42 ar   
    46   39   40 2    
    47   39   41 am   
    48   42   43 ar   
    49   43   44 ar   
    50   45   46 ar   
    51   45   47 ar   
    52   45   48 ar   
@<TRIPOS>SUBSTRUCTURE
     1 NAP500      1 GROUP   
@<TRIPOS>SET
ATOM$ORANGE STATIC     ATOMS   COLORGROUP SYSTEM 
42 5 5 6 6 8 8 10 10 12 12 14 14 16 16 17 17 20 \
20 22 22 28 28 29 29 31 31 33 33 35 35 37 37 38 38 39 \
39 42 42 43 43 44 44 

