#    Name: 6ke3_2_NAI
#    Modification time : Fri May 22 19:28:26 2020

@<TRIPOS>MOLECULE
6ke3_2_NAI
   44    48     1     0     1
SMALL
NO_CHARGES


@<TRIPOS>ATOM
      1 PA         19.0740  -38.6480  -37.8300 P.3       1 NAI401      0.0000 
      2 O1A        18.3350  -39.0360  -39.0510 O.co2     1 NAI401      0.0000 
      3 O2A        20.4020  -39.2490  -37.6350 O.co2     1 NAI401      0.0000 
      4 O5B        19.1740  -37.0770  -37.9620 O.3       1 NAI401      0.0000 
      5 C5B        19.5920  -36.2350  -36.9060 C.3       1 NAI401      0.0000 
      6 C4B        20.1290  -34.9600  -37.5220 C.3       1 NAI401      0.0000 
      7 O4B        21.0490  -35.3130  -38.5420 O.3       1 NAI401      0.0000 
      8 C3B        19.0300  -34.1870  -38.2180 C.3       1 NAI401      0.0000 
      9 O3B        18.9090  -32.8800  -37.6620 O.3       1 NAI401      0.0000 
     10 C2B        19.4370  -34.1350  -39.6770 C.3       1 NAI401      0.0000 
     11 O2B        19.2580  -32.8550  -40.2740 O.3       1 NAI401      0.0000 
     12 C1B        20.8900  -34.4840  -39.6730 C.3       1 NAI401      0.0000 
     13 N9A        21.1020  -35.3020  -40.8520 N.pl3     1 NAI401      0.0000 
     14 C8A        21.0100  -36.6240  -40.8820 C.2       1 NAI401      0.0000 
     15 N7A        21.2590  -37.1140  -42.1140 N.2       1 NAI401      0.0000 
     16 C5A        21.5080  -36.0710  -42.8880 C.ar      1 NAI401      0.0000 
     17 C6A        21.8360  -35.8840  -44.2920 C.ar      1 NAI401      0.0000 
     18 N6A        21.9320  -36.9450  -45.1080 N.pl3     1 NAI401      0.0000 
     19 N1A        22.0300  -34.6300  -44.7260 N.ar      1 NAI401      0.0000 
     20 C2A        21.9270  -33.5670  -43.9220 C.ar      1 NAI401      0.0000 
     21 N3A        21.6220  -33.6690  -42.6230 N.ar      1 NAI401      0.0000 
     22 C4A        21.4060  -34.8750  -42.0590 C.ar      1 NAI401      0.0000 
     23 O3         18.2300  -38.9240  -36.5070 O.3       1 NAI401      0.0000 
     24 PN         16.6840  -38.5590  -36.4850 P.3       1 NAI401      0.0000 
     25 O1N        16.4570  -37.8720  -37.7800 O.co2     1 NAI401      0.0000 
     26 O2N        16.2200  -37.9390  -35.2080 O.co2     1 NAI401      0.0000 
     27 O5D        15.9900  -39.9750  -36.5580 O.3       1 NAI401      0.0000 
     28 C5D        14.9990  -40.1860  -37.5480 C.3       1 NAI401      0.0000 
     29 C4D        14.7440  -41.6770  -37.6000 C.3       1 NAI401      0.0000 
     30 O4D        15.8650  -42.3350  -38.1570 O.3       1 NAI401      0.0000 
     31 C3D        14.6210  -42.2550  -36.2130 C.3       1 NAI401      0.0000 
     32 O3D        13.2580  -42.5680  -35.9690 O.3       1 NAI401      0.0000 
     33 C2D        15.5350  -43.4630  -36.1960 C.3       1 NAI401      0.0000 
     34 O2D        14.8820  -44.6300  -35.7400 O.3       1 NAI401      0.0000 
     35 C1D        15.9230  -43.6400  -37.6310 C.3       1 NAI401      0.0000 
     36 N1N        17.2750  -44.1310  -37.7670 N.pl3     1 NAI401      0.0000 
     37 C2N        17.5720  -44.9140  -38.8020 C.2       1 NAI401      0.0000 
     38 C3N        18.8510  -45.4230  -39.0050 C.2       1 NAI401      0.0000 
     39 C7N        19.1110  -46.2880  -40.1990 C.2       1 NAI401      0.0000 
     40 O7N        20.0280  -47.0790  -40.1820 O.2       1 NAI401      0.0000 
     41 N7N        18.3310  -46.1590  -41.2570 N.am      1 NAI401      0.0000 
     42 C4N        19.9710  -45.1150  -38.0420 C.3       1 NAI401      0.0000 
     43 C5N        19.5100  -44.2560  -36.9670 C.2       1 NAI401      0.0000 
     44 C6N        18.1990  -43.7980  -36.8800 C.2       1 NAI401      0.0000 
@<TRIPOS>BOND
     1    1    2 ar   
     2    1    3 ar   
     3    1    4 1    
     4    1   23 1    
     5    4    5 1    
     6    5    6 1    
     7    6    7 1    
     8    6    8 1    
     9    7   12 1    
    10    8    9 1    
    11    8   10 1    
    12   10   11 1    
    13   10   12 1    
    14   12   13 1    
    15   13   14 1    
    16   13   22 1    
    17   14   15 2    
    18   15   16 1    
    19   16   17 ar   
    20   16   22 ar   
    21   17   18 1    
    22   17   19 ar   
    23   19   20 ar   
    24   20   21 ar   
    25   21   22 ar   
    26   23   24 1    
    27   24   25 ar   
    28   24   26 ar   
    29   24   27 1    
    30   27   28 1    
    31   28   29 1    
    32   29   30 1    
    33   29   31 1    
    34   30   35 1    
    35   31   32 1    
    36   31   33 1    
    37   33   34 1    
    38   33   35 1    
    39   35   36 1    
    40   36   37 1    
    41   36   44 1    
    42   37   38 2    
    43   38   39 1    
    44   38   42 1    
    45   39   40 2    
    46   39   41 am   
    47   42   43 1    
    48   43   44 2    
@<TRIPOS>SUBSTRUCTURE
     1 NAI401      1 GROUP   
@<TRIPOS>SET
ATOM$ORANGE STATIC     ATOMS   COLORGROUP SYSTEM 
42 5 5 6 6 8 8 10 10 12 12 14 14 16 16 17 17 20 \
20 22 22 28 28 29 29 31 31 33 33 35 35 37 37 38 38 39 \
39 42 42 43 43 44 44 

