#    Name: 6ke3_1_NAI
#    Modification time : Fri May 22 19:28:13 2020

@<TRIPOS>MOLECULE
6ke3_1_NAI
   44    48     1     0     1
SMALL
NO_CHARGES


@<TRIPOS>ATOM
      1 PA         77.4600  -44.1500   40.3800 P.3       1 NAI401      0.0000 
      2 O1A        76.6000  -43.1960   39.6430 O.co2     1 NAI401      0.0000 
      3 O2A        78.9400  -44.0630   40.3220 O.co2     1 NAI401      0.0000 
      4 O5B        77.0090  -45.5900   39.9870 O.3       1 NAI401      0.0000 
      5 C5B        77.5760  -46.7300   40.5890 C.3       1 NAI401      0.0000 
      6 C4B        78.3670  -47.2490   39.4300 C.3       1 NAI401      0.0000 
      7 O4B        79.4570  -46.3660   39.3910 O.3       1 NAI401      0.0000 
      8 C3B        78.9500  -48.6470   39.5350 C.3       1 NAI401      0.0000 
      9 O3B        78.2590  -49.5570   38.6850 O.3       1 NAI401      0.0000 
     10 C2B        80.3790  -48.4450   39.0760 C.3       1 NAI401      0.0000 
     11 O2B        80.7600  -49.1850   37.9340 O.3       1 NAI401      0.0000 
     12 C1B        80.3460  -47.0500   38.5690 C.3       1 NAI401      0.0000 
     13 N9A        81.6930  -46.5510   38.6010 N.pl3     1 NAI401      0.0000 
     14 C8A        82.1410  -45.3790   39.0110 C.2       1 NAI401      0.0000 
     15 N7A        83.4700  -45.3230   38.8260 N.2       1 NAI401      0.0000 
     16 C5A        83.8360  -46.4680   38.2800 C.ar      1 NAI401      0.0000 
     17 C6A        85.0770  -47.0580   37.8380 C.ar      1 NAI401      0.0000 
     18 N6A        86.2320  -46.3750   37.9490 N.pl3     1 NAI401      0.0000 
     19 N1A        85.0080  -48.2910   37.3220 N.ar      1 NAI401      0.0000 
     20 C2A        83.8550  -48.9590   37.2230 C.ar      1 NAI401      0.0000 
     21 N3A        82.6870  -48.4770   37.6200 N.ar      1 NAI401      0.0000 
     22 C4A        82.6510  -47.2650   38.1350 C.ar      1 NAI401      0.0000 
     23 O3         77.0440  -44.1400   41.9000 O.3       1 NAI401      0.0000 
     24 PN         75.5500  -44.0520   42.4070 P.3       1 NAI401      0.0000 
     25 O1N        75.2150  -45.3400   43.0720 O.co2     1 NAI401      0.0000 
     26 O2N        74.7230  -43.4210   41.3550 O.co2     1 NAI401      0.0000 
     27 O5D        75.6580  -42.9780   43.5580 O.3       1 NAI401      0.0000 
     28 C5D        76.9360  -42.5140   43.9690 C.3       1 NAI401      0.0000 
     29 C4D        76.8120  -41.4010   44.9810 C.3       1 NAI401      0.0000 
     30 O4D        77.8210  -40.4780   44.6590 O.3       1 NAI401      0.0000 
     31 C3D        75.4860  -40.6990   44.8700 C.3       1 NAI401      0.0000 
     32 O3D        74.8810  -40.7040   46.1440 O.3       1 NAI401      0.0000 
     33 C2D        75.7770  -39.3020   44.4020 C.3       1 NAI401      0.0000 
     34 O2D        75.2870  -38.2680   45.2520 O.3       1 NAI401      0.0000 
     35 C1D        77.2790  -39.2230   44.3090 C.3       1 NAI401      0.0000 
     36 N1N        77.5340  -39.0280   42.9070 N.pl3     1 NAI401      0.0000 
     37 C2N        78.3220  -38.0600   42.4810 C.2       1 NAI401      0.0000 
     38 C3N        78.5390  -37.9010   41.1400 C.2       1 NAI401      0.0000 
     39 C7N        79.4340  -36.8320   40.6680 C.2       1 NAI401      0.0000 
     40 O7N        80.1480  -36.9950   39.7050 O.2       1 NAI401      0.0000 
     41 N7N        79.4150  -35.7170   41.3480 N.am      1 NAI401      0.0000 
     42 C4N        77.8940  -38.7750   40.1180 C.3       1 NAI401      0.0000 
     43 C5N        77.0500  -39.7740   40.7250 C.2       1 NAI401      0.0000 
     44 C6N        76.9130  -39.8540   42.0900 C.2       1 NAI401      0.0000 
@<TRIPOS>BOND
     1    1    2 ar   
     2    1    3 ar   
     3    1    4 1    
     4    1   23 1    
     5    4    5 1    
     6    5    6 1    
     7    6    7 1    
     8    6    8 1    
     9    7   12 1    
    10    8    9 1    
    11    8   10 1    
    12   10   11 1    
    13   10   12 1    
    14   12   13 1    
    15   13   14 1    
    16   13   22 1    
    17   14   15 2    
    18   15   16 1    
    19   16   17 ar   
    20   16   22 ar   
    21   17   18 1    
    22   17   19 ar   
    23   19   20 ar   
    24   20   21 ar   
    25   21   22 ar   
    26   23   24 1    
    27   24   25 ar   
    28   24   26 ar   
    29   24   27 1    
    30   27   28 1    
    31   28   29 1    
    32   29   30 1    
    33   29   31 1    
    34   30   35 1    
    35   31   32 1    
    36   31   33 1    
    37   33   34 1    
    38   33   35 1    
    39   35   36 1    
    40   36   37 1    
    41   36   44 1    
    42   37   38 2    
    43   38   39 1    
    44   38   42 1    
    45   39   40 2    
    46   39   41 am   
    47   42   43 1    
    48   43   44 2    
@<TRIPOS>SUBSTRUCTURE
     1 NAI401      1 GROUP   
@<TRIPOS>SET
ATOM$ORANGE STATIC     ATOMS   COLORGROUP SYSTEM 
42 5 5 6 6 8 8 10 10 12 12 14 14 16 16 17 17 20 \
20 22 22 28 28 29 29 31 31 33 33 35 35 37 37 38 38 39 \
39 42 42 43 43 44 44 

