#    Name: 6pit_1_EST
#    Modification time : Fri May 22 19:39:30 2020

@<TRIPOS>MOLECULE
6pit_1_EST
   20    23     1     0     0
SMALL
NO_CHARGES


@<TRIPOS>ATOM
      1 C1          6.4220    3.2790   -6.7010 C.ar      1 EST601      0.0000 
      2 C2          7.7440    3.0520   -7.0660 C.ar      1 EST601      0.0000 
      3 C3          8.7790    3.1900   -6.1450 C.ar      1 EST601      0.0000 
      4 O3         10.0630    2.9590   -6.5360 O.3       1 EST601      0.0000 
      5 C4          8.5190    3.5630   -4.8290 C.ar      1 EST601      0.0000 
      6 C5          7.2160    3.8010   -4.4120 C.ar      1 EST601      0.0000 
      7 C6          6.9490    4.2050   -2.9780 C.3       1 EST601      0.0000 
      8 C7          5.5410    4.7670   -2.8250 C.3       1 EST601      0.0000 
      9 C8          4.5400    3.8440   -3.4990 C.3       1 EST601      0.0000 
     10 C9          4.7030    3.8980   -5.0130 C.3       1 EST601      0.0000 
     11 C10         6.1130    3.6480   -5.3980 C.ar      1 EST601      0.0000 
     12 C11         3.7420    2.9250   -5.7030 C.3       1 EST601      0.0000 
     13 C12         2.2850    3.1990   -5.3130 C.3       1 EST601      0.0000 
     14 C13         2.1510    3.2000   -3.7970 C.3       1 EST601      0.0000 
     15 C14         3.0980    4.2270   -3.2140 C.3       1 EST601      0.0000 
     16 C15         2.6600    4.3850   -1.7660 C.3       1 EST601      0.0000 
     17 C16         1.1510    4.1260   -1.8140 C.3       1 EST601      0.0000 
     18 C17         0.8200    3.6510   -3.2300 C.3       1 EST601      0.0000 
     19 O17        -0.1240    2.5780   -3.1970 O.3       1 EST601      0.0000 
     20 C18         2.4550    1.8090   -3.2460 C.3       1 EST601      0.0000 
@<TRIPOS>BOND
     1    1    2 ar   
     2    1   11 ar   
     3    2    3 ar   
     4    3    4 1    
     5    3    5 ar   
     6    5    6 ar   
     7    6    7 1    
     8    6   11 ar   
     9    7    8 1    
    10    8    9 1    
    11    9   10 1    
    12    9   15 1    
    13   10   11 1    
    14   10   12 1    
    15   12   13 1    
    16   13   14 1    
    17   14   15 1    
    18   14   18 1    
    19   14   20 1    
    20   15   16 1    
    21   16   17 1    
    22   17   18 1    
    23   18   19 1    
@<TRIPOS>SUBSTRUCTURE
     1 EST601      1 GROUP   
@<TRIPOS>SET

