#    Name: 6pit_2_EST
#    Modification time : Fri May 22 19:39:32 2020

@<TRIPOS>MOLECULE
6pit_2_EST
   20    23     1     0     0
SMALL
NO_CHARGES


@<TRIPOS>ATOM
      1 C1         -3.7710   -4.8370   25.1810 C.ar      1 EST601      0.0000 
      2 C2         -2.9650   -4.5640   26.2820 C.ar      1 EST601      0.0000 
      3 C3         -1.5760   -4.5890   26.1820 C.ar      1 EST601      0.0000 
      4 O3         -0.8170   -4.3180   27.2800 O.3       1 EST601      0.0000 
      5 C4         -0.9520   -4.8860   24.9750 C.ar      1 EST601      0.0000 
      6 C5         -1.7100   -5.1650   23.8450 C.ar      1 EST601      0.0000 
      7 C6         -1.0170   -5.4860   22.5380 C.3       1 EST601      0.0000 
      8 C7         -1.9840   -6.1550   21.5710 C.3       1 EST601      0.0000 
      9 C8         -3.2640   -5.3390   21.4840 C.3       1 EST601      0.0000 
     10 C9         -4.0540   -5.4340   22.7830 C.3       1 EST601      0.0000 
     11 C10        -3.1940   -5.1350   23.9530 C.ar      1 EST601      0.0000 
     12 C11        -5.2940   -4.5350   22.7270 C.3       1 EST601      0.0000 
     13 C12        -6.1910   -4.8900   21.5340 C.3       1 EST601      0.0000 
     14 C13        -5.3730   -4.8740   20.2490 C.3       1 EST601      0.0000 
     15 C14        -4.2000   -5.8200   20.3890 C.3       1 EST601      0.0000 
     16 C15        -3.6510   -5.9720   18.9780 C.3       1 EST601      0.0000 
     17 C16        -4.8910   -5.8200   18.0890 C.3       1 EST601      0.0000 
     18 C17        -6.0490   -5.4040   18.9980 C.3       1 EST601      0.0000 
     19 O17        -6.8450   -4.3970   18.3700 O.3       1 EST601      0.0000 
     20 C18        -4.8860   -3.4560   19.9600 C.3       1 EST601      0.0000 
@<TRIPOS>BOND
     1    1    2 ar   
     2    1   11 ar   
     3    2    3 ar   
     4    3    4 1    
     5    3    5 ar   
     6    5    6 ar   
     7    6    7 1    
     8    6   11 ar   
     9    7    8 1    
    10    8    9 1    
    11    9   10 1    
    12    9   15 1    
    13   10   11 1    
    14   10   12 1    
    15   12   13 1    
    16   13   14 1    
    17   14   15 1    
    18   14   18 1    
    19   14   20 1    
    20   15   16 1    
    21   16   17 1    
    22   17   18 1    
    23   18   19 1    
@<TRIPOS>SUBSTRUCTURE
     1 EST601      1 GROUP   
@<TRIPOS>SET

