#    Name: 5zcw_1_FAD
#    Modification time : Fri May 22 19:25:44 2020

@<TRIPOS>MOLECULE
5zcw_1_FAD
   53    58     1     0     1
SMALL
NO_CHARGES


@<TRIPOS>ATOM
      1 PA         18.6370  -21.1110    2.1290 P.3       1 FAD502      0.0000 
      2 O1A        19.1060  -22.5050    2.3990 O.co2     1 FAD502      0.0000 
      3 O2A        17.9760  -20.3710    3.2550 O.co2     1 FAD502      0.0000 
      4 O5B        17.6130  -21.0850    0.9230 O.3       1 FAD502      0.0000 
      5 C5B        17.5310  -22.2260    0.0880 C.3       1 FAD502      0.0000 
      6 C4B        16.9640  -21.7870   -1.2470 C.3       1 FAD502      0.0000 
      7 O4B        15.7250  -21.0810   -1.0960 O.3       1 FAD502      0.0000 
      8 C3B        17.9180  -20.8740   -1.9880 C.3       1 FAD502      0.0000 
      9 O3B        18.9610  -21.6020   -2.6610 O.3       1 FAD502      0.0000 
     10 C2B        16.9520  -20.1980   -2.9200 C.3       1 FAD502      0.0000 
     11 O2B        16.7220  -20.9860   -4.0840 O.3       1 FAD502      0.0000 
     12 C1B        15.6760  -20.0980   -2.1150 C.3       1 FAD502      0.0000 
     13 N9A        15.5990  -18.7680   -1.5000 N.pl3     1 FAD502      0.0000 
     14 C8A        15.9420  -18.3890   -0.2490 C.2       1 FAD502      0.0000 
     15 N7A        15.7120  -17.0540   -0.0720 N.2       1 FAD502      0.0000 
     16 C5A        15.2260  -16.5840   -1.2370 C.ar      1 FAD502      0.0000 
     17 C6A        14.7730  -15.2840   -1.7540 C.ar      1 FAD502      0.0000 
     18 N6A        14.7990  -14.1800   -0.9890 N.pl3     1 FAD502      0.0000 
     19 N1A        14.3420  -15.2290   -3.0220 N.ar      1 FAD502      0.0000 
     20 C2A        14.3220  -16.3360   -3.8020 C.ar      1 FAD502      0.0000 
     21 N3A        14.7150  -17.5590   -3.3940 N.ar      1 FAD502      0.0000 
     22 C4A        15.1590  -17.7240   -2.1540 C.ar      1 FAD502      0.0000 
     23 N1         19.7200  -16.1530   -4.5510 N.2       1 FAD502      0.0000 
     24 C2         20.3960  -16.7390   -5.5790 C.2       1 FAD502      0.0000 
     25 O2         20.2320  -17.9780   -5.7860 O.2       1 FAD502      0.0000 
     26 N3         21.2300  -16.0210   -6.3670 N.am      1 FAD502      0.0000 
     27 C4         21.4450  -14.7160   -6.1690 C.2       1 FAD502      0.0000 
     28 O4         22.2170  -14.0970   -6.9060 O.2       1 FAD502      0.0000 
     29 C4X        20.7600  -14.0230   -5.0580 C.2       1 FAD502      0.0000 
     30 N5         20.9260  -12.7030   -4.8130 N.2       1 FAD502      0.0000 
     31 C5X        20.2590  -12.0950   -3.8060 C.ar      1 FAD502      0.0000 
     32 C6         20.4560  -10.7480   -3.5980 C.ar      1 FAD502      0.0000 
     33 C7         19.7960  -10.0790   -2.5720 C.ar      1 FAD502      0.0000 
     34 C7M        20.0300   -8.6020   -2.3630 C.3       1 FAD502      0.0000 
     35 C8         18.8610  -10.8300   -1.7100 C.ar      1 FAD502      0.0000 
     36 C8M        18.1280  -10.1560   -0.5810 C.3       1 FAD502      0.0000 
     37 C9         18.6730  -12.1770   -1.9070 C.ar      1 FAD502      0.0000 
     38 C9A        19.3290  -12.8490   -2.9230 C.ar      1 FAD502      0.0000 
     39 N10        19.1390  -14.2410   -3.1470 N.pl3     1 FAD502      0.0000 
     40 C10        19.8420  -14.8440   -4.2300 C.2       1 FAD502      0.0000 
     41 C1'        18.2120  -15.0380   -2.3080 C.3       1 FAD502      0.0000 
     42 C2'        18.9170  -15.6450   -1.0930 C.3       1 FAD502      0.0000 
     43 O2'        19.7110  -14.6970   -0.3790 O.3       1 FAD502      0.0000 
     44 C3'        19.8730  -16.7510   -1.4920 C.3       1 FAD502      0.0000 
     45 O3'        19.3030  -17.6230   -2.4750 O.3       1 FAD502      0.0000 
     46 C4'        20.2770  -17.5580   -0.2690 C.3       1 FAD502      0.0000 
     47 O4'        20.9460  -16.7270    0.6770 O.3       1 FAD502      0.0000 
     48 C5'        21.1970  -18.6570   -0.7370 C.3       1 FAD502      0.0000 
     49 O5'        21.7680  -19.3560    0.3570 O.3       1 FAD502      0.0000 
     50 P          21.1730  -20.7670    0.7840 P.3       1 FAD502      0.0000 
     51 O1P        22.1190  -21.2670    1.8330 O.co2     1 FAD502      0.0000 
     52 O2P        20.8000  -21.4850   -0.4830 O.co2     1 FAD502      0.0000 
     53 O3P        19.8250  -20.2400    1.4900 O.3       1 FAD502      0.0000 
@<TRIPOS>BOND
     1    1    2 ar   
     2    1    3 ar   
     3    1    4 1    
     4    1   53 1    
     5    4    5 1    
     6    5    6 1    
     7    6    7 1    
     8    6    8 1    
     9    7   12 1    
    10    8    9 1    
    11    8   10 1    
    12   10   11 1    
    13   10   12 1    
    14   12   13 1    
    15   13   14 1    
    16   13   22 1    
    17   14   15 2    
    18   15   16 1    
    19   16   17 ar   
    20   16   22 ar   
    21   17   18 1    
    22   17   19 ar   
    23   19   20 ar   
    24   20   21 ar   
    25   21   22 ar   
    26   23   24 1    
    27   23   40 2    
    28   24   25 2    
    29   24   26 am   
    30   26   27 am   
    31   27   28 2    
    32   27   29 1    
    33   29   30 2    
    34   29   40 1    
    35   30   31 1    
    36   31   32 ar   
    37   31   38 ar   
    38   32   33 ar   
    39   33   34 1    
    40   33   35 ar   
    41   35   36 1    
    42   35   37 ar   
    43   37   38 ar   
    44   38   39 1    
    45   39   40 1    
    46   39   41 1    
    47   41   42 1    
    48   42   43 1    
    49   42   44 1    
    50   44   45 1    
    51   44   46 1    
    52   46   47 1    
    53   46   48 1    
    54   48   49 1    
    55   49   50 1    
    56   50   51 ar   
    57   50   52 ar   
    58   50   53 1    
@<TRIPOS>SUBSTRUCTURE
     1 FAD502      1 GROUP   
@<TRIPOS>SET
ATOM$ORANGE STATIC     ATOMS   COLORGROUP SYSTEM 
54 5 5 6 6 8 8 10 10 12 12 14 14 16 16 17 17 20 \
20 22 22 24 24 27 27 29 29 31 31 32 32 33 33 34 34 35 \
35 36 36 37 37 38 38 40 40 41 41 42 42 44 44 46 46 48 \
48 

