#    Name: 5zcw_2_FAD
#    Modification time : Fri May 22 19:25:53 2020

@<TRIPOS>MOLECULE
5zcw_2_FAD
   53    58     1     0     1
SMALL
NO_CHARGES


@<TRIPOS>ATOM
      1 PA         29.6340   21.6590  -32.9250 P.3       1 FAD501      0.0000 
      2 O1A        30.6570   22.6820  -33.3770 O.co2     1 FAD501      0.0000 
      3 O2A        28.6060   21.1590  -33.9220 O.co2     1 FAD501      0.0000 
      4 O5B        28.8070   22.2130  -31.6680 O.3       1 FAD501      0.0000 
      5 C5B        29.2670   23.3080  -30.8920 C.3       1 FAD501      0.0000 
      6 C4B        28.7090   23.1930  -29.4880 C.3       1 FAD501      0.0000 
      7 O4B        27.2800   23.1690  -29.5000 O.3       1 FAD501      0.0000 
      8 C3B        29.1350   21.9120  -28.8040 C.3       1 FAD501      0.0000 
      9 O3B        30.4610   21.9940  -28.2840 O.3       1 FAD501      0.0000 
     10 C2B        28.0440   21.7320  -27.7670 C.3       1 FAD501      0.0000 
     11 O2B        28.3050   22.4370  -26.5540 O.3       1 FAD501      0.0000 
     12 C1B        26.8190   22.3090  -28.4570 C.3       1 FAD501      0.0000 
     13 N9A        26.0130   21.2010  -29.0130 N.pl3     1 FAD501      0.0000 
     14 C8A        26.0200   20.7280  -30.2760 C.2       1 FAD501      0.0000 
     15 N7A        25.1510   19.6960  -30.4050 N.2       1 FAD501      0.0000 
     16 C5A        24.5810   19.4890  -29.2050 C.ar      1 FAD501      0.0000 
     17 C6A        23.5700   18.5690  -28.6240 C.ar      1 FAD501      0.0000 
     18 N6A        22.9700   17.6110  -29.3620 N.pl3     1 FAD501      0.0000 
     19 N1A        23.2680   18.7000  -27.3140 N.ar      1 FAD501      0.0000 
     20 C2A        23.8370   19.6390  -26.5350 C.ar      1 FAD501      0.0000 
     21 N3A        24.7590   20.5080  -26.9940 N.ar      1 FAD501      0.0000 
     22 C4A        25.1610   20.4840  -28.2910 C.ar      1 FAD501      0.0000 
     23 N1         28.3970   16.7990  -26.1580 N.2       1 FAD501      0.0000 
     24 C2         29.3160   16.8980  -25.1620 C.2       1 FAD501      0.0000 
     25 O2         29.8310   17.9960  -24.9030 O.2       1 FAD501      0.0000 
     26 N3         29.7220   15.8620  -24.4350 N.am      1 FAD501      0.0000 
     27 C4         29.2270   14.6450  -24.6300 C.2       1 FAD501      0.0000 
     28 O4         29.6160   13.7040  -23.9190 O.2       1 FAD501      0.0000 
     29 C4X        28.2150   14.4420  -25.6900 C.2       1 FAD501      0.0000 
     30 N5         27.6970   13.2280  -25.9320 N.2       1 FAD501      0.0000 
     31 C5X        26.7760   13.0390  -26.8920 C.ar      1 FAD501      0.0000 
     32 C6         26.2840   11.7520  -27.0770 C.ar      1 FAD501      0.0000 
     33 C7         25.3320   11.5020  -28.0500 C.ar      1 FAD501      0.0000 
     34 C7M        24.8230   10.1050  -28.2150 C.3       1 FAD501      0.0000 
     35 C8         24.8390   12.6230  -28.9010 C.ar      1 FAD501      0.0000 
     36 C8M        23.8090   12.4060  -29.9850 C.3       1 FAD501      0.0000 
     37 C9         25.3400   13.9040  -28.7130 C.ar      1 FAD501      0.0000 
     38 C9A        26.2990   14.1800  -27.7360 C.ar      1 FAD501      0.0000 
     39 N10        26.8380   15.4850  -27.5160 N.pl3     1 FAD501      0.0000 
     40 C10        27.8070   15.6260  -26.4830 C.2       1 FAD501      0.0000 
     41 C1'        26.4250   16.6600  -28.3200 C.3       1 FAD501      0.0000 
     42 C2'        27.2850   16.8250  -29.6030 C.3       1 FAD501      0.0000 
     43 O2'        27.2560   15.6370  -30.4130 O.3       1 FAD501      0.0000 
     44 C3'        28.7560   17.1840  -29.3260 C.3       1 FAD501      0.0000 
     45 O3'        28.8070   18.1830  -28.2880 O.3       1 FAD501      0.0000 
     46 C4'        29.5360   17.7190  -30.5440 C.3       1 FAD501      0.0000 
     47 O4'        29.9470   16.7050  -31.4740 O.3       1 FAD501      0.0000 
     48 C5'        30.7840   18.4210  -30.0210 C.3       1 FAD501      0.0000 
     49 O5'        31.7020   18.7760  -31.0470 O.3       1 FAD501      0.0000 
     50 P          31.7980   20.2790  -31.5950 P.3       1 FAD501      0.0000 
     51 O1P        31.8740   21.1950  -30.4010 O.co2     1 FAD501      0.0000 
     52 O2P        32.8820   20.2280  -32.6440 O.co2     1 FAD501      0.0000 
     53 O3P        30.3530   20.3610  -32.3000 O.3       1 FAD501      0.0000 
@<TRIPOS>BOND
     1    1    2 ar   
     2    1    3 ar   
     3    1    4 1    
     4    1   53 1    
     5    4    5 1    
     6    5    6 1    
     7    6    7 1    
     8    6    8 1    
     9    7   12 1    
    10    8    9 1    
    11    8   10 1    
    12   10   11 1    
    13   10   12 1    
    14   12   13 1    
    15   13   14 1    
    16   13   22 1    
    17   14   15 2    
    18   15   16 1    
    19   16   17 ar   
    20   16   22 ar   
    21   17   18 1    
    22   17   19 ar   
    23   19   20 ar   
    24   20   21 ar   
    25   21   22 ar   
    26   23   24 1    
    27   23   40 2    
    28   24   25 2    
    29   24   26 am   
    30   26   27 am   
    31   27   28 2    
    32   27   29 1    
    33   29   30 2    
    34   29   40 1    
    35   30   31 1    
    36   31   32 ar   
    37   31   38 ar   
    38   32   33 ar   
    39   33   34 1    
    40   33   35 ar   
    41   35   36 1    
    42   35   37 ar   
    43   37   38 ar   
    44   38   39 1    
    45   39   40 1    
    46   39   41 1    
    47   41   42 1    
    48   42   43 1    
    49   42   44 1    
    50   44   45 1    
    51   44   46 1    
    52   46   47 1    
    53   46   48 1    
    54   48   49 1    
    55   49   50 1    
    56   50   51 ar   
    57   50   52 ar   
    58   50   53 1    
@<TRIPOS>SUBSTRUCTURE
     1 FAD501      1 GROUP   
@<TRIPOS>SET
ATOM$ORANGE STATIC     ATOMS   COLORGROUP SYSTEM 
54 5 5 6 6 8 8 10 10 12 12 14 14 16 16 17 17 20 \
20 22 22 24 24 27 27 29 29 31 31 32 32 33 33 34 34 35 \
35 36 36 37 37 38 38 40 40 41 41 42 42 44 44 46 46 48 \
48 

