#    Name: 6gcl_3_NAP_CAVITY_N1_8
#    Modification time : Fri May 22 19:31:06 2020

@<TRIPOS>MOLECULE
6gcl_3_NAP_CAVITY_N1_8
   79     0     7     0     0
SMALL
NO_CHARGES


@<TRIPOS>ATOM
      1 OG         13.1900   10.5800   36.9600 O.3       1 SER1        0.0000 
      2 OG         12.6700    8.8600   38.0900 O.3       1 SER1        0.0000 
      3 OG         12.1900   10.2800   38.0400 O.3       1 SER1        0.0000 
      4 OG         11.7000   11.6900   37.9800 O.3       1 SER1        0.0000 
      5 OG         11.6600    8.5600   39.1600 O.3       1 SER1        0.0000 
      6 OG         11.1800    9.9700   39.1100 O.3       1 SER1        0.0000 
      7 OG         10.7000   11.3900   39.0600 O.3       1 SER1        0.0000 
      8 OG         12.7100   12.0700   39.0300 O.3       1 SER1        0.0000 
      9 OG         11.7100   11.7700   40.1000 O.3       1 SER1        0.0000 
     10 OG          9.2200   12.5900   42.2000 O.3       1 SER1        0.0000 
     11 OG          8.7400   14.0100   42.1500 O.3       1 SER1        0.0000 
     12 OG          8.2200   12.2900   43.2700 O.3       1 SER1        0.0000 
     13 OG          7.7400   13.7100   43.2200 O.3       1 SER1        0.0000 
     14 OG          7.2500   15.1300   43.1700 O.3       1 SER1        0.0000 
     15 N           5.2000   11.0700   38.0200 N.am      2 ALA2        0.0000 
     16 O           4.1900   10.7700   39.0900 O.2       2 ALA2        0.0000 
     17 O           8.1700    8.9100   38.0900 O.2       2 ALA2        0.0000 
     18 N           7.6900   10.3300   38.0400 N.am      2 ALA2        0.0000 
     19 O           6.6800   10.0300   39.1100 O.2       2 ALA2        0.0000 
     20 N           6.2000   11.4500   39.0600 N.am      2 ALA2        0.0000 
     21 N           5.7200   12.8700   39.0100 N.am      2 ALA2        0.0000 
     22 N           5.2000   11.1500   40.1400 N.am      2 ALA2        0.0000 
     23 N           9.6900   11.0100   38.0100 N.am      2 ALA2        0.0000 
     24 N           9.2100   12.4300   37.9600 N.am      2 ALA2        0.0000 
     25 N           8.6900   10.7100   39.0900 N.am      2 ALA2        0.0000 
     26 N           8.2100   12.1300   39.0300 N.am      2 ALA2        0.0000 
     27 N           5.2000   11.2300   42.2600 N.am      2 ALA2        0.0000 
     28 O          11.2300   13.1900   40.0500 O.2       2 ALA2        0.0000 
     29 O           8.7000   10.8700   43.3300 O.2       2 ALA2        0.0000 
     30 O          10.2300   12.9700   43.2500 O.2       2 ALA2        0.0000 
     31 OD1         4.2400   13.9900   40.0300 O.co2     3 ASP3        0.0000 
     32 NZ         15.7200   12.9800   35.8100 N.4       4 LYS4        0.0000 
     33 NZ         15.2000   11.2600   36.9300 N.4       4 LYS4        0.0000 
     34 NZ         14.6800    9.5400   38.0600 N.4       4 LYS4        0.0000 
     35 NZ         17.6900   10.5200   36.9600 N.4       4 LYS4        0.0000 
     36 NZ         16.6800   10.2200   38.0300 N.4       4 LYS4        0.0000 
     37 CZ         14.1900   10.9600   38.0100 C.ar      5 PHE5        0.0000 
     38 CZ         16.2000   11.6400   37.9800 C.ar      5 PHE5        0.0000 
     39 CA         10.1700    9.5200   35.9400 C.3       6 GLY6        0.0000 
     40 CA          9.6500    7.8000   37.0700 C.3       6 GLY6        0.0000 
     41 CA          9.1700    9.2200   37.0200 C.3       6 GLY6        0.0000 
     42 CA          5.6800    9.7300   40.1900 C.3       6 GLY6        0.0000 
     43 CA         12.1800   10.2000   35.9200 C.3       6 GLY6        0.0000 
     44 CA         11.6600    8.4800   37.0400 C.3       6 GLY6        0.0000 
     45 CA         11.1800    9.9000   36.9900 C.3       6 GLY6        0.0000 
     46 CA         11.1400    6.7600   38.1700 C.3       6 GLY6        0.0000 
     47 CA         10.6600    8.1800   38.1200 C.3       6 GLY6        0.0000 
     48 CA          9.6500    7.8700   39.1900 C.3       6 GLY6        0.0000 
     49 CA          9.1700    9.2900   39.1400 C.3       6 GLY6        0.0000 
     50 CA          8.1700    8.9900   40.2100 C.3       6 GLY6        0.0000 
     51 CA          6.6900   10.1100   41.2300 C.3       6 GLY6        0.0000 
     52 CA          6.2000   11.5300   41.1800 C.3       6 GLY6        0.0000 
     53 CA          5.2400   14.3700   41.0800 C.3       6 GLY6        0.0000 
     54 CA          4.7200   12.6500   42.2000 C.3       6 GLY6        0.0000 
     55 CA          4.2400   14.0700   42.1500 C.3       6 GLY6        0.0000 
     56 CA         14.1900   10.8800   35.8900 C.3       6 GLY6        0.0000 
     57 CA         10.6600    8.2500   40.2400 C.3       6 GLY6        0.0000 
     58 CA         10.1800    9.6700   40.1800 C.3       6 GLY6        0.0000 
     59 CA          9.7000   11.0900   40.1300 C.3       6 GLY6        0.0000 
     60 CA          9.1800    9.3700   41.2600 C.3       6 GLY6        0.0000 
     61 CA          7.6900   10.4900   42.2800 C.3       6 GLY6        0.0000 
     62 CA          6.2500   14.7500   42.1200 C.3       6 GLY6        0.0000 
     63 CA         10.7000   11.4700   41.1800 C.3       6 GLY6        0.0000 
     64 CA          9.7000   11.1700   42.2500 C.3       6 GLY6        0.0000 
     65 CA         11.2300   13.2700   42.1700 C.3       6 GLY6        0.0000 
     66 DU          4.7200   12.5700   40.0800 H         7 CUB7        0.0000 
     67 DU         10.1800    9.6000   38.0600 H         7 CUB7        0.0000 
     68 DU          7.6900   10.4100   40.1600 H         7 CUB7        0.0000 
     69 DU          7.2100   11.8300   40.1100 H         7 CUB7        0.0000 
     70 DU          6.7300   13.2500   40.0600 H         7 CUB7        0.0000 
     71 DU          5.7200   12.9500   41.1300 H         7 CUB7        0.0000 
     72 DU         10.2200   12.8100   39.0100 H         7 CUB7        0.0000 
     73 DU          9.2200   12.5100   40.0800 H         7 CUB7        0.0000 
     74 DU          8.6900   10.7900   41.2100 H         7 CUB7        0.0000 
     75 DU          8.2100   12.2100   41.1500 H         7 CUB7        0.0000 
     76 DU          7.7300   13.6300   41.1000 H         7 CUB7        0.0000 
     77 DU          7.2100   11.9100   42.2300 H         7 CUB7        0.0000 
     78 DU          6.7300   13.3300   42.1800 H         7 CUB7        0.0000 
     79 DU         10.2200   12.8900   41.1300 H         7 CUB7        0.0000 
@<TRIPOS>BOND
@<TRIPOS>SUBSTRUCTURE
     1 SER1        1 GROUP   
     2 ALA2       15 GROUP   
     3 ASP3       31 GROUP   
     4 LYS4       32 GROUP   
     5 PHE5       37 GROUP   
     6 GLY6       39 GROUP   
     7 CUB7       66 GROUP   
@<TRIPOS>SET

