#    Name: 6gcl_3_NAP
#    Modification time : Fri May 22 19:31:03 2020

@<TRIPOS>MOLECULE
6gcl_3_NAP
   48    52     1     0     1
SMALL
NO_CHARGES


@<TRIPOS>ATOM
      1 PA          3.7160   13.2330   37.6610 P.3       1 NAP301      0.0000 
      2 O1A         3.4350   14.3870   38.5940 O.co2     1 NAP301      0.0000 
      3 O2A         4.0840   13.5500   36.2250 O.co2     1 NAP301      0.0000 
      4 O5B         4.8670   12.2930   38.2560 O.3       1 NAP301      0.0000 
      5 C5B         4.4770   11.1480   38.9930 C.3       1 NAP301      0.0000 
      6 C4B         5.5800   10.8460   39.9810 C.3       1 NAP301      0.0000 
      7 O4B         6.4030    9.8400   39.4190 O.3       1 NAP301      0.0000 
      8 C3B         6.5510   12.0300   40.1650 C.3       1 NAP301      0.0000 
      9 O3B         6.0470   13.1090   40.9710 O.3       1 NAP301      0.0000 
     10 C2B         7.8820   11.3710   40.5920 C.3       1 NAP301      0.0000 
     11 O2B         8.2150   11.2220   41.9920 O.3       1 NAP301      0.0000 
     12 C1B         7.7180    9.9610   39.9830 C.3       1 NAP301      0.0000 
     13 N9A         8.8290    9.9180   39.0190 N.pl3     1 NAP301      0.0000 
     14 C8A         9.0250   10.7220   37.9650 C.2       1 NAP301      0.0000 
     15 N7A        10.2040   10.4560   37.3470 N.2       1 NAP301      0.0000 
     16 C5A        10.7940    9.4610   38.0250 C.ar      1 NAP301      0.0000 
     17 C6A        12.0640    8.6920   37.9150 C.ar      1 NAP301      0.0000 
     18 N6A        12.9560    8.9460   36.9170 N.pl3     1 NAP301      0.0000 
     19 N1A        12.2850    7.7430   38.8650 N.ar      1 NAP301      0.0000 
     20 C2A        11.3990    7.4950   39.8520 C.ar      1 NAP301      0.0000 
     21 N3A        10.2320    8.1450   40.0200 N.ar      1 NAP301      0.0000 
     22 C4A         9.8850    9.1230   39.1500 C.ar      1 NAP301      0.0000 
     23 O3          2.4210   12.2610   37.8070 O.3       1 NAP301      0.0000 
     24 PN          0.9020   12.8350   37.8940 P.3       1 NAP301      0.0000 
     25 O1N         0.5690   12.9570   39.3330 O.co2     1 NAP301      0.0000 
     26 O2N         0.8830   14.0500   37.0140 O.co2     1 NAP301      0.0000 
     27 O5D         0.0770   11.6550   37.1240 O.3       1 NAP301      0.0000 
     28 C5D         0.2790   10.2570   37.3590 C.3       1 NAP301      0.0000 
     29 C4D         0.1320    9.3450   36.1270 C.3       1 NAP301      0.0000 
     30 O4D        -0.9900    9.5990   35.2470 O.3       1 NAP301      0.0000 
     31 C3D         1.3750    9.3160   35.2380 C.3       1 NAP301      0.0000 
     32 O3D         1.8150    7.9690   34.9790 O.3       1 NAP301      0.0000 
     33 C2D         0.9190    9.9810   33.9620 C.3       1 NAP301      0.0000 
     34 O2D         1.6700    9.5430   32.8210 O.3       1 NAP301      0.0000 
     35 C1D        -0.5720    9.7120   33.9020 C.3       1 NAP301      0.0000 
     36 N1N        -1.2430   10.8650   33.2650 N.pl3     1 NAP301      0.0000 
     37 C2N        -1.3700   12.0630   33.9180 C.ar      1 NAP301      0.0000 
     38 C3N        -1.9910   13.1360   33.2750 C.ar      1 NAP301      0.0000 
     39 C7N        -2.1780   14.5070   33.8860 C.2       1 NAP301      0.0000 
     40 O7N        -2.7050   15.3720   33.2000 O.2       1 NAP301      0.0000 
     41 N7N        -1.7510   14.7880   35.1130 N.am      1 NAP301      0.0000 
     42 C4N        -2.4530   12.9470   31.9830 C.ar      1 NAP301      0.0000 
     43 C5N        -2.3300   11.7080   31.3450 C.ar      1 NAP301      0.0000 
     44 C6N        -1.7070   10.6650   32.0040 C.ar      1 NAP301      0.0000 
     45 P2B         9.2540   12.0680   42.9350 P.3       1 NAP301      0.0000 
     46 O1X         9.3930   11.1910   44.1380 O.co2     1 NAP301      0.0000 
     47 O2X         8.4040   13.3050   43.1300 O.co2     1 NAP301      0.0000 
     48 O3X        10.5270   12.3900   42.2180 O.co2     1 NAP301      0.0000 
@<TRIPOS>BOND
     1    1    2 ar   
     2    1    3 ar   
     3    1    4 1    
     4    1   23 1    
     5    4    5 1    
     6    5    6 1    
     7    6    7 1    
     8    6    8 1    
     9    7   12 1    
    10    8    9 1    
    11    8   10 1    
    12   10   11 1    
    13   10   12 1    
    14   11   45 1    
    15   12   13 1    
    16   13   14 1    
    17   13   22 1    
    18   14   15 2    
    19   15   16 1    
    20   16   17 ar   
    21   16   22 ar   
    22   17   18 1    
    23   17   19 ar   
    24   19   20 ar   
    25   20   21 ar   
    26   21   22 ar   
    27   23   24 1    
    28   24   25 ar   
    29   24   26 ar   
    30   24   27 1    
    31   27   28 1    
    32   28   29 1    
    33   29   30 1    
    34   29   31 1    
    35   30   35 1    
    36   31   32 1    
    37   31   33 1    
    38   33   34 1    
    39   33   35 1    
    40   35   36 1    
    41   36   37 ar   
    42   36   44 ar   
    43   37   38 ar   
    44   38   39 1    
    45   38   42 ar   
    46   39   40 2    
    47   39   41 am   
    48   42   43 ar   
    49   43   44 ar   
    50   45   46 ar   
    51   45   47 ar   
    52   45   48 ar   
@<TRIPOS>SUBSTRUCTURE
     1 NAP301      1 GROUP   
@<TRIPOS>SET
ATOM$ORANGE STATIC     ATOMS   COLORGROUP SYSTEM 
42 5 5 6 6 8 8 10 10 12 12 14 14 16 16 17 17 20 \
20 22 22 28 28 29 29 31 31 33 33 35 35 37 37 38 38 39 \
39 42 42 43 43 44 44 

