#    Name: 6gcl_4_NAP
#    Modification time : Fri May 22 19:31:08 2020

@<TRIPOS>MOLECULE
6gcl_4_NAP
   48    52     1     0     1
SMALL
NO_CHARGES


@<TRIPOS>ATOM
      1 PA        -30.4060  -11.5140   26.2120 P.3       1 NAP301      0.0000 
      2 O1A       -30.7650  -12.4670   27.3560 O.co2     1 NAP301      0.0000 
      3 O2A       -30.1360  -12.1380   24.8680 O.co2     1 NAP301      0.0000 
      4 O5B       -31.5460  -10.4320   25.9330 O.3       1 NAP301      0.0000 
      5 C5B       -31.9160   -9.4590   26.8800 C.3       1 NAP301      0.0000 
      6 C4B       -33.3450   -9.0120   26.5800 C.3       1 NAP301      0.0000 
      7 O4B       -33.4530   -8.1990   25.4170 O.3       1 NAP301      0.0000 
      8 C3B       -34.2930  -10.1690   26.2910 C.3       1 NAP301      0.0000 
      9 O3B       -34.5610  -10.8570   27.5140 O.3       1 NAP301      0.0000 
     10 C2B       -35.4730   -9.5080   25.5820 C.3       1 NAP301      0.0000 
     11 O2B       -36.6350   -9.2710   26.4140 O.3       1 NAP301      0.0000 
     12 C1B       -34.8410   -8.1870   25.0580 C.3       1 NAP301      0.0000 
     13 N9A       -35.1320   -8.1700   23.6020 N.pl3     1 NAP301      0.0000 
     14 C8A       -34.6520   -9.0030   22.6450 C.2       1 NAP301      0.0000 
     15 N7A       -35.2260   -8.7220   21.4570 N.2       1 NAP301      0.0000 
     16 C5A       -36.0830   -7.6680   21.6400 C.ar      1 NAP301      0.0000 
     17 C6A       -37.0440   -6.8610   20.8090 C.ar      1 NAP301      0.0000 
     18 N6A       -37.2120   -7.0820   19.4880 N.pl3     1 NAP301      0.0000 
     19 N1A       -37.7600   -5.8800   21.4080 N.ar      1 NAP301      0.0000 
     20 C2A       -37.6170   -5.6360   22.7440 C.ar      1 NAP301      0.0000 
     21 N3A       -36.7870   -6.3350   23.5530 N.ar      1 NAP301      0.0000 
     22 C4A       -36.0300   -7.3430   23.0680 C.ar      1 NAP301      0.0000 
     23 O3        -29.1910  -10.5490   26.6390 O.3       1 NAP301      0.0000 
     24 PN        -28.1940  -10.8750   27.8550 P.3       1 NAP301      0.0000 
     25 O1N       -28.9360  -10.6470   29.1710 O.co2     1 NAP301      0.0000 
     26 O2N       -27.5610  -12.2130   27.5390 O.co2     1 NAP301      0.0000 
     27 O5D       -27.1120   -9.6470   27.7480 O.3       1 NAP301      0.0000 
     28 C5D       -27.5600   -8.2770   27.9410 C.3       1 NAP301      0.0000 
     29 C4D       -26.6860   -7.3340   27.1280 C.3       1 NAP301      0.0000 
     30 O4D       -25.2980   -7.7080   27.1910 O.3       1 NAP301      0.0000 
     31 C3D       -27.0400   -7.3500   25.6460 C.3       1 NAP301      0.0000 
     32 O3D       -26.9930   -6.0340   25.0820 O.3       1 NAP301      0.0000 
     33 C2D       -25.9680   -8.1690   24.9930 C.3       1 NAP301      0.0000 
     34 O2D       -25.7770   -7.9030   23.5810 O.3       1 NAP301      0.0000 
     35 C1D       -24.7630   -7.9400   25.8810 C.3       1 NAP301      0.0000 
     36 N1N       -23.8590   -9.1030   25.8480 N.pl3     1 NAP301      0.0000 
     37 C2N       -24.1510  -10.2860   26.4230 C.ar      1 NAP301      0.0000 
     38 C3N       -23.2300  -11.3500   26.3550 C.ar      1 NAP301      0.0000 
     39 C7N       -23.5280  -12.6670   27.0100 C.2       1 NAP301      0.0000 
     40 O7N       -22.6410  -13.5040   27.2040 O.2       1 NAP301      0.0000 
     41 N7N       -24.7810  -12.8690   27.4050 N.am      1 NAP301      0.0000 
     42 C4N       -22.0240  -11.1710   25.6680 C.ar      1 NAP301      0.0000 
     43 C5N       -21.7210   -9.9240   25.0950 C.ar      1 NAP301      0.0000 
     44 C6N       -22.6720   -8.9180   25.1950 C.ar      1 NAP301      0.0000 
     45 P2B       -37.9260  -10.2460   26.6660 P.3       1 NAP301      0.0000 
     46 O1X       -38.8360   -9.3630   27.4640 O.co2     1 NAP301      0.0000 
     47 O2X       -37.2780  -11.4340   27.3210 O.co2     1 NAP301      0.0000 
     48 O3X       -38.5490  -10.6540   25.3780 O.co2     1 NAP301      0.0000 
@<TRIPOS>BOND
     1    1    2 ar   
     2    1    3 ar   
     3    1    4 1    
     4    1   23 1    
     5    4    5 1    
     6    5    6 1    
     7    6    7 1    
     8    6    8 1    
     9    7   12 1    
    10    8    9 1    
    11    8   10 1    
    12   10   11 1    
    13   10   12 1    
    14   11   45 1    
    15   12   13 1    
    16   13   14 1    
    17   13   22 1    
    18   14   15 2    
    19   15   16 1    
    20   16   17 ar   
    21   16   22 ar   
    22   17   18 1    
    23   17   19 ar   
    24   19   20 ar   
    25   20   21 ar   
    26   21   22 ar   
    27   23   24 1    
    28   24   25 ar   
    29   24   26 ar   
    30   24   27 1    
    31   27   28 1    
    32   28   29 1    
    33   29   30 1    
    34   29   31 1    
    35   30   35 1    
    36   31   32 1    
    37   31   33 1    
    38   33   34 1    
    39   33   35 1    
    40   35   36 1    
    41   36   37 ar   
    42   36   44 ar   
    43   37   38 ar   
    44   38   39 1    
    45   38   42 ar   
    46   39   40 2    
    47   39   41 am   
    48   42   43 ar   
    49   43   44 ar   
    50   45   46 ar   
    51   45   47 ar   
    52   45   48 ar   
@<TRIPOS>SUBSTRUCTURE
     1 NAP301      1 GROUP   
@<TRIPOS>SET
ATOM$ORANGE STATIC     ATOMS   COLORGROUP SYSTEM 
42 5 5 6 6 8 8 10 10 12 12 14 14 16 16 17 17 20 \
20 22 22 28 28 29 29 31 31 33 33 35 35 37 37 38 38 39 \
39 42 42 43 43 44 44 

