#    Name: 6gcl_1_NAP
#    Modification time : Fri May 22 19:30:58 2020

@<TRIPOS>MOLECULE
6gcl_1_NAP
   48    52     1     0     1
SMALL
NO_CHARGES


@<TRIPOS>ATOM
      1 PA         13.3520  -12.1650   11.7860 P.3       1 NAP301      0.0000 
      2 O1A        13.6880  -13.2340   10.7700 O.co2     1 NAP301      0.0000 
      3 O2A        13.0180  -12.6510   13.1600 O.co2     1 NAP301      0.0000 
      4 O5B        14.5680  -11.1230   11.9880 O.3       1 NAP301      0.0000 
      5 C5B        14.8740  -10.2720   10.8930 C.3       1 NAP301      0.0000 
      6 C4B        16.3100   -9.8420   11.0620 C.3       1 NAP301      0.0000 
      7 O4B        16.4060   -9.0160   12.2080 O.3       1 NAP301      0.0000 
      8 C3B        17.2520  -11.0130   11.3610 C.3       1 NAP301      0.0000 
      9 O3B        17.5700  -11.8100   10.1910 O.3       1 NAP301      0.0000 
     10 C2B        18.4140  -10.2990   12.0480 C.3       1 NAP301      0.0000 
     11 O2B        19.5250  -10.0570   11.1790 O.3       1 NAP301      0.0000 
     12 C1B        17.7850   -8.9670   12.5510 C.3       1 NAP301      0.0000 
     13 N9A        18.0890   -8.7850   14.0160 N.pl3     1 NAP301      0.0000 
     14 C8A        17.6270   -9.5010   15.0590 C.2       1 NAP301      0.0000 
     15 N7A        18.1890   -9.0610   16.2290 N.2       1 NAP301      0.0000 
     16 C5A        19.0420   -8.0390   15.9290 C.ar      1 NAP301      0.0000 
     17 C6A        19.9660   -7.1150   16.6740 C.ar      1 NAP301      0.0000 
     18 N6A        20.1210   -7.1680   18.0330 N.pl3     1 NAP301      0.0000 
     19 N1A        20.6580   -6.1990   15.9490 N.ar      1 NAP301      0.0000 
     20 C2A        20.5230   -6.0940   14.5890 C.ar      1 NAP301      0.0000 
     21 N3A        19.7000   -6.8980   13.8570 N.ar      1 NAP301      0.0000 
     22 C4A        18.9500   -7.8610   14.4620 C.ar      1 NAP301      0.0000 
     23 O3         12.2560  -11.1650   11.1260 O.3       1 NAP301      0.0000 
     24 PN         11.2230  -11.6670    9.9980 P.3       1 NAP301      0.0000 
     25 O1N        11.9470  -11.7380    8.6580 O.co2     1 NAP301      0.0000 
     26 O2N        10.5790  -12.9090   10.5440 O.co2     1 NAP301      0.0000 
     27 O5D        10.1160  -10.4670   10.0130 O.3       1 NAP301      0.0000 
     28 C5D        10.3410   -9.1010    9.5620 C.3       1 NAP301      0.0000 
     29 C4D         9.4880   -8.1240   10.3880 C.3       1 NAP301      0.0000 
     30 O4D         8.0900   -8.5130   10.3910 O.3       1 NAP301      0.0000 
     31 C3D         9.9140   -8.0900   11.8580 C.3       1 NAP301      0.0000 
     32 O3D        10.0000   -6.7410   12.3510 O.3       1 NAP301      0.0000 
     33 C2D         8.8340   -8.8580   12.6090 C.3       1 NAP301      0.0000 
     34 O2D         8.7100   -8.4700   14.0060 O.3       1 NAP301      0.0000 
     35 C1D         7.5900   -8.6370   11.7210 C.3       1 NAP301      0.0000 
     36 N1N         6.7210   -9.7990   11.8370 N.pl3     1 NAP301      0.0000 
     37 C2N         7.0600  -11.0210   11.3130 C.ar      1 NAP301      0.0000 
     38 C3N         6.2010  -12.1230   11.4780 C.ar      1 NAP301      0.0000 
     39 C7N         6.5460  -13.4790   10.9250 C.2       1 NAP301      0.0000 
     40 O7N         5.6630  -14.3110   10.7040 O.2       1 NAP301      0.0000 
     41 N7N         7.8280  -13.7530   10.7040 N.am      1 NAP301      0.0000 
     42 C4N         5.0080  -11.9670   12.1900 C.ar      1 NAP301      0.0000 
     43 C5N         4.6920  -10.7130   12.7120 C.ar      1 NAP301      0.0000 
     44 C6N         5.5600   -9.6380   12.5210 C.ar      1 NAP301      0.0000 
     45 P2B        20.8780  -10.9850   11.1190 P.3       1 NAP301      0.0000 
     46 O1X        21.8210  -10.0450   10.3940 O.co2     1 NAP301      0.0000 
     47 O2X        20.3420  -12.2040   10.3870 O.co2     1 NAP301      0.0000 
     48 O3X        21.2980  -11.2990   12.5360 O.co2     1 NAP301      0.0000 
@<TRIPOS>BOND
     1    1    2 ar   
     2    1    3 ar   
     3    1    4 1    
     4    1   23 1    
     5    4    5 1    
     6    5    6 1    
     7    6    7 1    
     8    6    8 1    
     9    7   12 1    
    10    8    9 1    
    11    8   10 1    
    12   10   11 1    
    13   10   12 1    
    14   11   45 1    
    15   12   13 1    
    16   13   14 1    
    17   13   22 1    
    18   14   15 2    
    19   15   16 1    
    20   16   17 ar   
    21   16   22 ar   
    22   17   18 1    
    23   17   19 ar   
    24   19   20 ar   
    25   20   21 ar   
    26   21   22 ar   
    27   23   24 1    
    28   24   25 ar   
    29   24   26 ar   
    30   24   27 1    
    31   27   28 1    
    32   28   29 1    
    33   29   30 1    
    34   29   31 1    
    35   30   35 1    
    36   31   32 1    
    37   31   33 1    
    38   33   34 1    
    39   33   35 1    
    40   35   36 1    
    41   36   37 ar   
    42   36   44 ar   
    43   37   38 ar   
    44   38   39 1    
    45   38   42 ar   
    46   39   40 2    
    47   39   41 am   
    48   42   43 ar   
    49   43   44 ar   
    50   45   46 ar   
    51   45   47 ar   
    52   45   48 ar   
@<TRIPOS>SUBSTRUCTURE
     1 NAP301      1 GROUP   
@<TRIPOS>SET
ATOM$ORANGE STATIC     ATOMS   COLORGROUP SYSTEM 
42 5 5 6 6 8 8 10 10 12 12 14 14 16 16 17 17 20 \
20 22 22 28 28 29 29 31 31 33 33 35 35 37 37 38 38 39 \
39 42 42 43 43 44 44 

