#    Name: 5yg8_3_AMP
#    Modification time : Fri May 22 19:14:46 2020

@<TRIPOS>MOLECULE
5yg8_3_AMP
   23    25     1     0     1
SMALL
NO_CHARGES


@<TRIPOS>ATOM
      1 P          41.2900  -29.4940   30.4080 P.3       1 AMP402      0.0000 
      2 O1P        41.0070  -30.1570   29.0660 O.co2     1 AMP402      0.0000 
      3 O2P        41.7740  -30.4130   31.5470 O.co2     1 AMP402      0.0000 
      4 O3P        41.9920  -28.1500   30.3500 O.co2     1 AMP402      0.0000 
      5 O5'        39.8550  -28.9290   30.8950 O.3       1 AMP402      0.0000 
      6 C5'        38.8120  -28.6000   29.9840 C.3       1 AMP402      0.0000 
      7 C4'        37.4730  -28.4840   30.6830 C.3       1 AMP402      0.0000 
      8 O4'        36.4480  -28.2130   29.7310 O.3       1 AMP402      0.0000 
      9 C3'        37.0580  -29.7900   31.3140 C.3       1 AMP402      0.0000 
     10 O3'        36.0670  -29.5270   32.3050 O.3       1 AMP402      0.0000 
     11 C2'        36.3890  -30.5700   30.2220 C.3       1 AMP402      0.0000 
     12 O2'        35.4360  -31.5010   30.7600 O.3       1 AMP402      0.0000 
     13 C1'        35.7580  -29.4440   29.4090 C.3       1 AMP402      0.0000 
     14 N9         35.8790  -29.5110   27.9340 N.pl3     1 AMP402      0.0000 
     15 C8         36.9990  -29.4900   27.1690 C.2       1 AMP402      0.0000 
     16 N7         36.7000  -29.4970   25.8600 N.2       1 AMP402      0.0000 
     17 C5         35.3770  -29.4930   25.7650 C.ar      1 AMP402      0.0000 
     18 C6         34.4160  -29.4670   24.6570 C.ar      1 AMP402      0.0000 
     19 N6         34.8260  -29.4540   23.3860 N.pl3     1 AMP402      0.0000 
     20 N1         33.1140  -29.4600   24.9790 N.ar      1 AMP402      0.0000 
     21 C2         32.6860  -29.4610   26.2720 C.ar      1 AMP402      0.0000 
     22 N3         33.5040  -29.4680   27.3480 N.ar      1 AMP402      0.0000 
     23 C4         34.8350  -29.4990   27.1380 C.ar      1 AMP402      0.0000 
@<TRIPOS>BOND
     1    1    2 ar   
     2    1    3 ar   
     3    1    4 ar   
     4    1    5 1    
     5    5    6 1    
     6    6    7 1    
     7    7    8 1    
     8    7    9 1    
     9    8   13 1    
    10    9   10 1    
    11    9   11 1    
    12   11   12 1    
    13   11   13 1    
    14   13   14 1    
    15   14   15 1    
    16   14   23 1    
    17   15   16 2    
    18   16   17 1    
    19   17   18 ar   
    20   17   23 ar   
    21   18   19 1    
    22   18   20 ar   
    23   20   21 ar   
    24   21   22 ar   
    25   22   23 ar   
@<TRIPOS>SUBSTRUCTURE
     1 AMP402      1 GROUP   
@<TRIPOS>SET
ATOM$ORANGE STATIC     ATOMS   COLORGROUP SYSTEM 
20 6 6 7 7 9 9 11 11 13 13 15 15 17 17 18 18 21 \
21 23 23 

