#    Name: 5yg8_2_AMP
#    Modification time : Fri May 22 19:14:36 2020

@<TRIPOS>MOLECULE
5yg8_2_AMP
   23    25     1     0     1
SMALL
NO_CHARGES


@<TRIPOS>ATOM
      1 P          41.2570  -35.7610   51.2210 P.3       1 AMP402      0.0000 
      2 O1P        42.2050  -36.3370   50.1910 O.co2     1 AMP402      0.0000 
      3 O2P        40.8410  -36.6470   52.4180 O.co2     1 AMP402      0.0000 
      4 O3P        41.4950  -34.2770   51.4760 O.co2     1 AMP402      0.0000 
      5 O5'        39.9320  -35.7320   50.3210 O.3       1 AMP402      0.0000 
      6 C5'        38.8280  -36.4930   50.7730 C.3       1 AMP402      0.0000 
      7 C4'        37.5560  -35.9900   50.1840 C.3       1 AMP402      0.0000 
      8 O4'        36.6060  -36.9700   50.5450 O.3       1 AMP402      0.0000 
      9 C3'        37.0690  -34.7140   50.8170 C.3       1 AMP402      0.0000 
     10 O3'        36.1810  -34.1050   49.8760 O.3       1 AMP402      0.0000 
     11 C2'        36.3440  -35.1940   52.0630 C.3       1 AMP402      0.0000 
     12 O2'        35.3050  -34.3190   52.4160 O.3       1 AMP402      0.0000 
     13 C1'        35.7560  -36.5080   51.6130 C.3       1 AMP402      0.0000 
     14 N9         35.7810  -37.7340   52.4120 N.pl3     1 AMP402      0.0000 
     15 C8         36.8660  -38.4690   52.7540 C.2       1 AMP402      0.0000 
     16 N7         36.5240  -39.6050   53.3920 N.2       1 AMP402      0.0000 
     17 C5         35.1950  -39.6030   53.3980 C.ar      1 AMP402      0.0000 
     18 C6         34.2350  -40.5110   53.9120 C.ar      1 AMP402      0.0000 
     19 N6         34.6730  -41.6120   54.4970 N.pl3     1 AMP402      0.0000 
     20 N1         32.9550  -40.2110   53.7500 N.ar      1 AMP402      0.0000 
     21 C2         32.5330  -39.0980   53.1190 C.ar      1 AMP402      0.0000 
     22 N3         33.3710  -38.1860   52.6050 N.ar      1 AMP402      0.0000 
     23 C4         34.6950  -38.4050   52.7310 C.ar      1 AMP402      0.0000 
@<TRIPOS>BOND
     1    1    2 ar   
     2    1    3 ar   
     3    1    4 ar   
     4    1    5 1    
     5    5    6 1    
     6    6    7 1    
     7    7    8 1    
     8    7    9 1    
     9    8   13 1    
    10    9   10 1    
    11    9   11 1    
    12   11   12 1    
    13   11   13 1    
    14   13   14 1    
    15   14   15 1    
    16   14   23 1    
    17   15   16 2    
    18   16   17 1    
    19   17   18 ar   
    20   17   23 ar   
    21   18   19 1    
    22   18   20 ar   
    23   20   21 ar   
    24   21   22 ar   
    25   22   23 ar   
@<TRIPOS>SUBSTRUCTURE
     1 AMP402      1 GROUP   
@<TRIPOS>SET
ATOM$ORANGE STATIC     ATOMS   COLORGROUP SYSTEM 
20 6 6 7 7 9 9 11 11 13 13 15 15 17 17 18 18 21 \
21 23 23 

