#    Name: 5yg8_1_AMP
#    Modification time : Fri May 22 19:14:27 2020

@<TRIPOS>MOLECULE
5yg8_1_AMP
   23    25     1     0     1
SMALL
NO_CHARGES


@<TRIPOS>ATOM
      1 P          41.1270  -14.4800   46.5120 P.3       1 AMP403      0.0000 
      2 O1P        41.7840  -15.6090   45.6650 O.co2     1 AMP403      0.0000 
      3 O2P        40.8170  -13.0890   46.0400 O.co2     1 AMP403      0.0000 
      4 O3P        41.4370  -14.3280   47.9970 O.co2     1 AMP403      0.0000 
      5 O5'        39.6640  -15.0920   46.4990 O.3       1 AMP403      0.0000 
      6 C5'        38.7200  -14.7340   47.4760 C.3       1 AMP403      0.0000 
      7 C4'        37.4050  -15.3210   47.0200 C.3       1 AMP403      0.0000 
      8 O4'        36.3610  -14.6190   47.6590 O.3       1 AMP403      0.0000 
      9 C3'        37.0810  -15.2110   45.5430 C.3       1 AMP403      0.0000 
     10 O3'        36.2010  -16.3010   45.2760 O.3       1 AMP403      0.0000 
     11 C2'        36.3220  -13.9290   45.3560 C.3       1 AMP403      0.0000 
     12 O2'        35.2490  -14.1160   44.4490 O.3       1 AMP403      0.0000 
     13 C1'        35.7250  -13.7070   46.7310 C.3       1 AMP403      0.0000 
     14 N9         35.8170  -12.3680   47.3990 N.pl3     1 AMP403      0.0000 
     15 C8         36.8980  -11.6210   47.7750 C.2       1 AMP403      0.0000 
     16 N7         36.5420  -10.4860   48.4180 N.2       1 AMP403      0.0000 
     17 C5         35.2050  -10.5480   48.4790 C.ar      1 AMP403      0.0000 
     18 C6         34.1640   -9.7130   49.0370 C.ar      1 AMP403      0.0000 
     19 N6         34.5170   -8.5830   49.6480 N.pl3     1 AMP403      0.0000 
     20 N1         32.8680  -10.1020   48.8950 N.ar      1 AMP403      0.0000 
     21 C2         32.4910  -11.2500   48.2670 C.ar      1 AMP403      0.0000 
     22 N3         33.3850  -12.0890   47.7310 N.ar      1 AMP403      0.0000 
     23 C4         34.7150  -11.7750   47.8230 C.ar      1 AMP403      0.0000 
@<TRIPOS>BOND
     1    1    2 ar   
     2    1    3 ar   
     3    1    4 ar   
     4    1    5 1    
     5    5    6 1    
     6    6    7 1    
     7    7    8 1    
     8    7    9 1    
     9    8   13 1    
    10    9   10 1    
    11    9   11 1    
    12   11   12 1    
    13   11   13 1    
    14   13   14 1    
    15   14   15 1    
    16   14   23 1    
    17   15   16 2    
    18   16   17 1    
    19   17   18 ar   
    20   17   23 ar   
    21   18   19 1    
    22   18   20 ar   
    23   20   21 ar   
    24   21   22 ar   
    25   22   23 ar   
@<TRIPOS>SUBSTRUCTURE
     1 AMP403      1 GROUP   
@<TRIPOS>SET
ATOM$ORANGE STATIC     ATOMS   COLORGROUP SYSTEM 
20 6 6 7 7 9 9 11 11 13 13 15 15 17 17 18 18 21 \
21 23 23 

