#    Name: 6d8c_8_ADP
#    Modification time : Fri May 22 19:26:18 2020

@<TRIPOS>MOLECULE
6d8c_8_ADP
   39    41     1     0     1
SMALL
NO_CHARGES


@<TRIPOS>ATOM
      1 PB        143.9750  122.9690   96.2330 P.3       1 ADP401      0.0000 
      2 O1B       143.1920  123.2480   94.9720 O.co2     1 ADP401      0.0000 
      3 O2B       144.3330  121.5180   96.4420 O.co2     1 ADP401      0.0000 
      4 O3B       143.4420  123.6630   97.4630 O.co2     1 ADP401      0.0000 
      5 PA        146.3600  123.1240   94.8090 P.3       1 ADP401      0.0000 
      6 O1A       145.4970  122.3800   93.8230 O.co2     1 ADP401      0.0000 
      7 O2A       147.5540  122.4570   95.4480 O.co2     1 ADP401      0.0000 
      8 O3A       145.3900  123.6820   95.9630 O.3       1 ADP401      0.0000 
      9 O5'       146.8450  124.4750   94.0870 O.3       1 ADP401      0.0000 
     10 C5'       147.0000  124.5060   92.6710 C.3       1 ADP401      0.0000 
     11 C4'       147.6940  125.8000   92.2730 C.3       1 ADP401      0.0000 
     12 O4'       149.0760  125.7410   92.6330 O.3       1 ADP401      0.0000 
     13 C3'       147.6390  126.0620   90.7750 C.3       1 ADP401      0.0000 
     14 O3'       146.5820  126.9850   90.4730 O.3       1 ADP401      0.0000 
     15 C2'       149.0310  126.5380   90.3850 C.3       1 ADP401      0.0000 
     16 O2'       149.0580  127.8910   89.9180 O.3       1 ADP401      0.0000 
     17 C1'       149.8740  126.4020   91.6470 C.3       1 ADP401      0.0000 
     18 N9        151.1110  125.6280   91.3690 N.pl3     1 ADP401      0.0000 
     19 C8        151.1860  124.3060   91.1120 C.2       1 ADP401      0.0000 
     20 N7        152.4720  123.9310   90.8970 N.2       1 ADP401      0.0000 
     21 C5        153.2430  125.0270   91.0170 C.ar      1 ADP401      0.0000 
     22 C6        154.6850  125.3380   90.9110 C.ar      1 ADP401      0.0000 
     23 N6        155.5920  124.3700   90.6310 N.pl3     1 ADP401      0.0000 
     24 N1        155.0670  126.6190   91.1140 N.ar      1 ADP401      0.0000 
     25 C2        154.1850  127.5970   91.3980 C.ar      1 ADP401      0.0000 
     26 N3        152.8630  127.3780   91.5020 N.ar      1 ADP401      0.0000 
     27 C4        152.3400  126.1420   91.3260 C.ar      1 ADP401      0.0000 
     28 H5'1      146.0210  124.4460   92.1910 H         1 ADP401      0.0000 
     29 H5'2      147.5940  123.6490   92.3440 H         1 ADP401      0.0000 
     30 H4'       147.2080  126.6360   92.7940 H         1 ADP401      0.0000 
     31 H3'       147.4460  125.1070   90.2660 H         1 ADP401      0.0000 
     32 HO3'      146.5120  127.0940   89.5150 H         1 ADP401      0.0000 
     33 H2'       149.4320  125.8670   89.6120 H         1 ADP401      0.0000 
     34 HO2'      148.5610  127.9580   89.0920 H         1 ADP401      0.0000 
     35 H1'       150.1390  127.4080   92.0010 H         1 ADP401      0.0000 
     36 H8        150.3350  123.6350   91.0790 H         1 ADP401      0.0000 
     37 HN61      156.5730  124.6010   90.5650 H         1 ADP401      0.0000 
     38 HN62      155.2860  123.4180   90.4860 H         1 ADP401      0.0000 
     39 H2        154.5570  128.6030   91.5430 H         1 ADP401      0.0000 
@<TRIPOS>BOND
     1    1    2 ar   
     2    1    3 ar   
     3    1    4 ar   
     4    1    8 1    
     5    5    6 ar   
     6    5    7 ar   
     7    5    8 1    
     8    5    9 1    
     9    9   10 1    
    10   10   11 1    
    11   10   28 1    
    12   10   29 1    
    13   11   12 1    
    14   11   13 1    
    15   11   30 1    
    16   12   17 1    
    17   13   14 1    
    18   13   15 1    
    19   13   31 1    
    20   14   32 1    
    21   15   16 1    
    22   15   17 1    
    23   15   33 1    
    24   16   34 1    
    25   17   18 1    
    26   17   35 1    
    27   18   19 1    
    28   18   27 1    
    29   19   20 2    
    30   19   36 1    
    31   20   21 1    
    32   21   22 ar   
    33   21   27 ar   
    34   22   23 1    
    35   22   24 ar   
    36   23   37 1    
    37   23   38 1    
    38   24   25 ar   
    39   25   26 ar   
    40   25   39 1    
    41   26   27 ar   
@<TRIPOS>SUBSTRUCTURE
     1 ADP401      1 GROUP   
@<TRIPOS>SET
ATOM$ORANGE STATIC     ATOMS   COLORGROUP SYSTEM 
20 10 10 11 11 13 13 15 15 17 17 19 19 21 21 22 22 25 \
25 27 27 

