#    Name: 6d8c_5_ADP
#    Modification time : Fri May 22 19:25:57 2020

@<TRIPOS>MOLECULE
6d8c_5_ADP
   39    41     1     0     1
SMALL
NO_CHARGES


@<TRIPOS>ATOM
      1 PB        155.5930  133.1100  206.3970 P.3       1 ADP401      0.0000 
      2 O1B       154.8980  132.6510  205.1390 O.co2     1 ADP401      0.0000 
      3 O2B       156.9680  132.5230  206.6060 O.co2     1 ADP401      0.0000 
      4 O3B       154.7200  133.1060  207.6290 O.co2     1 ADP401      0.0000 
      5 PA        156.9040  135.1050  204.9670 P.3       1 ADP401      0.0000 
      6 O1A       156.9760  133.9660  203.9840 O.co2     1 ADP401      0.0000 
      7 O2A       158.1560  135.6590  205.6020 O.co2     1 ADP401      0.0000 
      8 O3A       155.8760  134.6690  206.1240 O.3       1 ADP401      0.0000 
      9 O5'       156.1160  136.3040  204.2430 O.3       1 ADP401      0.0000 
     10 C5'       156.1820  136.4420  202.8270 C.3       1 ADP401      0.0000 
     11 C4'       155.5660  137.7750  202.4260 C.3       1 ADP401      0.0000 
     12 O4'       156.4450  138.8440  202.7830 O.3       1 ADP401      0.0000 
     13 C3'       155.3220  137.8840  200.9290 C.3       1 ADP401      0.0000 
     14 O3'       153.9480  137.5960  200.6290 O.3       1 ADP401      0.0000 
     15 C2'       155.7790  139.2820  200.5340 C.3       1 ADP401      0.0000 
     16 O2'       154.7140  140.1170  200.0670 O.3       1 ADP401      0.0000 
     17 C1'       156.3960  139.8770  201.7950 C.3       1 ADP401      0.0000 
     18 N9        157.7590  140.3990  201.5130 N.pl3     1 ADP401      0.0000 
     19 C8        158.8600  139.6620  201.2570 C.2       1 ADP401      0.0000 
     20 N7        159.9320  140.4630  201.0380 N.2       1 ADP401      0.0000 
     21 C5        159.5220  141.7380  201.1560 C.ar      1 ADP401      0.0000 
     22 C6        160.1420  143.0760  201.0460 C.ar      1 ADP401      0.0000 
     23 N6        161.4600  143.2180  200.7640 N.pl3     1 ADP401      0.0000 
     24 N1        159.3480  144.1530  201.2470 N.ar      1 ADP401      0.0000 
     25 C2        158.0380  144.0380  201.5330 C.ar      1 ADP401      0.0000 
     26 N3        157.4160  142.8510  201.6410 N.ar      1 ADP401      0.0000 
     27 C4        158.0880  141.6890  201.4670 C.ar      1 ADP401      0.0000 
     28 H5'1      155.6400  135.6250  202.3490 H         1 ADP401      0.0000 
     29 H5'2      157.2240  136.4010  202.4980 H         1 ADP401      0.0000 
     30 H4'       154.6060  137.8910  202.9490 H         1 ADP401      0.0000 
     31 H3'       155.9670  137.1550  200.4210 H         1 ADP401      0.0000 
     32 HO3'      153.8170  137.6030  199.6710 H         1 ADP401      0.0000 
     33 H2'       156.5550  139.1970  199.7610 H         1 ADP401      0.0000 
     34 HO2'      154.3600  139.7590  199.2420 H         1 ADP401      0.0000 
     35 H1'       155.7530  140.6950  202.1480 H         1 ADP401      0.0000 
     36 H8        158.8830  138.5790  201.2260 H         1 ADP401      0.0000 
     37 HN61      161.8650  144.1390  200.6950 H         1 ADP401      0.0000 
     38 HN62      162.0350  142.4000  200.6200 H         1 ADP401      0.0000 
     39 H2        157.4580  144.9420  201.6770 H         1 ADP401      0.0000 
@<TRIPOS>BOND
     1    1    2 ar   
     2    1    3 ar   
     3    1    4 ar   
     4    1    8 1    
     5    5    6 ar   
     6    5    7 ar   
     7    5    8 1    
     8    5    9 1    
     9    9   10 1    
    10   10   11 1    
    11   10   28 1    
    12   10   29 1    
    13   11   12 1    
    14   11   13 1    
    15   11   30 1    
    16   12   17 1    
    17   13   14 1    
    18   13   15 1    
    19   13   31 1    
    20   14   32 1    
    21   15   16 1    
    22   15   17 1    
    23   15   33 1    
    24   16   34 1    
    25   17   18 1    
    26   17   35 1    
    27   18   19 1    
    28   18   27 1    
    29   19   20 2    
    30   19   36 1    
    31   20   21 1    
    32   21   22 ar   
    33   21   27 ar   
    34   22   23 1    
    35   22   24 ar   
    36   23   37 1    
    37   23   38 1    
    38   24   25 ar   
    39   25   26 ar   
    40   25   39 1    
    41   26   27 ar   
@<TRIPOS>SUBSTRUCTURE
     1 ADP401      1 GROUP   
@<TRIPOS>SET
ATOM$ORANGE STATIC     ATOMS   COLORGROUP SYSTEM 
20 10 10 11 11 13 13 15 15 17 17 19 19 21 21 22 22 25 \
25 27 27 

