#    Name: 6d8c_7_ADP
#    Modification time : Fri May 22 19:26:11 2020

@<TRIPOS>MOLECULE
6d8c_7_ADP
   39    41     1     0     1
SMALL
NO_CHARGES


@<TRIPOS>ATOM
      1 PB        125.8280  149.7780  178.8460 P.3       1 ADP401      0.0000 
      2 O1B       126.6090  150.0640  177.5840 O.co2     1 ADP401      0.0000 
      3 O2B       124.6230  150.6630  179.0530 O.co2     1 ADP401      0.0000 
      4 O3B       126.6810  149.5880  180.0760 O.co2     1 ADP401      0.0000 
      5 PA        124.0960  148.1300  177.4220 P.3       1 ADP401      0.0000 
      6 O1A       124.2840  149.2540  176.4350 O.co2     1 ADP401      0.0000 
      7 O2A       122.7520  147.8780  178.0590 O.co2     1 ADP401      0.0000 
      8 O3A       125.1980  148.3240  178.5760 O.3       1 ADP401      0.0000 
      9 O5'       124.5900  146.7820  176.7010 O.3       1 ADP401      0.0000 
     10 C5'       124.4930  146.6580  175.2850 C.3       1 ADP401      0.0000 
     11 C4'       124.7890  145.2200  174.8880 C.3       1 ADP401      0.0000 
     12 O4'       123.6900  144.3790  175.2470 O.3       1 ADP401      0.0000 
     13 C3'       125.0000  145.0530  173.3900 C.3       1 ADP401      0.0000 
     14 O3'       126.4030  145.0200  173.0890 O.3       1 ADP401      0.0000 
     15 C2'       124.2370  143.7940  173.0000 C.3       1 ADP401      0.0000 
     16 O2'       125.0830  142.7380  172.5350 O.3       1 ADP401      0.0000 
     17 C1'       123.5010  143.3600  174.2630 C.3       1 ADP401      0.0000 
     18 N9        122.0550  143.1610  173.9830 N.pl3     1 ADP401      0.0000 
     19 C8        121.1520  144.1280  173.7250 C.2       1 ADP401      0.0000 
     20 N7        119.9240  143.5920  173.5090 N.2       1 ADP401      0.0000 
     21 C5        120.0340  142.2580  173.6300 C.ar      1 ADP401      0.0000 
     22 C6        119.1250  141.0950  173.5240 C.ar      1 ADP401      0.0000 
     23 N6        117.8090  141.2570  173.2430 N.pl3     1 ADP401      0.0000 
     24 N1        119.6530  139.8660  173.7280 N.ar      1 ADP401      0.0000 
     25 C2        120.9560  139.6800  174.0140 C.ar      1 ADP401      0.0000 
     26 N3        121.8310  140.6950  174.1180 N.ar      1 ADP401      0.0000 
     27 C4        121.4410  141.9790  173.9410 C.ar      1 ADP401      0.0000 
     28 H5'1      125.2060  147.3300  174.8040 H         1 ADP401      0.0000 
     29 H5'2      123.4880  146.9340  174.9560 H         1 ADP401      0.0000 
     30 H4'       125.6970  144.8890  175.4100 H         1 ADP401      0.0000 
     31 H3'       124.5370  145.9080  172.8800 H         1 ADP401      0.0000 
     32 HO3'      126.5270  144.9810  172.1310 H         1 ADP401      0.0000 
     33 H2'       123.4990  144.0510  172.2270 H         1 ADP401      0.0000 
     34 HO2'      125.5090  143.0050  171.7090 H         1 ADP401      0.0000 
     35 H1'       123.9410  142.4180  174.6170 H         1 ADP401      0.0000 
     36 H8        121.3760  145.1880  173.6910 H         1 ADP401      0.0000 
     37 HN61      117.2050  140.4510  173.1770 H         1 ADP401      0.0000 
     38 HN62      117.4350  142.1840  173.0980 H         1 ADP401      0.0000 
     39 H2        121.3150  138.6700  174.1600 H         1 ADP401      0.0000 
@<TRIPOS>BOND
     1    1    2 ar   
     2    1    3 ar   
     3    1    4 ar   
     4    1    8 1    
     5    5    6 ar   
     6    5    7 ar   
     7    5    8 1    
     8    5    9 1    
     9    9   10 1    
    10   10   11 1    
    11   10   28 1    
    12   10   29 1    
    13   11   12 1    
    14   11   13 1    
    15   11   30 1    
    16   12   17 1    
    17   13   14 1    
    18   13   15 1    
    19   13   31 1    
    20   14   32 1    
    21   15   16 1    
    22   15   17 1    
    23   15   33 1    
    24   16   34 1    
    25   17   18 1    
    26   17   35 1    
    27   18   19 1    
    28   18   27 1    
    29   19   20 2    
    30   19   36 1    
    31   20   21 1    
    32   21   22 ar   
    33   21   27 ar   
    34   22   23 1    
    35   22   24 ar   
    36   23   37 1    
    37   23   38 1    
    38   24   25 ar   
    39   25   26 ar   
    40   25   39 1    
    41   26   27 ar   
@<TRIPOS>SUBSTRUCTURE
     1 ADP401      1 GROUP   
@<TRIPOS>SET
ATOM$ORANGE STATIC     ATOMS   COLORGROUP SYSTEM 
20 10 10 11 11 13 13 15 15 17 17 19 19 21 21 22 22 25 \
25 27 27 

