#    Name: 6d8c_6_ADP
#    Modification time : Fri May 22 19:26:04 2020

@<TRIPOS>MOLECULE
6d8c_6_ADP
   39    41     1     0     1
SMALL
NO_CHARGES


@<TRIPOS>ATOM
      1 PB        131.8080  154.8920  123.7540 P.3       1 ADP401      0.0000 
      2 O1B       132.6350  154.7980  122.4940 O.co2     1 ADP401      0.0000 
      3 O2B       131.1290  156.2240  123.9620 O.co2     1 ADP401      0.0000 
      4 O3B       132.4830  154.3380  124.9850 O.co2     1 ADP401      0.0000 
      5 PA        129.5220  154.2000  122.3280 P.3       1 ADP401      0.0000 
      6 O1A       130.1940  155.1190  121.3420 O.co2     1 ADP401      0.0000 
      7 O2A       128.2070  154.5780  122.9650 O.co2     1 ADP401      0.0000 
      8 O3A       130.5920  153.8760  123.4830 O.3       1 ADP401      0.0000 
      9 O5'       129.3570  152.7740  121.6060 O.3       1 ADP401      0.0000 
     10 C5'       129.2150  152.7080  120.1890 C.3       1 ADP401      0.0000 
     11 C4'       128.8340  151.2890  119.7910 C.3       1 ADP401      0.0000 
     12 O4'       127.4730  151.0330  120.1500 O.3       1 ADP401      0.0000 
     13 C3'       128.9480  151.0470  118.2940 C.3       1 ADP401      0.0000 
     14 O3'       130.1880  150.3880  117.9930 O.3       1 ADP401      0.0000 
     15 C2'       127.7010  150.2660  117.9030 C.3       1 ADP401      0.0000 
     16 O2'       127.9830  148.9430  117.4350 O.3       1 ADP401      0.0000 
     17 C1'       126.8480  150.2090  119.1640 C.3       1 ADP401      0.0000 
     18 N9        125.4680  150.6810  118.8840 N.pl3     1 ADP401      0.0000 
     19 C8        125.0950  151.9510  118.6270 C.2       1 ADP401      0.0000 
     20 N7        123.7570  152.0230  118.4100 N.2       1 ADP401      0.0000 
     21 C5        123.2560  150.7820  118.5300 C.ar      1 ADP401      0.0000 
     22 C6        121.9210  150.1510  118.4210 C.ar      1 ADP401      0.0000 
     23 N6        120.8190  150.8880  118.1410 N.pl3     1 ADP401      0.0000 
     24 N1        121.8400  148.8170  118.6250 N.ar      1 ADP401      0.0000 
     25 C2        122.9210  148.0660  118.9100 C.ar      1 ADP401      0.0000 
     26 N3        124.1590  148.5780  119.0160 N.ar      1 ADP401      0.0000 
     27 C4        124.3870  149.9000  118.8400 C.ar      1 ADP401      0.0000 
     28 H5'1      130.1550  152.9880  119.7100 H         1 ADP401      0.0000 
     29 H5'2      128.4430  153.4070  119.8620 H         1 ADP401      0.0000 
     30 H4'       129.4960  150.5870  120.3140 H         1 ADP401      0.0000 
     31 H3'       128.9200  152.0200  117.7840 H         1 ADP401      0.0000 
     32 HO3'      130.2820  150.2980  117.0350 H         1 ADP401      0.0000 
     33 H2'       127.1590  150.8290  117.1290 H         1 ADP401      0.0000 
     34 HO2'      128.4840  148.9900  116.6100 H         1 ADP401      0.0000 
     35 H1'       126.8180  149.1680  119.5180 H         1 ADP401      0.0000 
     36 H8        125.7710  152.7970  118.5930 H         1 ADP401      0.0000 
     37 HN61      119.9170  150.4400  118.0740 H         1 ADP401      0.0000 
     38 HN62      120.9010  151.8840  117.9960 H         1 ADP401      0.0000 
     39 H2        122.7870  147.0010  119.0560 H         1 ADP401      0.0000 
@<TRIPOS>BOND
     1    1    2 ar   
     2    1    3 ar   
     3    1    4 ar   
     4    1    8 1    
     5    5    6 ar   
     6    5    7 ar   
     7    5    8 1    
     8    5    9 1    
     9    9   10 1    
    10   10   11 1    
    11   10   28 1    
    12   10   29 1    
    13   11   12 1    
    14   11   13 1    
    15   11   30 1    
    16   12   17 1    
    17   13   14 1    
    18   13   15 1    
    19   13   31 1    
    20   14   32 1    
    21   15   16 1    
    22   15   17 1    
    23   15   33 1    
    24   16   34 1    
    25   17   18 1    
    26   17   35 1    
    27   18   19 1    
    28   18   27 1    
    29   19   20 2    
    30   19   36 1    
    31   20   21 1    
    32   21   22 ar   
    33   21   27 ar   
    34   22   23 1    
    35   22   24 ar   
    36   23   37 1    
    37   23   38 1    
    38   24   25 ar   
    39   25   26 ar   
    40   25   39 1    
    41   26   27 ar   
@<TRIPOS>SUBSTRUCTURE
     1 ADP401      1 GROUP   
@<TRIPOS>SET
ATOM$ORANGE STATIC     ATOMS   COLORGROUP SYSTEM 
20 10 10 11 11 13 13 15 15 17 17 19 19 21 21 22 22 25 \
25 27 27 

