#    Name: 6d8c_4_ADP
#    Modification time : Fri May 22 19:25:50 2020

@<TRIPOS>MOLECULE
6d8c_4_ADP
   39    41     1     0     1
SMALL
NO_CHARGES


@<TRIPOS>ATOM
      1 PB        150.9430  126.6820  151.3560 P.3       1 ADP401      0.0000 
      2 O1B       150.1190  126.5800  150.0950 O.co2     1 ADP401      0.0000 
      3 O2B       151.9120  125.5440  151.5660 O.co2     1 ADP401      0.0000 
      4 O3B       150.1550  127.0650  152.5850 O.co2     1 ADP401      0.0000 
      5 PA        153.0080  127.8850  149.9330 P.3       1 ADP401      0.0000 
      6 O1A       152.5690  126.8340  148.9470 O.co2     1 ADP401      0.0000 
      7 O2A       154.3740  127.8230  150.5720 O.co2     1 ADP401      0.0000 
      8 O3A       151.8900  127.9520  151.0860 O.3       1 ADP401      0.0000 
      9 O5'       152.8390  129.3100  149.2090 O.3       1 ADP401      0.0000 
     10 C5'       152.9640  129.4060  147.7930 C.3       1 ADP401      0.0000 
     11 C4'       153.0060  130.8740  147.3930 C.3       1 ADP401      0.0000 
     12 O4'       154.2690  131.4390  147.7540 O.3       1 ADP401      0.0000 
     13 C3'       152.8410  131.0820  145.8960 C.3       1 ADP401      0.0000 
     14 O3'       151.4830  131.4350  145.5930 O.3       1 ADP401      0.0000 
     15 C2'       153.8730  132.1300  145.5060 C.3       1 ADP401      0.0000 
     16 O2'       153.2930  133.3520  145.0370 O.3       1 ADP401      0.0000 
     17 C1'       154.6880  132.3860  146.7680 C.3       1 ADP401      0.0000 
     18 N9        156.1400  132.2470  146.4910 N.pl3     1 ADP401      0.0000 
     19 C8        156.7980  131.0980  146.2360 C.2       1 ADP401      0.0000 
     20 N7        158.1170  131.3380  146.0210 N.2       1 ADP401      0.0000 
     21 C5        158.3160  132.6620  146.1400 C.ar      1 ADP401      0.0000 
     22 C6        159.4680  133.5850  146.0330 C.ar      1 ADP401      0.0000 
     23 N6        160.7110  133.1240  145.7550 N.pl3     1 ADP401      0.0000 
     24 N1        159.2360  134.9020  146.2360 N.ar      1 ADP401      0.0000 
     25 C2        158.0100  135.3820  146.5180 C.ar      1 ADP401      0.0000 
     26 N3        156.9250  134.5960  146.6230 N.ar      1 ADP401      0.0000 
     27 C4        157.0100  133.2570  146.4480 C.ar      1 ADP401      0.0000 
     28 H5'1      152.1150  128.9150  147.3120 H         1 ADP401      0.0000 
     29 H5'2      153.8780  128.9050  147.4670 H         1 ADP401      0.0000 
     30 H4'       152.1980  131.4040  147.9150 H         1 ADP401      0.0000 
     31 H3'       153.0950  130.1420  145.3870 H         1 ADP401      0.0000 
     32 HO3'      151.3720  131.5000  144.6340 H         1 ADP401      0.0000 
     33 H2'       154.5330  131.7090  144.7340 H         1 ADP401      0.0000 
     34 HO2'      152.8180  133.1900  144.2110 H         1 ADP401      0.0000 
     35 H1'       154.4750  133.4050  147.1210 H         1 ADP401      0.0000 
     36 H8        156.3370  130.1180  146.2020 H         1 ADP401      0.0000 
     37 HN61      161.4850  133.7690  145.6890 H         1 ADP401      0.0000 
     38 HN62      160.8630  132.1360  145.6110 H         1 ADP401      0.0000 
     39 H2        157.8930  136.4490  146.6630 H         1 ADP401      0.0000 
@<TRIPOS>BOND
     1    1    2 ar   
     2    1    3 ar   
     3    1    4 ar   
     4    1    8 1    
     5    5    6 ar   
     6    5    7 ar   
     7    5    8 1    
     8    5    9 1    
     9    9   10 1    
    10   10   11 1    
    11   10   28 1    
    12   10   29 1    
    13   11   12 1    
    14   11   13 1    
    15   11   30 1    
    16   12   17 1    
    17   13   14 1    
    18   13   15 1    
    19   13   31 1    
    20   14   32 1    
    21   15   16 1    
    22   15   17 1    
    23   15   33 1    
    24   16   34 1    
    25   17   18 1    
    26   17   35 1    
    27   18   19 1    
    28   18   27 1    
    29   19   20 2    
    30   19   36 1    
    31   20   21 1    
    32   21   22 ar   
    33   21   27 ar   
    34   22   23 1    
    35   22   24 ar   
    36   23   37 1    
    37   23   38 1    
    38   24   25 ar   
    39   25   26 ar   
    40   25   39 1    
    41   26   27 ar   
@<TRIPOS>SUBSTRUCTURE
     1 ADP401      1 GROUP   
@<TRIPOS>SET
ATOM$ORANGE STATIC     ATOMS   COLORGROUP SYSTEM 
20 10 10 11 11 13 13 15 15 17 17 19 19 21 21 22 22 25 \
25 27 27 

