#    Name: 6c4m_1_NAP
#    Modification time : Fri May 22 19:35:41 2020

@<TRIPOS>MOLECULE
6c4m_1_NAP
   48    52     1     0     1
SMALL
NO_CHARGES


@<TRIPOS>ATOM
      1 PA         25.2120   17.9730   37.9210 P.3       1 NAP501      0.0000 
      2 O1A        25.0640   19.4130   37.6190 O.co2     1 NAP501      0.0000 
      3 O2A        23.8540   17.3070   38.2670 O.co2     1 NAP501      0.0000 
      4 O5B        26.2630   17.8350   39.1770 O.3       1 NAP501      0.0000 
      5 C5B        27.6480   18.0510   38.8260 C.3       1 NAP501      0.0000 
      6 C4B        28.4880   17.8280   40.0980 C.3       1 NAP501      0.0000 
      7 O4B        27.9720   18.8500   41.1530 O.3       1 NAP501      0.0000 
      8 C3B        28.3120   16.6560   40.5930 C.3       1 NAP501      0.0000 
      9 O3B        29.5510   16.1490   41.1830 O.3       1 NAP501      0.0000 
     10 C2B        27.2180   16.8510   41.8060 C.3       1 NAP501      0.0000 
     11 O2B        27.3970   15.8020   42.8200 O.3       1 NAP501      0.0000 
     12 C1B        27.4720   17.9980   42.3250 C.3       1 NAP501      0.0000 
     13 N9A        26.1860   18.5990   42.6820 N.pl3     1 NAP501      0.0000 
     14 C8A        25.0020   18.7570   42.0680 C.2       1 NAP501      0.0000 
     15 N7A        24.2200   19.3750   42.9650 N.2       1 NAP501      0.0000 
     16 C5A        24.9450   19.5810   44.1090 C.ar      1 NAP501      0.0000 
     17 C6A        24.5450   20.1880   45.2730 C.ar      1 NAP501      0.0000 
     18 N6A        23.3030   20.7930   45.7560 N.pl3     1 NAP501      0.0000 
     19 N1A        25.4170   20.2960   46.2920 N.ar      1 NAP501      0.0000 
     20 C2A        26.6990   19.8140   46.1610 C.ar      1 NAP501      0.0000 
     21 N3A        27.0900   19.2120   45.0010 N.ar      1 NAP501      0.0000 
     22 C4A        26.1890   19.1030   43.9600 C.ar      1 NAP501      0.0000 
     23 O3         25.8400   17.2390   36.5750 O.3       1 NAP501      0.0000 
     24 PN         26.0950   17.8120   35.0840 P.3       1 NAP501      0.0000 
     25 O1N        27.3170   17.1360   34.6400 O.co2     1 NAP501      0.0000 
     26 O2N        24.8420   17.4070   34.2700 O.co2     1 NAP501      0.0000 
     27 O5D        26.2270   19.4710   34.9610 O.3       1 NAP501      0.0000 
     28 C5D        27.5270   20.1180   34.9420 C.3       1 NAP501      0.0000 
     29 C4D        27.2590   21.6290   34.7930 C.3       1 NAP501      0.0000 
     30 O4D        26.5310   21.9110   33.4000 O.3       1 NAP501      0.0000 
     31 C3D        26.4530   22.1300   35.7060 C.3       1 NAP501      0.0000 
     32 O3D        26.8360   23.5850   35.8370 O.3       1 NAP501      0.0000 
     33 C2D        25.0390   22.1130   35.1140 C.3       1 NAP501      0.0000 
     34 O2D        24.3550   23.1680   35.6040 O.3       1 NAP501      0.0000 
     35 C1D        25.3320   22.3750   33.6240 C.3       1 NAP501      0.0000 
     36 N1N        24.3940   21.7240   32.6770 N.pl3     1 NAP501      0.0000 
     37 C2N        24.5840   20.4640   32.2280 C.ar      1 NAP501      0.0000 
     38 C3N        23.6670   19.9200   31.3000 C.ar      1 NAP501      0.0000 
     39 C7N        23.8420   18.4820   30.7660 C.2       1 NAP501      0.0000 
     40 O7N        23.4350   18.1670   29.7190 O.2       1 NAP501      0.0000 
     41 N7N        24.5290   17.5440   31.6130 N.am      1 NAP501      0.0000 
     42 C4N        22.5960   20.6510   30.8690 C.ar      1 NAP501      0.0000 
     43 C5N        22.4110   21.9000   31.3240 C.ar      1 NAP501      0.0000 
     44 C6N        23.3210   22.4530   32.2320 C.ar      1 NAP501      0.0000 
     45 P2B        26.6360   14.2960   42.6210 P.3       1 NAP501      0.0000 
     46 O1X        25.2040   14.4600   43.0840 O.co2     1 NAP501      0.0000 
     47 O2X        26.6550   13.8940   41.1850 O.co2     1 NAP501      0.0000 
     48 O3X        27.3230   13.2880   43.5130 O.co2     1 NAP501      0.0000 
@<TRIPOS>BOND
     1    1    2 ar   
     2    1    3 ar   
     3    1    4 1    
     4    1   23 1    
     5    4    5 1    
     6    5    6 1    
     7    6    7 1    
     8    6    8 1    
     9    7   12 1    
    10    8    9 1    
    11    8   10 1    
    12   10   11 1    
    13   10   12 1    
    14   11   45 1    
    15   12   13 1    
    16   13   14 1    
    17   13   22 1    
    18   14   15 2    
    19   15   16 1    
    20   16   17 ar   
    21   16   22 ar   
    22   17   18 1    
    23   17   19 ar   
    24   19   20 ar   
    25   20   21 ar   
    26   21   22 ar   
    27   23   24 1    
    28   24   25 ar   
    29   24   26 ar   
    30   24   27 1    
    31   27   28 1    
    32   28   29 1    
    33   29   30 1    
    34   29   31 1    
    35   30   35 1    
    36   31   32 1    
    37   31   33 1    
    38   33   34 1    
    39   33   35 1    
    40   35   36 1    
    41   36   37 ar   
    42   36   44 ar   
    43   37   38 ar   
    44   38   39 1    
    45   38   42 ar   
    46   39   40 2    
    47   39   41 am   
    48   42   43 ar   
    49   43   44 ar   
    50   45   46 ar   
    51   45   47 ar   
    52   45   48 ar   
@<TRIPOS>SUBSTRUCTURE
     1 NAP501      1 GROUP   
@<TRIPOS>SET
ATOM$ORANGE STATIC     ATOMS   COLORGROUP SYSTEM 
42 5 5 6 6 8 8 10 10 12 12 14 14 16 16 17 17 20 \
20 22 22 28 28 29 29 31 31 33 33 35 35 37 37 38 38 39 \
39 42 42 43 43 44 44 

