#    Name: 6f2r_3_UNK_UNK_UNK_UNK_UNK_CAVITY_N1_4
#    Modification time : Fri May 22 19:30:49 2020

@<TRIPOS>MOLECULE
6f2r_3_UNK_UNK_UNK_UNK_UNK_CAVITY_N1_4
   28     0     3     0     0
SMALL
NO_CHARGES


@<TRIPOS>ATOM
      1 O         173.9600  -14.6100  -21.3600 O.2       1 ALA2        0.0000 
      2 O         175.1700  -14.2300  -25.9300 O.2       1 ALA2        0.0000 
      3 N         176.4300  -15.4200  -24.7000 N.am      1 ALA2        0.0000 
      4 O         174.7700  -13.0100  -22.4900 O.2       1 ALA2        0.0000 
      5 N         177.2500  -13.8200  -25.8300 N.am      1 ALA2        0.0000 
      6 N         177.2600  -14.2100  -24.3900 N.am      1 ALA2        0.0000 
      7 N         178.5100  -15.0100  -24.6100 N.am      1 ALA2        0.0000 
      8 CA        173.1200  -15.4200  -23.1300 C.3       2 GLY6        0.0000 
      9 CA        174.3700  -16.2200  -23.3500 C.3       2 GLY6        0.0000 
     10 CA        173.9500  -14.2200  -22.8100 C.3       2 GLY6        0.0000 
     11 CA        175.1800  -14.6200  -24.4800 C.3       2 GLY6        0.0000 
     12 CA        175.2000  -15.0100  -23.0300 C.3       2 GLY6        0.0000 
     13 CA        175.2100  -15.4000  -21.5800 C.3       2 GLY6        0.0000 
     14 CA        176.4500  -15.8100  -23.2600 C.3       2 GLY6        0.0000 
     15 CA        176.4600  -16.2000  -21.8100 C.3       2 GLY6        0.0000 
     16 CA        176.0200  -13.8000  -22.7100 C.3       2 GLY6        0.0000 
     17 CA        177.2700  -14.6000  -22.9400 C.3       2 GLY6        0.0000 
     18 CA        178.5300  -15.4000  -23.1600 C.3       2 GLY6        0.0000 
     19 CA        178.5400  -15.7900  -21.7100 C.3       2 GLY6        0.0000 
     20 CA        176.8500  -12.5900  -22.3900 C.3       2 GLY6        0.0000 
     21 CA        178.0900  -13.0000  -24.0700 C.3       2 GLY6        0.0000 
     22 CA        178.1000  -13.3900  -22.6200 C.3       2 GLY6        0.0000 
     23 CA        179.3400  -13.8000  -24.2900 C.3       2 GLY6        0.0000 
     24 CA        179.3700  -14.5800  -21.4000 C.3       2 GLY6        0.0000 
     25 CA        177.6800  -11.3800  -22.0800 C.3       2 GLY6        0.0000 
     26 CA        178.9200  -11.7900  -23.7500 C.3       2 GLY6        0.0000 
     27 CA        178.9300  -12.1800  -22.3000 C.3       2 GLY6        0.0000 
     28 DU        176.0100  -13.4100  -24.1600 H         3 CUB7        0.0000 
@<TRIPOS>BOND
@<TRIPOS>SUBSTRUCTURE
     1 ALA2        1 GROUP   
     2 GLY6        8 GROUP   
     3 CUB7       28 GROUP   
@<TRIPOS>SET

