#    Name: 6f2r_4_UNK_UNK_UNK_UNK_UNK
#    Modification time : Fri May 22 19:30:50 2020

@<TRIPOS>MOLECULE
6f2r_4_UNK_UNK_UNK_UNK_UNK
   24    22     5     0     0
SMALL
NO_CHARGES


@<TRIPOS>ATOM
      1 N         169.3370  -88.0390  -18.5250 N.4       1 UNK1        0.0000 
      2 CA        170.5030  -88.2450  -19.3810 C.3       1 UNK1        0.0000 
      3 C         170.6060  -89.6970  -19.8440 C.2       1 UNK1        0.0000 
      4 O         170.6300  -90.6100  -19.0150 O.2       1 UNK1        0.0000 
      5 CB        171.7720  -87.8270  -18.6500 C.3       1 UNK1        0.0000 
      6 N         170.6450  -89.9070  -21.1740 N.am      2 UNK2        0.0000 
      7 CA        170.7230  -91.2370  -21.7880 C.3       2 UNK2        0.0000 
      8 C         171.4870  -91.2400  -23.1200 C.2       2 UNK2        0.0000 
      9 O         171.7030  -90.1770  -23.7050 O.2       2 UNK2        0.0000 
     10 CB        169.3230  -91.8050  -21.9830 C.3       2 UNK2        0.0000 
     11 N         171.8870  -92.4510  -23.5860 N.am      3 UNK3        0.0000 
     12 CA        172.6240  -92.7580  -24.8220 C.3       3 UNK3        0.0000 
     13 C         174.0070  -92.0860  -24.9120 C.2       3 UNK3        0.0000 
     14 O         175.0090  -92.7900  -24.7770 O.2       3 UNK3        0.0000 
     15 CB        171.7820  -92.4600  -26.0600 C.3       3 UNK3        0.0000 
     16 CA        175.2360  -89.8680  -25.2410 C.3       4 UNK4        0.0000 
     17 C         176.2190  -90.2420  -26.3750 C.2       4 UNK4        0.0000 
     18 O         176.3860  -89.4430  -27.2970 O.2       4 UNK4        0.0000 
     19 CB        175.9680  -89.7490  -23.9060 C.3       4 UNK4        0.0000 
     20 N         176.8750  -91.4220  -26.3010 N.am      5 UNK5        0.0000 
     21 CA        177.8330  -91.9050  -27.3000 C.3       5 UNK5        0.0000 
     22 C         177.1610  -92.8590  -28.2830 C.2       5 UNK5        0.0000 
     23 O         177.4080  -92.7800  -29.4840 O.2       5 UNK5        0.0000 
     24 CB        179.0000  -92.6010  -26.6160 C.3       5 UNK5        0.0000 
@<TRIPOS>BOND
     1    1    2 1    
     2    2    3 1    
     3    2    5 1    
     4    3    4 2    
     5    3    6 du   
     6    6    7 1    
     7    7    8 1    
     8    7   10 1    
     9    8    9 2    
    10    8   11 du   
    11   11   12 1    
    12   12   13 1    
    13   12   15 1    
    14   13   14 2    
    15   16   17 1    
    16   16   19 1    
    17   17   18 2    
    18   17   20 du   
    19   20   21 1    
    20   21   22 1    
    21   21   24 1    
    22   22   23 2    
@<TRIPOS>SUBSTRUCTURE
     1 UNK1        1 RESIDUE 
     2 UNK2        6 RESIDUE 
     3 UNK3       11 RESIDUE 
     4 UNK4       16 RESIDUE 
     5 UNK5       20 RESIDUE 
@<TRIPOS>SET

