#    Name: 6f2r_5_UNK_UNK_UNK_UNK_UNK_CAVITY_N1_4
#    Modification time : Fri May 22 19:30:54 2020

@<TRIPOS>MOLECULE
6f2r_5_UNK_UNK_UNK_UNK_UNK_CAVITY_N1_4
   37     0     3     0     0
SMALL
NO_CHARGES


@<TRIPOS>ATOM
      1 N         251.1900  -47.3700   -5.9500 N.am      1 ALA2        0.0000 
      2 N         252.4300  -47.7800   -7.6200 N.am      1 ALA2        0.0000 
      3 N         252.4400  -48.1700   -6.1700 N.am      1 ALA2        0.0000 
      4 N         252.4500  -48.5600   -4.7200 N.am      1 ALA2        0.0000 
      5 O         252.8600  -45.3500   -3.8600 O.2       1 ALA2        0.0000 
      6 O         254.1100  -46.1400   -4.0900 O.2       1 ALA2        0.0000 
      7 N         253.6800  -43.7500   -4.9900 N.am      1 ALA2        0.0000 
      8 N         254.9300  -44.5400   -5.2200 N.am      1 ALA2        0.0000 
      9 N         254.4800  -41.7600   -7.5700 N.am      1 ALA2        0.0000 
     10 N         252.8100  -38.9500   -6.8000 N.am      1 ALA2        0.0000 
     11 N         254.0400  -38.9700   -9.9200 N.am      1 ALA2        0.0000 
     12 N         254.0500  -39.3600   -8.4700 N.am      1 ALA2        0.0000 
     13 N         253.6200  -37.3600   -7.9300 N.am      1 ALA2        0.0000 
     14 N         254.8800  -38.1500   -8.1600 N.am      1 ALA2        0.0000 
     15 N         256.1300  -38.9500   -8.3800 N.am      1 ALA2        0.0000 
     16 CA        251.2000  -47.7600   -4.5000 C.3       2 GLY6        0.0000 
     17 CA        253.7000  -49.3600   -4.9500 C.3       2 GLY6        0.0000 
     18 CA        250.7600  -44.9800   -6.8500 C.3       2 GLY6        0.0000 
     19 CA        250.7700  -45.3700   -5.4000 C.3       2 GLY6        0.0000 
     20 CA        250.7800  -45.7600   -3.9600 C.3       2 GLY6        0.0000 
     21 CA        252.0100  -45.7800   -7.0800 C.3       2 GLY6        0.0000 
     22 CA        252.0200  -46.1700   -5.6300 C.3       2 GLY6        0.0000 
     23 CA        252.0300  -46.5600   -4.1800 C.3       2 GLY6        0.0000 
     24 CA        253.2800  -47.3500   -4.4000 C.3       2 GLY6        0.0000 
     25 CA        254.5300  -48.1500   -4.6300 C.3       2 GLY6        0.0000 
     26 CA        251.6000  -44.1600   -5.0800 C.3       2 GLY6        0.0000 
     27 CA        251.6100  -44.5500   -3.6400 C.3       2 GLY6        0.0000 
     28 CA        252.8400  -44.5700   -6.7600 C.3       2 GLY6        0.0000 
     29 CA        252.4300  -42.9500   -4.7700 C.3       2 GLY6        0.0000 
     30 CA        252.4400  -43.3400   -3.3200 C.3       2 GLY6        0.0000 
     31 CA        253.6600  -43.3600   -6.4400 C.3       2 GLY6        0.0000 
     32 CA        253.2300  -40.9600   -7.3400 C.3       2 GLY6        0.0000 
     33 CA        254.0600  -39.7500   -7.0300 C.3       2 GLY6        0.0000 
     34 CA        254.8900  -38.5400   -6.7100 C.3       2 GLY6        0.0000 
     35 DU        253.2700  -46.9600   -5.8500 H         3 CUB7        0.0000 
     36 DU        252.8500  -44.9600   -5.3100 H         3 CUB7        0.0000 
     37 DU        254.1000  -45.7500   -5.5300 H         3 CUB7        0.0000 
@<TRIPOS>BOND
@<TRIPOS>SUBSTRUCTURE
     1 ALA2        1 GROUP   
     2 GLY6       16 GROUP   
     3 CUB7       35 GROUP   
@<TRIPOS>SET

