#    Name: 6f2r_5_UNK_UNK_UNK_UNK_UNK
#    Modification time : Fri May 22 19:30:53 2020

@<TRIPOS>MOLECULE
6f2r_5_UNK_UNK_UNK_UNK_UNK
   25    24     5     0     0
SMALL
NO_CHARGES


@<TRIPOS>ATOM
      1 N         254.3960  -39.6840  -14.3360 N.4       1 UNK1        0.0000 
      2 CA        254.5430  -40.9070  -13.5490 C.3       1 UNK1        0.0000 
      3 C         255.1480  -40.6360  -12.1650 C.2       1 UNK1        0.0000 
      4 O         255.8540  -39.6400  -11.9830 O.2       1 UNK1        0.0000 
      5 CB        255.4010  -41.9120  -14.3070 C.3       1 UNK1        0.0000 
      6 N         254.8600  -41.5250  -11.1940 N.am      2 UNK2        0.0000 
      7 CA        255.3810  -41.4660   -9.8240 C.3       2 UNK2        0.0000 
      8 C         255.8590  -42.8450   -9.3840 C.2       2 UNK2        0.0000 
      9 O         255.4330  -43.8510   -9.9600 O.2       2 UNK2        0.0000 
     10 CB        254.3170  -40.9580   -8.8660 C.3       2 UNK2        0.0000 
     11 N         256.7210  -42.8890   -8.3460 N.am      3 UNK3        0.0000 
     12 CA        257.3040  -44.1130   -7.7820 C.3       3 UNK3        0.0000 
     13 C         256.2830  -45.1680   -7.3240 C.2       3 UNK3        0.0000 
     14 O         256.5970  -46.3560   -7.4120 O.2       3 UNK3        0.0000 
     15 CB        258.2600  -43.7720   -6.6490 C.3       3 UNK3        0.0000 
     16 N         255.0740  -44.7350   -6.8620 N.am      4 UNK4        0.0000 
     17 CA        253.9250  -45.5420   -6.3940 C.3       4 UNK4        0.0000 
     18 C         254.2940  -46.7090   -5.4440 C.2       4 UNK4        0.0000 
     19 O         254.1390  -46.5670   -4.2290 O.2       4 UNK4        0.0000 
     20 CB        253.1000  -46.0430   -7.5770 C.3       4 UNK4        0.0000 
     21 N         254.7720  -47.8480   -6.0000 N.am      5 UNK5        0.0000 
     22 CA        255.1920  -49.0300   -5.2480 C.3       5 UNK5        0.0000 
     23 C         256.5790  -48.8070   -4.6470 C.2       5 UNK5        0.0000 
     24 O         256.8620  -49.2740   -3.5440 O.2       5 UNK5        0.0000 
     25 CB        255.2060  -50.2510   -6.1560 C.3       5 UNK5        0.0000 
@<TRIPOS>BOND
     1    1    2 1    
     2    2    3 1    
     3    2    5 1    
     4    3    4 2    
     5    3    6 du   
     6    6    7 1    
     7    7    8 1    
     8    7   10 1    
     9    8    9 2    
    10    8   11 du   
    11   11   12 1    
    12   12   13 1    
    13   12   15 1    
    14   13   14 2    
    15   13   16 du   
    16   16   17 1    
    17   17   18 1    
    18   17   20 1    
    19   18   19 2    
    20   18   21 du   
    21   21   22 1    
    22   22   23 1    
    23   22   25 1    
    24   23   24 2    
@<TRIPOS>SUBSTRUCTURE
     1 UNK1        1 RESIDUE 
     2 UNK2        6 RESIDUE 
     3 UNK3       11 RESIDUE 
     4 UNK4       16 RESIDUE 
     5 UNK5       21 RESIDUE 
@<TRIPOS>SET

