#    Name: 6f2r_3_UNK_UNK_UNK_UNK_UNK
#    Modification time : Fri May 22 19:30:48 2020

@<TRIPOS>MOLECULE
6f2r_3_UNK_UNK_UNK_UNK_UNK
   25    24     5     0     0
SMALL
NO_CHARGES


@<TRIPOS>ATOM
      1 N         169.8290  -14.7110  -31.8540 N.4       1 UNK1        0.0000 
      2 CA        171.0030  -14.3200  -31.0780 C.3       1 UNK1        0.0000 
      3 C         170.7670  -13.0150  -30.3190 C.2       1 UNK1        0.0000 
      4 O         170.6400  -11.9530  -30.9350 O.2       1 UNK1        0.0000 
      5 CB        172.2260  -14.2150  -31.9790 C.3       1 UNK1        0.0000 
      6 N         170.6870  -13.1020  -28.9800 N.am      2 UNK2        0.0000 
      7 CA        170.4230  -11.9430  -28.1300 C.3       2 UNK2        0.0000 
      8 C         171.3740  -11.7980  -26.9510 C.2       2 UNK2        0.0000 
      9 O         171.7730  -12.8000  -26.3570 O.2       2 UNK2        0.0000 
     10 CB        168.9860  -11.9820  -27.6360 C.3       2 UNK2        0.0000 
     11 N         171.7030  -10.5300  -26.6120 N.am      3 UNK3        0.0000 
     12 CA        172.5340  -10.0400  -25.5000 C.3       3 UNK3        0.0000 
     13 C         173.9790  -10.6110  -25.4110 C.2       3 UNK3        0.0000 
     14 O         174.9220   -9.8200  -25.5240 O.2       3 UNK3        0.0000 
     15 CB        171.8110  -10.2230  -24.1750 C.3       3 UNK3        0.0000 
     16 N         174.1410  -11.9460  -25.1550 N.am      4 UNK4        0.0000 
     17 CA        175.3950  -12.7210  -25.0070 C.3       4 UNK4        0.0000 
     18 C         176.3520  -12.1990  -23.9040 C.2       4 UNK4        0.0000 
     19 O         176.5160  -12.8850  -22.8920 O.2       4 UNK4        0.0000 
     20 CB        176.1250  -12.8590  -26.3410 C.3       4 UNK4        0.0000 
     21 N         176.9820  -11.0120  -24.1010 N.am      5 UNK5        0.0000 
     22 CA        177.9060  -10.3890  -23.1440 C.3       5 UNK5        0.0000 
     23 C         177.1410   -9.5550  -22.1170 C.2       5 UNK5        0.0000 
     24 O         176.2210  -10.0590  -21.4740 O.2       5 UNK5        0.0000 
     25 CB        178.9270   -9.5250  -23.8740 C.3       5 UNK5        0.0000 
@<TRIPOS>BOND
     1    1    2 1    
     2    2    3 1    
     3    2    5 1    
     4    3    4 2    
     5    3    6 du   
     6    6    7 1    
     7    7    8 1    
     8    7   10 1    
     9    8    9 2    
    10    8   11 du   
    11   11   12 1    
    12   12   13 1    
    13   12   15 1    
    14   13   14 2    
    15   13   16 du   
    16   16   17 1    
    17   17   18 1    
    18   17   20 1    
    19   18   19 2    
    20   18   21 du   
    21   21   22 1    
    22   22   23 1    
    23   22   25 1    
    24   23   24 2    
@<TRIPOS>SUBSTRUCTURE
     1 UNK1        1 RESIDUE 
     2 UNK2        6 RESIDUE 
     3 UNK3       11 RESIDUE 
     4 UNK4       16 RESIDUE 
     5 UNK5       21 RESIDUE 
@<TRIPOS>SET

