#    Name: 6hxs_1_CNA
#    Modification time : Fri May 22 19:33:37 2020

@<TRIPOS>MOLECULE
6hxs_1_CNA
   44    48     1     0     0
SMALL
NO_CHARGES


@<TRIPOS>ATOM
      1 PA         27.3950  -42.6180   -0.1530 P.3       1 CNA301      0.0000 
      2 O1A        28.1630  -42.3200   -1.4500 O.co2     1 CNA301      0.0000 
      3 O2A        27.2010  -44.0570    0.0310 O.co2     1 CNA301      0.0000 
      4 O5B        28.1680  -41.9070    1.0720 O.3       1 CNA301      0.0000 
      5 C5B        27.9310  -42.1110    2.4560 C.3       1 CNA301      0.0000 
      6 C4B        27.6350  -40.7360    3.1380 C.3       1 CNA301      0.0000 
      7 O4B        28.7100  -39.8160    3.0010 O.3       1 CNA301      0.0000 
      8 C3B        26.4030  -40.0100    2.4720 C.3       1 CNA301      0.0000 
      9 O3B        25.4990  -39.8620    3.5180 O.3       1 CNA301      0.0000 
     10 C2B        27.0210  -38.6760    2.0620 C.3       1 CNA301      0.0000 
     11 O2B        26.2210  -37.5970    2.1690 O.3       1 CNA301      0.0000 
     12 C1B        28.1840  -38.5210    3.0130 C.3       1 CNA301      0.0000 
     13 N9A        29.1840  -37.5440    2.5170 N.pl3     1 CNA301      0.0000 
     14 C8A        29.4940  -37.1830    1.2680 C.2       1 CNA301      0.0000 
     15 N7A        30.4860  -36.2830    1.2860 N.2       1 CNA301      0.0000 
     16 C5A        30.7910  -36.0110    2.5510 C.ar      1 CNA301      0.0000 
     17 C6A        31.6500  -35.1700    3.1980 C.ar      1 CNA301      0.0000 
     18 N6A        32.5080  -34.3260    2.6000 N.pl3     1 CNA301      0.0000 
     19 N1A        31.6560  -35.1530    4.5180 N.ar      1 CNA301      0.0000 
     20 C2A        30.8510  -35.9670    5.4230 C.ar      1 CNA301      0.0000 
     21 N3A        30.0050  -36.8120    4.6240 N.ar      1 CNA301      0.0000 
     22 C4A        29.9790  -36.8170    3.3130 C.ar      1 CNA301      0.0000 
     23 O3         26.0430  -41.8680   -0.4610 O.3       1 CNA301      0.0000 
     24 PN         24.6050  -42.3010   -0.0700 P.3       1 CNA301      0.0000 
     25 O1N        24.5790  -43.0730    1.2500 O.co2     1 CNA301      0.0000 
     26 O2N        23.5870  -41.2300   -0.0960 O.co2     1 CNA301      0.0000 
     27 O5D        24.3240  -43.2480   -1.3750 O.3       1 CNA301      0.0000 
     28 C5D        24.2420  -44.6780   -1.4240 C.3       1 CNA301      0.0000 
     29 C4D        22.8430  -45.1680   -1.8930 C.3       1 CNA301      0.0000 
     30 C4'        21.6640  -44.2560   -1.4750 C.3       1 CNA301      0.0000 
     31 C3D        22.8180  -45.2570   -3.4060 C.3       1 CNA301      0.0000 
     32 O3D        22.0540  -46.4280   -3.7680 O.3       1 CNA301      0.0000 
     33 C2D        22.1550  -43.9030   -3.7150 C.3       1 CNA301      0.0000 
     34 O2D        21.7370  -43.7470   -5.0840 O.3       1 CNA301      0.0000 
     35 C1D        21.0240  -43.8380   -2.7740 C.3       1 CNA301      0.0000 
     36 N1N        20.3980  -42.5050   -2.8190 N.pl3     1 CNA301      0.0000 
     37 C2N        20.9300  -41.3570   -2.1770 C.ar      1 CNA301      0.0000 
     38 C3N        20.2540  -40.0950   -2.2720 C.ar      1 CNA301      0.0000 
     39 C7N        20.7050  -38.8910   -1.6220 C.2       1 CNA301      0.0000 
     40 O7N        20.0580  -37.8330   -1.7320 O.2       1 CNA301      0.0000 
     41 N7N        21.8250  -38.9900   -0.8900 N.am      1 CNA301      0.0000 
     42 C4N        19.0300  -40.0270   -3.0660 C.ar      1 CNA301      0.0000 
     43 C5N        18.4940  -41.1710   -3.6820 C.ar      1 CNA301      0.0000 
     44 C6N        19.1700  -42.3990   -3.5640 C.ar      1 CNA301      0.0000 
@<TRIPOS>BOND
     1    1    2 ar   
     2    1    3 ar   
     3    1    4 1    
     4    1   23 1    
     5    4    5 1    
     6    5    6 1    
     7    6    7 1    
     8    6    8 1    
     9    7   12 1    
    10    8    9 1    
    11    8   10 1    
    12   10   11 1    
    13   10   12 1    
    14   12   13 1    
    15   13   14 1    
    16   13   22 1    
    17   14   15 2    
    18   15   16 1    
    19   16   17 ar   
    20   16   22 ar   
    21   17   18 1    
    22   17   19 ar   
    23   19   20 ar   
    24   20   21 ar   
    25   21   22 ar   
    26   23   24 1    
    27   24   25 ar   
    28   24   26 ar   
    29   24   27 1    
    30   27   28 1    
    31   28   29 1    
    32   29   30 1    
    33   29   31 1    
    34   30   35 1    
    35   31   32 1    
    36   31   33 1    
    37   33   34 1    
    38   33   35 1    
    39   35   36 1    
    40   36   37 ar   
    41   36   44 ar   
    42   37   38 ar   
    43   38   39 1    
    44   38   42 ar   
    45   39   40 2    
    46   39   41 am   
    47   42   43 ar   
    48   43   44 ar   
@<TRIPOS>SUBSTRUCTURE
     1 CNA301      1 GROUP   
@<TRIPOS>SET

