#    Name: 6hxs_1_CNA_CAVITY_N1_8
#    Modification time : Fri May 22 19:33:39 2020

@<TRIPOS>MOLECULE
6hxs_1_CNA_CAVITY_N1_8
   70     0     5     0     0
SMALL
NO_CHARGES


@<TRIPOS>ATOM
      1 OG         17.4600  -44.1100   -3.7300 O.3       1 SER1        0.0000 
      2 OG         20.3700  -45.2900   -2.5300 O.3       1 SER1        0.0000 
      3 OG         19.4300  -44.1900   -2.9300 O.3       1 SER1        0.0000 
      4 OG         18.4900  -43.0900   -3.3400 O.3       1 SER1        0.0000 
      5 OG         20.8300  -44.2300   -0.7500 O.3       1 SER1        0.0000 
      6 OG         21.3900  -44.2700   -2.1400 O.3       1 SER1        0.0000 
      7 OG         20.4600  -43.1700   -2.5400 O.3       1 SER1        0.0000 
      8 OG         22.6100  -39.0100   -1.7800 O.3       1 SER1        0.0000 
      9 N          20.7400  -40.0200   -5.7400 N.am      2 ALA2        0.0000 
     10 N          21.5800  -40.0300   -2.1700 N.am      2 ALA2        0.0000 
     11 N          22.1400  -40.0600   -3.5600 N.am      2 ALA2        0.0000 
     12 N          20.6400  -38.9300   -2.5700 N.am      2 ALA2        0.0000 
     13 N          21.2000  -38.9600   -3.9600 N.am      2 ALA2        0.0000 
     14 N          22.0500  -38.9700   -0.3900 N.am      2 ALA2        0.0000 
     15 CZ         17.0000  -45.1600   -5.5100 C.ar      3 PHE5        0.0000 
     16 CZ         16.0600  -44.0600   -5.9100 C.ar      3 PHE5        0.0000 
     17 CZ         18.9600  -45.2400   -4.7100 C.ar      3 PHE5        0.0000 
     18 CZ         18.0200  -44.1400   -5.1200 C.ar      3 PHE5        0.0000 
     19 CZ         15.9700  -42.9700   -2.7400 C.ar      3 PHE5        0.0000 
     20 CZ         17.0900  -43.0400   -5.5200 C.ar      3 PHE5        0.0000 
     21 CZ         20.9300  -45.3200   -3.9200 C.ar      3 PHE5        0.0000 
     22 CZ         21.4900  -45.3600   -5.3100 C.ar      3 PHE5        0.0000 
     23 CZ         19.9900  -44.2200   -4.3200 C.ar      3 PHE5        0.0000 
     24 CZ         19.0500  -43.1200   -4.7300 C.ar      3 PHE5        0.0000 
     25 CZ         17.5600  -41.9900   -3.7400 C.ar      3 PHE5        0.0000 
     26 CZ         22.3300  -45.3700   -1.7300 C.ar      3 PHE5        0.0000 
     27 CZ         22.8900  -45.4000   -3.1200 C.ar      3 PHE5        0.0000 
     28 CZ         21.9600  -44.3000   -3.5300 C.ar      3 PHE5        0.0000 
     29 CZ         22.5200  -44.3400   -4.9200 C.ar      3 PHE5        0.0000 
     30 CZ         21.5800  -43.2400   -5.3200 C.ar      3 PHE5        0.0000 
     31 CZ         22.1400  -43.2700   -6.7100 C.ar      3 PHE5        0.0000 
     32 CZ         19.5200  -42.0700   -2.9500 C.ar      3 PHE5        0.0000 
     33 CZ         20.0800  -42.1000   -4.3400 C.ar      3 PHE5        0.0000 
     34 CZ         20.6400  -42.1400   -5.7300 C.ar      3 PHE5        0.0000 
     35 CZ         18.5900  -40.9700   -3.3500 C.ar      3 PHE5        0.0000 
     36 CZ         23.9200  -44.3800   -2.7300 C.ar      3 PHE5        0.0000 
     37 CZ         21.8600  -43.2100   -0.3600 C.ar      3 PHE5        0.0000 
     38 CZ         20.9300  -42.1100   -0.7600 C.ar      3 PHE5        0.0000 
     39 CZ         21.4900  -42.1500   -2.1500 C.ar      3 PHE5        0.0000 
     40 CZ         20.5500  -41.0500   -2.5600 C.ar      3 PHE5        0.0000 
     41 CZ         19.6100  -39.9500   -2.9600 C.ar      3 PHE5        0.0000 
     42 CZ         22.3300  -42.1600    1.4200 C.ar      3 PHE5        0.0000 
     43 CZ         22.8900  -42.1900    0.0300 C.ar      3 PHE5        0.0000 
     44 CZ         21.9500  -41.0900   -0.3700 C.ar      3 PHE5        0.0000 
     45 CZ         21.0200  -39.9900   -0.7800 C.ar      3 PHE5        0.0000 
     46 CZ         20.0800  -38.8900   -1.1800 C.ar      3 PHE5        0.0000 
     47 CZ         25.4200  -42.3100   -0.5600 C.ar      3 PHE5        0.0000 
     48 CZ         24.4800  -41.2100   -0.9700 C.ar      3 PHE5        0.0000 
     49 CZ         23.5400  -40.1100   -1.3700 C.ar      3 PHE5        0.0000 
     50 CA         14.5600  -42.9300   -4.9200 C.3       4 GLY6        0.0000 
     51 CA         15.5900  -41.9100   -4.5400 C.3       4 GLY6        0.0000 
     52 CA         16.1500  -41.9400   -5.9300 C.3       4 GLY6        0.0000 
     53 CA         18.1200  -42.0200   -5.1300 C.3       4 GLY6        0.0000 
     54 CA         16.6200  -40.8900   -4.1500 C.3       4 GLY6        0.0000 
     55 CA         17.1800  -40.9200   -5.5400 C.3       4 GLY6        0.0000 
     56 CA         21.0200  -43.2000   -3.9300 C.3       4 GLY6        0.0000 
     57 CA         19.1500  -41.0000   -4.7400 C.3       4 GLY6        0.0000 
     58 CA         17.6500  -39.8700   -3.7600 C.3       4 GLY6        0.0000 
     59 CA         22.9800  -43.2800   -3.1400 C.3       4 GLY6        0.0000 
     60 CA         22.0500  -42.1800   -3.5400 C.3       4 GLY6        0.0000 
     61 CA         21.1100  -41.0800   -3.9500 C.3       4 GLY6        0.0000 
     62 CA         21.6700  -41.1200   -5.3400 C.3       4 GLY6        0.0000 
     63 CA         20.1700  -39.9800   -4.3500 C.3       4 GLY6        0.0000 
     64 CA         18.6800  -38.8500   -3.3700 C.3       4 GLY6        0.0000 
     65 CA         23.4500  -42.2300   -1.3600 C.3       4 GLY6        0.0000 
     66 CA         22.5200  -41.1300   -1.7600 C.3       4 GLY6        0.0000 
     67 DU         15.5000  -44.0300   -4.5200 H         5 CUB7        0.0000 
     68 DU         16.5300  -43.0100   -4.1300 H         5 CUB7        0.0000 
     69 DU         22.4200  -43.2500   -1.7500 H         5 CUB7        0.0000 
     70 DU         23.9200  -41.1700    0.4200 H         5 CUB7        0.0000 
@<TRIPOS>BOND
@<TRIPOS>SUBSTRUCTURE
     1 SER1        1 GROUP   
     2 ALA2        9 GROUP   
     3 PHE5       15 GROUP   
     4 GLY6       50 GROUP   
     5 CUB7       67 GROUP   
@<TRIPOS>SET

