#    Name: 6m7v_1_DZ4
#    Modification time : Fri May 22 19:26:26 2020

@<TRIPOS>MOLECULE
6m7v_1_DZ4
   30    32     1     0     0
SMALL
NO_CHARGES


@<TRIPOS>ATOM
      1 N1         -3.0850   -3.3230   26.3010 N.ar      1 DZ4502      0.0000 
      2 C2         -2.3290   -4.4060   26.3180 C.ar      1 DZ4502      0.0000 
      3 N3         -1.6780   -4.9710   25.3260 N.ar      1 DZ4502      0.0000 
      4 C4         -1.7920   -4.3600   24.1330 C.ar      1 DZ4502      0.0000 
      5 C5         -2.5690   -3.2040   24.0180 C.ar      1 DZ4502      0.0000 
      6 C6         -3.2120   -2.7000   25.1290 C.ar      1 DZ4502      0.0000 
      7 N6         -3.9650   -1.5940   25.0530 N.pl3     1 DZ4502      0.0000 
      8 N7         -2.5150   -2.7980   22.7290 N.2       1 DZ4502      0.0000 
      9 C8         -1.7340   -3.6620   22.0550 C.2       1 DZ4502      0.0000 
     10 N9         -1.2950   -4.6130   22.9110 N.pl3     1 DZ4502      0.0000 
     11 PA          0.7670   -3.3620   17.7770 P.3       1 DZ4502      0.0000 
     12 PB         -0.0150   -5.7350   16.4610 P.3       1 DZ4502      0.0000 
     13 PG          0.2240   -4.7580   13.7210 P.3       1 DZ4502      0.0000 
     14 C1'        -0.4640   -5.5840   22.3250 C.3       1 DZ4502      0.0000 
     15 O1A         2.0160   -3.4510   17.0260 O.co2     1 DZ4502      0.0000 
     16 O1B         1.3790   -6.0480   16.7620 O.co2     1 DZ4502      0.0000 
     17 O1G         1.6470   -4.9380   13.4580 O.co2     1 DZ4502      0.0000 
     18 C2'        -1.2450   -6.3770   21.2890 C.3       1 DZ4502      0.0000 
     19 O2A         0.3070   -1.8730   17.8430 O.co2     1 DZ4502      0.0000 
     20 O2B        -0.9190   -6.7740   17.1130 O.co2     1 DZ4502      0.0000 
     21 O2G        -0.5530   -5.0520   12.4830 O.co2     1 DZ4502      0.0000 
     22 C3'        -0.2680   -6.5850   20.1360 C.3       1 DZ4502      0.0000 
     23 O3'        -0.0300   -7.9800   19.9350 O.3       1 DZ4502      0.0000 
     24 N3A        -0.3790   -4.2550   17.0380 N.3       1 DZ4502      0.0000 
     25 O3B        -0.2350   -5.7530   14.8860 O.3       1 DZ4502      0.0000 
     26 O3G        -0.0320   -3.3200   14.1490 O.co2     1 DZ4502      0.0000 
     27 C4'         1.0140   -5.8830   20.5840 C.3       1 DZ4502      0.0000 
     28 O4'         0.6030   -4.9570   21.6230 O.3       1 DZ4502      0.0000 
     29 C5'         1.6420   -5.1190   19.4040 C.3       1 DZ4502      0.0000 
     30 O5'         0.9880   -3.9020   19.2340 O.3       1 DZ4502      0.0000 
@<TRIPOS>BOND
     1    1    2 ar   
     2    1    6 ar   
     3    2    3 ar   
     4    3    4 ar   
     5    4    5 ar   
     6    4   10 1    
     7    5    6 ar   
     8    5    8 1    
     9    6    7 1    
    10    8    9 2    
    11    9   10 1    
    12   10   14 1    
    13   11   15 ar   
    14   11   19 ar   
    15   11   24 1    
    16   11   30 1    
    17   12   16 ar   
    18   12   20 ar   
    19   12   24 1    
    20   12   25 1    
    21   13   17 ar   
    22   13   21 ar   
    23   13   25 1    
    24   13   26 ar   
    25   14   18 1    
    26   14   28 1    
    27   18   22 1    
    28   22   23 1    
    29   22   27 1    
    30   27   28 1    
    31   27   29 1    
    32   29   30 1    
@<TRIPOS>SUBSTRUCTURE
     1 DZ4502      1 GROUP   
@<TRIPOS>SET

