#    Name: 6m7v_1_DZ4_CAVITY_N1_4
#    Modification time : Fri May 22 19:26:27 2020

@<TRIPOS>MOLECULE
6m7v_1_DZ4_CAVITY_N1_4
   51     0     6     0     0
SMALL
NO_CHARGES


@<TRIPOS>ATOM
      1 N          -4.7700   -6.1800   17.0400 N.am      1 ALA2        0.0000 
      2 N          -2.2800   -5.9800   17.7600 N.am      1 ALA2        0.0000 
      3 N          -3.2300   -4.8300   17.6000 N.am      1 ALA2        0.0000 
      4 O           1.1600   -6.9300   18.6500 O.2       1 ALA2        0.0000 
      5 O           0.1000   -7.7000   19.3800 O.2       1 ALA2        0.0000 
      6 N          -0.8500   -6.5500   19.2200 N.am      1 ALA2        0.0000 
      7 N          -1.8000   -5.4000   19.0600 N.am      1 ALA2        0.0000 
      8 N          -0.3700   -5.9700   20.5200 N.am      1 ALA2        0.0000 
      9 N          -1.3200   -4.8200   20.3600 N.am      1 ALA2        0.0000 
     10 N          -1.4300   -6.7500   21.2500 N.am      1 ALA2        0.0000 
     11 N          -1.9000   -5.0200   22.3900 N.am      1 ALA2        0.0000 
     12 OD1        -1.7100   -5.7900   15.7300 O.co2     2 ASP3        0.0000 
     13 OD1        -2.6600   -4.6400   15.5700 O.co2     2 ASP3        0.0000 
     14 OD1        -3.6100   -3.4900   15.4100 O.co2     2 ASP3        0.0000 
     15 OD1        -2.7600   -6.5600   16.4600 O.co2     2 ASP3        0.0000 
     16 OD1        -3.7100   -5.4100   16.3100 O.co2     2 ASP3        0.0000 
     17 OD1        -0.1700   -4.4400   16.2900 O.co2     2 ASP3        0.0000 
     18 OD1        -2.1800   -4.0600   16.8700 O.co2     2 ASP3        0.0000 
     19 OD1        -3.1300   -2.9100   16.7100 O.co2     2 ASP3        0.0000 
     20 OD1        -4.1800   -3.6800   17.4400 O.co2     2 ASP3        0.0000 
     21 OD1         0.3100   -3.8600   17.5900 O.co2     2 ASP3        0.0000 
     22 OD1        -0.6400   -2.7100   17.4300 O.co2     2 ASP3        0.0000 
     23 OD1         0.2100   -5.7800   18.4900 O.co2     2 ASP3        0.0000 
     24 OD1        -0.7400   -4.6300   18.3300 O.co2     2 ASP3        0.0000 
     25 OD1        -1.6900   -3.4800   18.1700 O.co2     2 ASP3        0.0000 
     26 OD1        -2.7500   -4.2500   18.9000 O.co2     2 ASP3        0.0000 
     27 NZ          1.7400   -4.4300   19.0500 N.4       3 LYS4        0.0000 
     28 NZ          0.7900   -3.2800   18.8900 N.4       3 LYS4        0.0000 
     29 NZ         -0.1600   -2.1300   18.7300 N.4       3 LYS4        0.0000 
     30 CZ          0.5800   -7.1200   20.6800 C.ar      4 PHE5        0.0000 
     31 CZ         -0.4800   -7.8900   21.4100 C.ar      4 PHE5        0.0000 
     32 CZ          1.0600   -6.5500   21.9800 C.ar      4 PHE5        0.0000 
     33 CZ          0.0000   -7.3200   22.7100 C.ar      4 PHE5        0.0000 
     34 CZ         -0.9500   -6.1700   22.5500 C.ar      4 PHE5        0.0000 
     35 CZ         -1.0400   -5.7800   25.8800 C.ar      4 PHE5        0.0000 
     36 CA         -0.7600   -6.9400   15.8900 C.3       5 GLY6        0.0000 
     37 CA         -0.2800   -6.3600   17.1900 C.3       5 GLY6        0.0000 
     38 CA         -1.3300   -7.1300   17.9200 C.3       5 GLY6        0.0000 
     39 CA          1.6400   -6.3500   19.9400 C.3       5 GLY6        0.0000 
     40 CA          0.6900   -5.2000   19.7900 C.3       5 GLY6        0.0000 
     41 CA         -0.2600   -4.0500   19.6300 C.3       5 GLY6        0.0000 
     42 CA          2.1200   -5.7700   21.2400 C.3       5 GLY6        0.0000 
     43 CA          1.1700   -4.6300   21.0800 C.3       5 GLY6        0.0000 
     44 CA          0.1100   -5.4000   21.8200 C.3       5 GLY6        0.0000 
     45 CA         -0.8400   -4.2500   21.6600 C.3       5 GLY6        0.0000 
     46 CA         -2.0000   -6.9400   23.2900 C.3       5 GLY6        0.0000 
     47 CA         -0.4700   -5.5900   23.8500 C.3       5 GLY6        0.0000 
     48 CA         -1.5200   -6.3600   24.5800 C.3       5 GLY6        0.0000 
     49 CA         -2.4700   -5.2100   24.4200 C.3       5 GLY6        0.0000 
     50 DU         -1.1200   -3.2900   16.1400 H         6 CUB7        0.0000 
     51 DU         -1.2300   -5.2100   17.0300 H         6 CUB7        0.0000 
@<TRIPOS>BOND
@<TRIPOS>SUBSTRUCTURE
     1 ALA2        1 GROUP   
     2 ASP3       12 GROUP   
     3 LYS4       27 GROUP   
     4 PHE5       30 GROUP   
     5 GLY6       36 GROUP   
     6 CUB7       50 GROUP   
@<TRIPOS>SET

