#    Name: 6qve_1_TA1
#    Modification time : Fri May 22 19:37:16 2020

@<TRIPOS>MOLECULE
6qve_1_TA1
   62    68     1     0     0
SMALL
NO_CHARGES


@<TRIPOS>ATOM
      1 O01       202.9980  268.9300  338.4390 O.3       1 TA1502      0.0000 
      2 C01       202.9560  268.5990  337.0450 C.3       1 TA1502      0.0000 
      3 C02       202.4600  266.9770  336.9460 C.3       1 TA1502      0.0000 
      4 O02       201.2310  266.9020  337.7080 O.3       1 TA1502      0.0000 
      5 C03       201.2590  266.4970  338.9850 C.2       1 TA1502      0.0000 
      6 O03       202.2610  266.1360  339.5460 O.2       1 TA1502      0.0000 
      7 C04       199.9030  266.4690  339.5920 C.ar      1 TA1502      0.0000 
      8 C05       198.7420  266.6170  338.8390 C.ar      1 TA1502      0.0000 
      9 C06       197.5140  266.7590  339.4640 C.ar      1 TA1502      0.0000 
     10 C07       197.4310  266.7770  340.8400 C.ar      1 TA1502      0.0000 
     11 C08       198.5750  266.6380  341.5960 C.ar      1 TA1502      0.0000 
     12 C09       199.8030  266.4720  340.9810 C.ar      1 TA1502      0.0000 
     13 C10       202.2280  266.2970  335.5130 C.3       1 TA1502      0.0000 
     14 C11       200.7600  265.5540  335.2750 C.3       1 TA1502      0.0000 
     15 O04       199.6320  266.4590  335.4960 O.3       1 TA1502      0.0000 
     16 C12       199.3310  267.5320  334.7300 C.2       1 TA1502      0.0000 
     17 O05       199.9780  267.8980  333.7970 O.2       1 TA1502      0.0000 
     18 C13       198.0820  268.1740  335.2280 C.3       1 TA1502      0.0000 
     19 C14       200.3200  264.3250  336.0570 C.3       1 TA1502      0.0000 
     20 O06       200.2100  263.5230  334.8700 O.3       1 TA1502      0.0000 
     21 C15       200.5890  264.6580  334.0380 C.3       1 TA1502      0.0000 
     22 C16       201.8060  264.3680  333.1850 C.3       1 TA1502      0.0000 
     23 C17       202.9720  265.3450  333.3430 C.3       1 TA1502      0.0000 
     24 O07       204.0410  264.9510  332.4800 O.3       1 TA1502      0.0000 
     25 C18       203.4650  265.5100  334.8110 C.3       1 TA1502      0.0000 
     26 C19       203.8860  264.1710  335.4480 C.3       1 TA1502      0.0000 
     27 C20       204.8950  266.2290  334.6450 C.2       1 TA1502      0.0000 
     28 O08       205.8930  265.5850  334.8710 O.2       1 TA1502      0.0000 
     29 C21       205.2580  267.7600  334.2580 C.3       1 TA1502      0.0000 
     30 O09       206.7000  267.8970  334.4000 O.3       1 TA1502      0.0000 
     31 C22       207.4570  268.0520  333.2960 C.2       1 TA1502      0.0000 
     32 O10       207.0150  267.9990  332.1860 O.2       1 TA1502      0.0000 
     33 C23       208.8810  268.2970  333.6550 C.3       1 TA1502      0.0000 
     34 C24       204.4590  268.8680  334.9600 C.2       1 TA1502      0.0000 
     35 C25       203.3850  269.3860  334.3230 C.2       1 TA1502      0.0000 
     36 C26       202.3560  270.2110  335.0840 C.3       1 TA1502      0.0000 
     37 O11       201.1610  270.6290  334.3670 O.3       1 TA1502      0.0000 
     38 C27       201.1680  271.8810  333.8930 C.2       1 TA1502      0.0000 
     39 O12       202.0830  272.6470  334.0040 O.2       1 TA1502      0.0000 
     40 C28       199.8800  272.2100  333.2080 C.3       1 TA1502      0.0000 
     41 O13       199.9610  273.4990  332.6290 O.3       1 TA1502      0.0000 
     42 C29       198.8430  272.1840  334.2780 C.3       1 TA1502      0.0000 
     43 N01       199.2590  273.1170  335.3100 N.am      1 TA1502      0.0000 
     44 C30       198.9560  272.8790  336.5870 C.2       1 TA1502      0.0000 
     45 O14       198.2080  271.9640  336.9090 O.2       1 TA1502      0.0000 
     46 C31       199.5840  273.7620  337.6160 C.ar      1 TA1502      0.0000 
     47 C32       199.3140  275.1250  337.6280 C.ar      1 TA1502      0.0000 
     48 C33       199.8700  275.9410  338.5960 C.ar      1 TA1502      0.0000 
     49 C34       200.7040  275.4120  339.5570 C.ar      1 TA1502      0.0000 
     50 C35       200.9840  274.0630  339.5520 C.ar      1 TA1502      0.0000 
     51 C36       200.4320  273.2410  338.5880 C.ar      1 TA1502      0.0000 
     52 C37       197.4490  272.4440  333.7520 C.ar      1 TA1502      0.0000 
     53 C38       196.6460  271.3920  333.3320 C.ar      1 TA1502      0.0000 
     54 C39       195.3890  271.6290  332.8090 C.ar      1 TA1502      0.0000 
     55 C40       194.9170  272.9160  332.6990 C.ar      1 TA1502      0.0000 
     56 C41       195.7010  273.9680  333.1130 C.ar      1 TA1502      0.0000 
     57 C42       196.9580  273.7340  333.6410 C.ar      1 TA1502      0.0000 
     58 C43       201.9290  269.5430  336.3940 C.3       1 TA1502      0.0000 
     59 C44       203.1150  269.1880  332.8600 C.3       1 TA1502      0.0000 
     60 C45       204.5290  268.8410  336.5470 C.3       1 TA1502      0.0000 
     61 C46       205.2790  270.0640  337.1050 C.3       1 TA1502      0.0000 
     62 C47       205.4400  268.0190  337.4670 C.3       1 TA1502      0.0000 
@<TRIPOS>BOND
     1    1    2 1    
     2    2    3 1    
     3    2   58 1    
     4    2   60 1    
     5    3    4 1    
     6    3   13 1    
     7    4    5 1    
     8    5    6 2    
     9    5    7 1    
    10    7    8 ar   
    11    7   12 ar   
    12    8    9 ar   
    13    9   10 ar   
    14   10   11 ar   
    15   11   12 ar   
    16   13   14 1    
    17   13   25 1    
    18   14   15 1    
    19   14   19 1    
    20   14   21 1    
    21   15   16 1    
    22   16   17 2    
    23   16   18 1    
    24   19   20 1    
    25   20   21 1    
    26   21   22 1    
    27   22   23 1    
    28   23   24 1    
    29   23   25 1    
    30   25   26 1    
    31   25   27 1    
    32   27   28 2    
    33   27   29 1    
    34   29   30 1    
    35   29   34 1    
    36   30   31 1    
    37   31   32 2    
    38   31   33 1    
    39   34   35 2    
    40   34   60 1    
    41   35   36 1    
    42   35   59 1    
    43   36   37 1    
    44   36   58 1    
    45   37   38 1    
    46   38   39 2    
    47   38   40 1    
    48   40   41 1    
    49   40   42 1    
    50   42   43 1    
    51   42   52 1    
    52   43   44 am   
    53   44   45 2    
    54   44   46 1    
    55   46   47 ar   
    56   46   51 ar   
    57   47   48 ar   
    58   48   49 ar   
    59   49   50 ar   
    60   50   51 ar   
    61   52   53 ar   
    62   52   57 ar   
    63   53   54 ar   
    64   54   55 ar   
    65   55   56 ar   
    66   56   57 ar   
    67   60   61 1    
    68   60   62 1    
@<TRIPOS>SUBSTRUCTURE
     1 TA1502      1 GROUP   
@<TRIPOS>SET

