#    Name: 6qve_5_GDP
#    Modification time : Fri May 22 19:37:43 2020

@<TRIPOS>MOLECULE
6qve_5_GDP
   28    30     1     0     1
SMALL
NO_CHARGES


@<TRIPOS>ATOM
      1 PB        179.6430  277.4040  352.6850 P.3       1 GDP501      0.0000 
      2 O1B       179.2550  277.4250  351.2120 O.co2     1 GDP501      0.0000 
      3 O2B       180.8360  278.3190  352.8720 O.co2     1 GDP501      0.0000 
      4 O3B       178.5220  277.7250  353.5870 O.co2     1 GDP501      0.0000 
      5 O3A       180.1960  275.9380  352.9610 O.3       1 GDP501      0.0000 
      6 PA        181.2830  275.1030  352.1570 P.3       1 GDP501      0.0000 
      7 O1A       181.4590  275.8080  350.8410 O.co2     1 GDP501      0.0000 
      8 O2A       182.5590  275.1100  352.8930 O.co2     1 GDP501      0.0000 
      9 O5'       180.6530  273.6800  351.8920 O.3       1 GDP501      0.0000 
     10 C5'       181.1440  272.4320  352.4230 C.3       1 GDP501      0.0000 
     11 C4'       181.3880  271.4900  351.2720 C.3       1 GDP501      0.0000 
     12 O4'       182.4060  272.0390  350.4070 O.3       1 GDP501      0.0000 
     13 C3'       181.8640  270.0910  351.6640 C.3       1 GDP501      0.0000 
     14 O3'       181.2350  269.0910  350.8700 O.3       1 GDP501      0.0000 
     15 C2'       183.3700  270.1590  351.4160 C.3       1 GDP501      0.0000 
     16 O2'       183.9070  268.8910  351.0610 O.3       1 GDP501      0.0000 
     17 C1'       183.4290  271.0870  350.2140 C.3       1 GDP501      0.0000 
     18 N9        184.7030  271.7960  350.1130 N.pl3     1 GDP501      0.0000 
     19 C8        185.2010  272.7310  350.9720 C.2       1 GDP501      0.0000 
     20 N7        186.3710  273.1890  350.6130 N.2       1 GDP501      0.0000 
     21 C5        186.6570  272.5100  349.4440 C.2       1 GDP501      0.0000 
     22 C6        187.7630  272.5910  348.5910 C.2       1 GDP501      0.0000 
     23 O6        188.7480  273.3090  348.7290 O.2       1 GDP501      0.0000 
     24 N1        187.6490  271.7550  347.5040 N.am      1 GDP501      0.0000 
     25 C2        186.5890  270.9320  347.2550 C.2       1 GDP501      0.0000 
     26 N2        186.6210  270.2180  346.1280 N.pl3     1 GDP501      0.0000 
     27 N3        185.5400  270.8380  348.0640 N.2       1 GDP501      0.0000 
     28 C4        185.6400  271.6490  349.1270 C.2       1 GDP501      0.0000 
@<TRIPOS>BOND
     1    1    2 ar   
     2    1    3 ar   
     3    1    4 ar   
     4    1    5 1    
     5    5    6 1    
     6    6    7 ar   
     7    6    8 ar   
     8    6    9 1    
     9    9   10 1    
    10   10   11 1    
    11   11   12 1    
    12   11   13 1    
    13   12   17 1    
    14   13   14 1    
    15   13   15 1    
    16   15   16 1    
    17   15   17 1    
    18   17   18 1    
    19   18   19 1    
    20   18   28 1    
    21   19   20 2    
    22   20   21 1    
    23   21   22 1    
    24   21   28 2    
    25   22   23 2    
    26   22   24 am   
    27   24   25 1    
    28   25   26 1    
    29   25   27 2    
    30   27   28 1    
@<TRIPOS>SUBSTRUCTURE
     1 GDP501      1 GROUP   
@<TRIPOS>SET
ATOM$ORANGE STATIC     ATOMS   COLORGROUP SYSTEM 
20 10 10 11 11 13 13 15 15 17 17 19 19 21 21 22 22 25 \
25 28 28 

