#    Name: 6qve_3_GTP
#    Modification time : Fri May 22 19:37:29 2020

@<TRIPOS>MOLECULE
6qve_3_GTP
   32    34     1     0     1
SMALL
NO_CHARGES


@<TRIPOS>ATOM
      1 PG        181.3260  332.2380  322.8690 P.3       1 GTP501      0.0000 
      2 O1G       182.1730  331.0550  323.1350 O.co2     1 GTP501      0.0000 
      3 O2G       182.0000  333.5400  323.2450 O.co2     1 GTP501      0.0000 
      4 O3G       179.9480  332.1580  323.4930 O.co2     1 GTP501      0.0000 
      5 O3B       181.0960  332.3430  321.3020 O.3       1 GTP501      0.0000 
      6 PB        182.0650  331.7190  320.2110 P.3       1 GTP501      0.0000 
      7 O1B       183.4510  332.1520  320.4700 O.co2     1 GTP501      0.0000 
      8 O2B       181.5770  332.1130  318.8450 O.co2     1 GTP501      0.0000 
      9 O3A       181.9330  330.1440  320.3700 O.3       1 GTP501      0.0000 
     10 PA        182.1440  328.9640  319.3280 P.3       1 GTP501      0.0000 
     11 O1A       183.2820  328.1270  319.7510 O.co2     1 GTP501      0.0000 
     12 O2A       182.4460  329.5970  317.9930 O.co2     1 GTP501      0.0000 
     13 O5'       180.7820  328.1820  319.1800 O.3       1 GTP501      0.0000 
     14 C5'       180.5600  326.8650  319.7220 C.3       1 GTP501      0.0000 
     15 C4'       180.7870  325.8350  318.6450 C.3       1 GTP501      0.0000 
     16 O4'       182.1730  325.8300  318.2570 O.3       1 GTP501      0.0000 
     17 C3'       180.4530  324.3980  319.0500 C.3       1 GTP501      0.0000 
     18 O3'       179.2660  323.9580  318.4070 O.3       1 GTP501      0.0000 
     19 C2'       181.6830  323.5810  318.6150 C.3       1 GTP501      0.0000 
     20 O2'       181.3120  322.4320  317.8630 O.3       1 GTP501      0.0000 
     21 C1'       182.4520  324.5560  317.7340 C.3       1 GTP501      0.0000 
     22 N9        183.9030  324.3520  317.7660 N.pl3     1 GTP501      0.0000 
     23 C8        184.7350  324.4580  318.8420 C.2       1 GTP501      0.0000 
     24 N7        185.9930  324.2530  318.5450 N.2       1 GTP501      0.0000 
     25 C5        185.9830  323.9950  317.1870 C.2       1 GTP501      0.0000 
     26 C6        187.0350  323.7070  316.3050 C.2       1 GTP501      0.0000 
     27 O6        188.2300  323.6470  316.5760 O.2       1 GTP501      0.0000 
     28 N1        186.5950  323.4870  315.0200 N.am      1 GTP501      0.0000 
     29 C2        185.2930  323.5390  314.6210 C.2       1 GTP501      0.0000 
     30 N2        185.0340  323.2430  313.3500 N.pl3     1 GTP501      0.0000 
     31 N3        184.2940  323.8320  315.4430 N.2       1 GTP501      0.0000 
     32 C4        184.7070  324.0430  316.6990 C.2       1 GTP501      0.0000 
@<TRIPOS>BOND
     1    1    2 ar   
     2    1    3 ar   
     3    1    4 ar   
     4    1    5 1    
     5    5    6 1    
     6    6    7 ar   
     7    6    8 ar   
     8    6    9 1    
     9    9   10 1    
    10   10   11 ar   
    11   10   12 ar   
    12   10   13 1    
    13   13   14 1    
    14   14   15 1    
    15   15   16 1    
    16   15   17 1    
    17   16   21 1    
    18   17   18 1    
    19   17   19 1    
    20   19   20 1    
    21   19   21 1    
    22   21   22 1    
    23   22   23 1    
    24   22   32 1    
    25   23   24 2    
    26   24   25 1    
    27   25   26 1    
    28   25   32 2    
    29   26   27 2    
    30   26   28 am   
    31   28   29 1    
    32   29   30 1    
    33   29   31 2    
    34   31   32 1    
@<TRIPOS>SUBSTRUCTURE
     1 GTP501      1 GROUP   
@<TRIPOS>SET
ATOM$ORANGE STATIC     ATOMS   COLORGROUP SYSTEM 
20 14 14 15 15 17 17 19 19 21 21 23 23 25 25 26 26 29 \
29 32 32 

