#    Name: 6qve_6_GDP
#    Modification time : Fri May 22 19:37:47 2020

@<TRIPOS>MOLECULE
6qve_6_GDP
   28    30     1     0     1
SMALL
NO_CHARGES


@<TRIPOS>ATOM
      1 PB        181.6750  332.0910  361.4550 P.3       1 GDP501      0.0000 
      2 O1B       181.3360  332.2830  359.9810 O.co2     1 GDP501      0.0000 
      3 O2B       183.1480  332.3980  361.6440 O.co2     1 GDP501      0.0000 
      4 O3B       180.8030  332.8700  362.3590 O.co2     1 GDP501      0.0000 
      5 O3A       181.5330  330.5320  361.7290 O.3       1 GDP501      0.0000 
      6 PA        182.1490  329.3070  360.9290 P.3       1 GDP501      0.0000 
      7 O1A       182.6190  329.8660  359.6130 O.co2     1 GDP501      0.0000 
      8 O2A       183.3020  328.7600  361.6630 O.co2     1 GDP501      0.0000 
      9 O5'       180.9630  328.3010  360.6630 O.3       1 GDP501      0.0000 
     10 C5'       180.8620  326.9640  361.1910 C.3       1 GDP501      0.0000 
     11 C4'       180.6730  326.0090  360.0410 C.3       1 GDP501      0.0000 
     12 O4'       181.8300  326.0610  359.1760 O.3       1 GDP501      0.0000 
     13 C3'       180.4920  324.5420  360.4300 C.3       1 GDP501      0.0000 
     14 O3'       179.4920  323.9160  359.6360 O.3       1 GDP501      0.0000 
     15 C2'       181.8780  323.9470  360.1830 C.3       1 GDP501      0.0000 
     16 O2'       181.8110  322.5720  359.8300 O.3       1 GDP501      0.0000 
     17 C1'       182.3380  324.7590  358.9830 C.3       1 GDP501      0.0000 
     18 N9        183.7940  324.8420  358.8840 N.pl3     1 GDP501      0.0000 
     19 C8        184.6470  325.4680  359.7470 C.2       1 GDP501      0.0000 
     20 N7        185.9020  325.3710  359.3900 N.2       1 GDP501      0.0000 
     21 C5        185.8650  324.6340  358.2210 C.2       1 GDP501      0.0000 
     22 C6        186.8980  324.2270  357.3670 C.2       1 GDP501      0.0000 
     23 O6        188.0960  324.4450  357.5090 O.2       1 GDP501      0.0000 
     24 N1        186.4320  323.5240  356.2790 N.am      1 GDP501      0.0000 
     25 C2        185.1200  323.2430  356.0290 C.2       1 GDP501      0.0000 
     26 N2        184.8410  322.5870  354.9030 N.pl3     1 GDP501      0.0000 
     27 N3        184.1340  323.6150  356.8370 N.2       1 GDP501      0.0000 
     28 C4        184.5760  324.3020  357.9020 C.2       1 GDP501      0.0000 
@<TRIPOS>BOND
     1    1    2 ar   
     2    1    3 ar   
     3    1    4 ar   
     4    1    5 1    
     5    5    6 1    
     6    6    7 ar   
     7    6    8 ar   
     8    6    9 1    
     9    9   10 1    
    10   10   11 1    
    11   11   12 1    
    12   11   13 1    
    13   12   17 1    
    14   13   14 1    
    15   13   15 1    
    16   15   16 1    
    17   15   17 1    
    18   17   18 1    
    19   18   19 1    
    20   18   28 1    
    21   19   20 2    
    22   20   21 1    
    23   21   22 1    
    24   21   28 2    
    25   22   23 2    
    26   22   24 am   
    27   24   25 1    
    28   25   26 1    
    29   25   27 2    
    30   27   28 1    
@<TRIPOS>SUBSTRUCTURE
     1 GDP501      1 GROUP   
@<TRIPOS>SET
ATOM$ORANGE STATIC     ATOMS   COLORGROUP SYSTEM 
20 10 10 11 11 13 13 15 15 17 17 19 19 21 21 22 22 25 \
25 28 28 

