#    Name: 6qve_4_GTP
#    Modification time : Fri May 22 19:37:39 2020

@<TRIPOS>MOLECULE
6qve_4_GTP
   32    34     1     0     1
SMALL
NO_CHARGES


@<TRIPOS>ATOM
      1 PG        179.5200  277.7120  314.2050 P.3       1 GTP501      0.0000 
      2 O1G       180.9850  277.6050  314.2600 O.co2     1 GTP501      0.0000 
      3 O2G       178.9700  278.9520  314.8830 O.co2     1 GTP501      0.0000 
      4 O3G       178.8040  276.4880  314.7260 O.co2     1 GTP501      0.0000 
      5 O3B       179.0680  277.8260  312.6880 O.3       1 GTP501      0.0000 
      6 PB        179.8280  277.2890  311.4040 P.3       1 GTP501      0.0000 
      7 O1B       180.9820  278.1580  311.1330 O.co2     1 GTP501      0.0000 
      8 O2B       178.8700  277.3030  310.2460 O.co2     1 GTP501      0.0000 
      9 O3A       180.3190  275.7910  311.6020 O.3       1 GTP501      0.0000 
     10 PA        181.0180  274.8250  310.5500 P.3       1 GTP501      0.0000 
     11 O1A       182.4510  274.6980  310.8730 O.co2     1 GTP501      0.0000 
     12 O2A       180.8690  275.4770  309.2040 O.co2     1 GTP501      0.0000 
     13 O5'       180.2660  273.4440  310.4770 O.3       1 GTP501      0.0000 
     14 C5'       180.7850  272.2230  311.0380 C.3       1 GTP501      0.0000 
     15 C4'       181.3130  271.3560  309.9240 C.3       1 GTP501      0.0000 
     16 O4'       182.4840  271.9670  309.3410 O.3       1 GTP501      0.0000 
     17 C3'       181.7140  269.9360  310.3350 C.3       1 GTP501      0.0000 
     18 O3'       180.9460  268.9710  309.6320 O.3       1 GTP501      0.0000 
     19 C2'       183.2120  269.8600  310.0000 C.3       1 GTP501      0.0000 
     20 O2'       183.5720  268.5980  309.4570 O.3       1 GTP501      0.0000 
     21 C1'       183.3590  270.9380  308.9390 C.3       1 GTP501      0.0000 
     22 N9        184.7170  271.4880  308.8600 N.pl3     1 GTP501      0.0000 
     23 C8        185.3410  272.2780  309.7850 C.2       1 GTP501      0.0000 
     24 N7        186.5560  272.6160  309.4370 N.2       1 GTP501      0.0000 
     25 C5        186.7390  272.0120  308.2060 C.2       1 GTP501      0.0000 
     26 C6        187.8470  272.0200  307.3270 C.2       1 GTP501      0.0000 
     27 O6        188.9200  272.5840  307.4960 O.2       1 GTP501      0.0000 
     28 N1        187.6160  271.2840  306.1860 N.am      1 GTP501      0.0000 
     29 C2        186.4610  270.6130  305.9100 C.2       1 GTP501      0.0000 
     30 N2        186.4070  269.9440  304.7600 N.pl3     1 GTP501      0.0000 
     31 N3        185.4120  270.6020  306.7270 N.2       1 GTP501      0.0000 
     32 C4        185.6180  271.3130  307.8450 C.2       1 GTP501      0.0000 
@<TRIPOS>BOND
     1    1    2 ar   
     2    1    3 ar   
     3    1    4 ar   
     4    1    5 1    
     5    5    6 1    
     6    6    7 ar   
     7    6    8 ar   
     8    6    9 1    
     9    9   10 1    
    10   10   11 ar   
    11   10   12 ar   
    12   10   13 1    
    13   13   14 1    
    14   14   15 1    
    15   15   16 1    
    16   15   17 1    
    17   16   21 1    
    18   17   18 1    
    19   17   19 1    
    20   19   20 1    
    21   19   21 1    
    22   21   22 1    
    23   22   23 1    
    24   22   32 1    
    25   23   24 2    
    26   24   25 1    
    27   25   26 1    
    28   25   32 2    
    29   26   27 2    
    30   26   28 am   
    31   28   29 1    
    32   29   30 1    
    33   29   31 2    
    34   31   32 1    
@<TRIPOS>SUBSTRUCTURE
     1 GTP501      1 GROUP   
@<TRIPOS>SET
ATOM$ORANGE STATIC     ATOMS   COLORGROUP SYSTEM 
20 14 14 15 15 17 17 19 19 21 21 23 23 25 25 26 26 29 \
29 32 32 

