#    Name: 6qve_2_TA1
#    Modification time : Fri May 22 19:37:20 2020

@<TRIPOS>MOLECULE
6qve_2_TA1
   62    68     1     0     0
SMALL
NO_CHARGES


@<TRIPOS>ATOM
      1 O01       199.0370  314.3020  347.2340 O.3       1 TA1502      0.0000 
      2 C01       198.8550  314.0230  345.8390 C.3       1 TA1502      0.0000 
      3 C02       197.7050  312.7790  345.7380 C.3       1 TA1502      0.0000 
      4 O02       196.5650  313.2460  346.4980 O.3       1 TA1502      0.0000 
      5 C03       196.4110  312.8690  347.7760 C.2       1 TA1502      0.0000 
      6 O03       197.1550  312.1080  348.3370 O.2       1 TA1502      0.0000 
      7 C04       195.1770  313.4340  348.3820 C.ar      1 TA1502      0.0000 
      8 C05       194.1960  314.0710  347.6270 C.ar      1 TA1502      0.0000 
      9 C06       193.1510  314.7340  348.2500 C.ar      1 TA1502      0.0000 
     10 C07       193.0840  314.7860  349.6260 C.ar      1 TA1502      0.0000 
     11 C08       194.0530  314.1630  350.3840 C.ar      1 TA1502      0.0000 
     12 C09       195.0860  313.4790  349.7690 C.ar      1 TA1502      0.0000 
     13 C10       197.2010  312.2690  344.3050 C.3       1 TA1502      0.0000 
     14 C11       195.5580  312.2380  344.0640 C.3       1 TA1502      0.0000 
     15 O04       194.9350  313.5420  344.2840 O.3       1 TA1502      0.0000 
     16 C12       195.1310  314.6390  343.5170 C.2       1 TA1502      0.0000 
     17 O05       195.8740  314.6890  342.5860 O.2       1 TA1502      0.0000 
     18 C13       194.2860  315.7610  344.0140 C.3       1 TA1502      0.0000 
     19 C14       194.6270  311.3210  344.8450 C.3       1 TA1502      0.0000 
     20 O06       194.1790  310.6480  343.6580 O.3       1 TA1502      0.0000 
     21 C15       195.0130  311.5050  342.8260 C.3       1 TA1502      0.0000 
     22 C16       195.9850  310.7120  341.9750 C.3       1 TA1502      0.0000 
     23 C17       197.4590  311.0870  342.1340 C.3       1 TA1502      0.0000 
     24 O07       198.2530  310.2650  341.2730 O.3       1 TA1502      0.0000 
     25 C18       197.9740  311.0210  343.6020 C.3       1 TA1502      0.0000 
     26 C19       197.7700  309.6330  344.2400 C.3       1 TA1502      0.0000 
     27 C20       199.5760  311.0470  343.4400 C.2       1 TA1502      0.0000 
     28 O08       200.1940  310.0320  343.6670 O.2       1 TA1502      0.0000 
     29 C21       200.5690  312.2660  343.0540 C.3       1 TA1502      0.0000 
     30 O09       201.9260  311.7630  343.1980 O.3       1 TA1502      0.0000 
     31 C22       202.6770  311.5730  342.0940 C.2       1 TA1502      0.0000 
     32 O10       202.2590  311.7160  340.9850 O.2       1 TA1502      0.0000 
     33 C23       204.0640  311.1740  342.4560 C.3       1 TA1502      0.0000 
     34 C24       200.3300  313.6110  343.7560 C.2       1 TA1502      0.0000 
     35 C25       199.5880  314.5460  343.1180 C.2       1 TA1502      0.0000 
     36 C26       199.0190  315.7360  343.8770 C.3       1 TA1502      0.0000 
     37 O11       198.1270  316.6310  343.1600 O.3       1 TA1502      0.0000 
     38 C27       198.6780  317.7570  342.6870 C.2       1 TA1502      0.0000 
     39 O12       199.8360  318.0470  342.7990 O.2       1 TA1502      0.0000 
     40 C28       197.6620  318.6130  342.0010 C.3       1 TA1502      0.0000 
     41 O13       198.2980  319.7390  341.4230 O.3       1 TA1502      0.0000 
     42 C29       196.7160  319.0400  343.0690 C.3       1 TA1502      0.0000 
     43 N01       197.4970  319.6990  344.1030 N.am      1 TA1502      0.0000 
     44 C30       197.1180  319.6160  345.3790 C.2       1 TA1502      0.0000 
     45 O14       196.0450  319.1190  345.7000 O.2       1 TA1502      0.0000 
     46 C31       198.0660  320.1390  346.4090 C.ar      1 TA1502      0.0000 
     47 C32       198.4140  321.4830  346.4220 C.ar      1 TA1502      0.0000 
     48 C33       199.2710  321.9760  347.3910 C.ar      1 TA1502      0.0000 
     49 C34       199.7880  321.1370  348.3530 C.ar      1 TA1502      0.0000 
     50 C35       199.4550  319.8020  348.3480 C.ar      1 TA1502      0.0000 
     51 C36       198.6020  319.3000  347.3810 C.ar      1 TA1502      0.0000 
     52 C37       195.5750  319.8810  342.5400 C.ar      1 TA1502      0.0000 
     53 C38       194.3960  319.2820  342.1200 C.ar      1 TA1502      0.0000 
     54 C39       193.3680  320.0440  341.5950 C.ar      1 TA1502      0.0000 
     55 C40       193.5020  321.4080  341.4870 C.ar      1 TA1502      0.0000 
     56 C41       194.6660  322.0140  341.9020 C.ar      1 TA1502      0.0000 
     57 C42       195.6940  321.2570  342.4310 C.ar      1 TA1502      0.0000 
     58 C43       198.3430  315.3200  345.1880 C.3       1 TA1502      0.0000 
     59 C44       199.2630  314.4870  341.6550 C.3       1 TA1502      0.0000 
     60 C45       200.3780  313.5560  345.3420 C.3       1 TA1502      0.0000 
     61 C46       201.5850  314.3330  345.9030 C.3       1 TA1502      0.0000 
     62 C47       200.8410  312.4200  346.2650 C.3       1 TA1502      0.0000 
@<TRIPOS>BOND
     1    1    2 1    
     2    2    3 1    
     3    2   58 1    
     4    2   60 1    
     5    3    4 1    
     6    3   13 1    
     7    4    5 1    
     8    5    6 2    
     9    5    7 1    
    10    7    8 ar   
    11    7   12 ar   
    12    8    9 ar   
    13    9   10 ar   
    14   10   11 ar   
    15   11   12 ar   
    16   13   14 1    
    17   13   25 1    
    18   14   15 1    
    19   14   19 1    
    20   14   21 1    
    21   15   16 1    
    22   16   17 2    
    23   16   18 1    
    24   19   20 1    
    25   20   21 1    
    26   21   22 1    
    27   22   23 1    
    28   23   24 1    
    29   23   25 1    
    30   25   26 1    
    31   25   27 1    
    32   27   28 2    
    33   27   29 1    
    34   29   30 1    
    35   29   34 1    
    36   30   31 1    
    37   31   32 2    
    38   31   33 1    
    39   34   35 2    
    40   34   60 1    
    41   35   36 1    
    42   35   59 1    
    43   36   37 1    
    44   36   58 1    
    45   37   38 1    
    46   38   39 2    
    47   38   40 1    
    48   40   41 1    
    49   40   42 1    
    50   42   43 1    
    51   42   52 1    
    52   43   44 am   
    53   44   45 2    
    54   44   46 1    
    55   46   47 ar   
    56   46   51 ar   
    57   47   48 ar   
    58   48   49 ar   
    59   49   50 ar   
    60   50   51 ar   
    61   52   53 ar   
    62   52   57 ar   
    63   53   54 ar   
    64   54   55 ar   
    65   55   56 ar   
    66   56   57 ar   
    67   60   61 1    
    68   60   62 1    
@<TRIPOS>SUBSTRUCTURE
     1 TA1502      1 GROUP   
@<TRIPOS>SET

