#    Name: 6cju_1_CMP
#    Modification time : Fri May 22 19:25:50 2020

@<TRIPOS>MOLECULE
6cju_1_CMP
   22    25     1     0     1
SMALL
NO_CHARGES


@<TRIPOS>ATOM
      1 P         108.6420  130.9180  177.5880 P.3       1 CMP500      0.0000 
      2 O1P       109.7970  131.0980  176.6500 O.co2     1 CMP500      0.0000 
      3 O2P       108.9140  130.8750  179.0650 O.co2     1 CMP500      0.0000 
      4 O5'       107.8880  129.5650  177.1660 O.3       1 CMP500      0.0000 
      5 C5'       107.1240  129.4810  175.9630 C.3       1 CMP500      0.0000 
      6 C4'       106.6670  130.8730  175.5730 C.3       1 CMP500      0.0000 
      7 O4'       105.4740  130.9030  174.7950 O.3       1 CMP500      0.0000 
      8 C3'       106.3260  131.6530  176.8070 C.3       1 CMP500      0.0000 
      9 O3'       107.5680  132.0760  177.3140 O.3       1 CMP500      0.0000 
     10 C2'       105.4590  132.7490  176.2670 C.3       1 CMP500      0.0000 
     11 O2'       106.2920  133.7810  175.7550 O.3       1 CMP500      0.0000 
     12 C1'       104.7200  132.0660  175.1360 C.3       1 CMP500      0.0000 
     13 N9        103.4170  131.6590  175.6910 N.pl3     1 CMP500      0.0000 
     14 C8        103.2430  130.7780  176.6880 C.2       1 CMP500      0.0000 
     15 N7        101.9300  130.6260  176.9810 N.2       1 CMP500      0.0000 
     16 C5        101.2410  131.4340  176.1580 C.ar      1 CMP500      0.0000 
     17 C6         99.8180  131.7630  175.9340 C.ar      1 CMP500      0.0000 
     18 N6         98.8430  131.1810  176.6700 N.pl3     1 CMP500      0.0000 
     19 N1         99.5230  132.6630  174.9730 N.ar      1 CMP500      0.0000 
     20 C2        100.4820  133.2470  174.2380 C.ar      1 CMP500      0.0000 
     21 N3        101.7920  132.9950  174.3890 N.ar      1 CMP500      0.0000 
     22 C4        102.2280  132.1140  175.3130 C.ar      1 CMP500      0.0000 
@<TRIPOS>BOND
     1    1    2 ar   
     2    1    3 ar   
     3    1    4 1    
     4    1    9 1    
     5    4    5 1    
     6    5    6 1    
     7    6    7 1    
     8    6    8 1    
     9    7   12 1    
    10    8    9 1    
    11    8   10 1    
    12   10   11 1    
    13   10   12 1    
    14   12   13 1    
    15   13   14 1    
    16   13   22 1    
    17   14   15 2    
    18   15   16 1    
    19   16   17 ar   
    20   16   22 ar   
    21   17   18 1    
    22   17   19 ar   
    23   19   20 ar   
    24   20   21 ar   
    25   21   22 ar   
@<TRIPOS>SUBSTRUCTURE
     1 CMP500      1 GROUP   
@<TRIPOS>SET
ATOM$ORANGE STATIC     ATOMS   COLORGROUP SYSTEM 
20 5 5 6 6 8 8 10 10 12 12 14 14 16 16 17 17 20 \
20 22 22 

