#    Name: 6cju_4_CMP
#    Modification time : Fri May 22 19:26:03 2020

@<TRIPOS>MOLECULE
6cju_4_CMP
   22    25     1     0     1
SMALL
NO_CHARGES


@<TRIPOS>ATOM
      1 P         130.9180  166.1310  177.5880 P.3       1 CMP500      0.0000 
      2 O1P       131.0980  164.9760  176.6500 O.co2     1 CMP500      0.0000 
      3 O2P       130.8750  165.8590  179.0650 O.co2     1 CMP500      0.0000 
      4 O5'       129.5650  166.8850  177.1660 O.3       1 CMP500      0.0000 
      5 C5'       129.4810  167.6490  175.9630 C.3       1 CMP500      0.0000 
      6 C4'       130.8730  168.1060  175.5730 C.3       1 CMP500      0.0000 
      7 O4'       130.9030  169.2990  174.7950 O.3       1 CMP500      0.0000 
      8 C3'       131.6530  168.4470  176.8070 C.3       1 CMP500      0.0000 
      9 O3'       132.0760  167.2050  177.3140 O.3       1 CMP500      0.0000 
     10 C2'       132.7490  169.3140  176.2670 C.3       1 CMP500      0.0000 
     11 O2'       133.7810  168.4810  175.7550 O.3       1 CMP500      0.0000 
     12 C1'       132.0660  170.0530  175.1360 C.3       1 CMP500      0.0000 
     13 N9        131.6590  171.3560  175.6910 N.pl3     1 CMP500      0.0000 
     14 C8        130.7780  171.5300  176.6880 C.2       1 CMP500      0.0000 
     15 N7        130.6260  172.8430  176.9810 N.2       1 CMP500      0.0000 
     16 C5        131.4340  173.5320  176.1580 C.ar      1 CMP500      0.0000 
     17 C6        131.7630  174.9550  175.9340 C.ar      1 CMP500      0.0000 
     18 N6        131.1810  175.9300  176.6700 N.pl3     1 CMP500      0.0000 
     19 N1        132.6630  175.2500  174.9730 N.ar      1 CMP500      0.0000 
     20 C2        133.2470  174.2910  174.2380 C.ar      1 CMP500      0.0000 
     21 N3        132.9950  172.9810  174.3890 N.ar      1 CMP500      0.0000 
     22 C4        132.1140  172.5450  175.3130 C.ar      1 CMP500      0.0000 
@<TRIPOS>BOND
     1    1    2 ar   
     2    1    3 ar   
     3    1    4 1    
     4    1    9 1    
     5    4    5 1    
     6    5    6 1    
     7    6    7 1    
     8    6    8 1    
     9    7   12 1    
    10    8    9 1    
    11    8   10 1    
    12   10   11 1    
    13   10   12 1    
    14   12   13 1    
    15   13   14 1    
    16   13   22 1    
    17   14   15 2    
    18   15   16 1    
    19   16   17 ar   
    20   16   22 ar   
    21   17   18 1    
    22   17   19 ar   
    23   19   20 ar   
    24   20   21 ar   
    25   21   22 ar   
@<TRIPOS>SUBSTRUCTURE
     1 CMP500      1 GROUP   
@<TRIPOS>SET
ATOM$ORANGE STATIC     ATOMS   COLORGROUP SYSTEM 
20 5 5 6 6 8 8 10 10 12 12 14 14 16 16 17 17 20 \
20 22 22 

