#    Name: 6cju_2_CMP
#    Modification time : Fri May 22 19:25:55 2020

@<TRIPOS>MOLECULE
6cju_2_CMP
   22    25     1     0     1
SMALL
NO_CHARGES


@<TRIPOS>ATOM
      1 P         143.8550  108.6420  177.5880 P.3       1 CMP500      0.0000 
      2 O1P       143.6750  109.7970  176.6500 O.co2     1 CMP500      0.0000 
      3 O2P       143.8980  108.9140  179.0650 O.co2     1 CMP500      0.0000 
      4 O5'       145.2080  107.8880  177.1660 O.3       1 CMP500      0.0000 
      5 C5'       145.2920  107.1240  175.9630 C.3       1 CMP500      0.0000 
      6 C4'       143.9000  106.6670  175.5730 C.3       1 CMP500      0.0000 
      7 O4'       143.8700  105.4740  174.7950 O.3       1 CMP500      0.0000 
      8 C3'       143.1200  106.3260  176.8070 C.3       1 CMP500      0.0000 
      9 O3'       142.6970  107.5680  177.3140 O.3       1 CMP500      0.0000 
     10 C2'       142.0240  105.4590  176.2670 C.3       1 CMP500      0.0000 
     11 O2'       140.9920  106.2920  175.7550 O.3       1 CMP500      0.0000 
     12 C1'       142.7070  104.7200  175.1360 C.3       1 CMP500      0.0000 
     13 N9        143.1140  103.4170  175.6910 N.pl3     1 CMP500      0.0000 
     14 C8        143.9950  103.2430  176.6880 C.2       1 CMP500      0.0000 
     15 N7        144.1470  101.9300  176.9810 N.2       1 CMP500      0.0000 
     16 C5        143.3390  101.2410  176.1580 C.ar      1 CMP500      0.0000 
     17 C6        143.0100   99.8180  175.9340 C.ar      1 CMP500      0.0000 
     18 N6        143.5920   98.8430  176.6700 N.pl3     1 CMP500      0.0000 
     19 N1        142.1100   99.5230  174.9730 N.ar      1 CMP500      0.0000 
     20 C2        141.5260  100.4820  174.2380 C.ar      1 CMP500      0.0000 
     21 N3        141.7780  101.7920  174.3890 N.ar      1 CMP500      0.0000 
     22 C4        142.6590  102.2280  175.3130 C.ar      1 CMP500      0.0000 
@<TRIPOS>BOND
     1    1    2 ar   
     2    1    3 ar   
     3    1    4 1    
     4    1    9 1    
     5    4    5 1    
     6    5    6 1    
     7    6    7 1    
     8    6    8 1    
     9    7   12 1    
    10    8    9 1    
    11    8   10 1    
    12   10   11 1    
    13   10   12 1    
    14   12   13 1    
    15   13   14 1    
    16   13   22 1    
    17   14   15 2    
    18   15   16 1    
    19   16   17 ar   
    20   16   22 ar   
    21   17   18 1    
    22   17   19 ar   
    23   19   20 ar   
    24   20   21 ar   
    25   21   22 ar   
@<TRIPOS>SUBSTRUCTURE
     1 CMP500      1 GROUP   
@<TRIPOS>SET
ATOM$ORANGE STATIC     ATOMS   COLORGROUP SYSTEM 
20 5 5 6 6 8 8 10 10 12 12 14 14 16 16 17 17 20 \
20 22 22 

