#    Name: 6q94_9_NAP_CAVITY_N1_ALL
#    Modification time : Fri May 22 19:31:18 2020

@<TRIPOS>MOLECULE
6q94_9_NAP_CAVITY_N1_ALL
  124     0     7     0     0
SMALL
NO_CHARGES


@<TRIPOS>ATOM
      1 OG         71.8400  246.0200    3.3000 O.3       1 SER1        0.0000 
      2 OG         69.9300  246.5000    4.0800 O.3       1 SER1        0.0000 
      3 OG         68.9600  247.6200    3.8800 O.3       1 SER1        0.0000 
      4 OG         68.0200  246.9800    4.8500 O.3       1 SER1        0.0000 
      5 OG         72.4900  246.7700    4.4200 O.3       1 SER1        0.0000 
      6 OG         71.5500  246.1300    5.4000 O.3       1 SER1        0.0000 
      7 OG         71.5800  244.3700    6.5700 O.3       1 SER1        0.0000 
      8 OG         70.6100  245.4900    6.3700 O.3       1 SER1        0.0000 
      9 OG         69.6400  246.6200    6.1700 O.3       1 SER1        0.0000 
     10 OG         74.1400  244.6400    6.9200 O.3       1 SER1        0.0000 
     11 OG         73.1700  245.7700    6.7200 O.3       1 SER1        0.0000 
     12 OG         72.2000  246.8900    6.5200 O.3       1 SER1        0.0000 
     13 OG         72.2300  245.1300    7.6900 O.3       1 SER1        0.0000 
     14 OG         74.7200  248.9300    5.6900 O.3       1 SER1        0.0000 
     15 OG         70.9300  248.1300    8.4200 O.3       1 SER1        0.0000 
     16 OG         70.9600  246.3700    9.5900 O.3       1 SER1        0.0000 
     17 OG         76.3100  250.3300    5.8300 O.3       1 SER1        0.0000 
     18 OG         77.3200  247.4400    7.2100 O.3       1 SER1        0.0000 
     19 OG         75.3700  249.6900    6.8100 O.3       1 SER1        0.0000 
     20 OG         75.4000  247.9200    7.9800 O.3       1 SER1        0.0000 
     21 OG         77.9300  249.9600    7.1500 O.3       1 SER1        0.0000 
     22 OG         77.9600  248.2000    8.3300 O.3       1 SER1        0.0000 
     23 OG         76.9900  249.3200    8.1300 O.3       1 SER1        0.0000 
     24 O          69.2200  249.2700    0.6100 O.2       2 ALA2        0.0000 
     25 O          68.2800  248.6300    1.5800 O.2       2 ALA2        0.0000 
     26 N          71.8100  247.7800    2.1200 N.am      2 ALA2        0.0000 
     27 O          69.8700  250.0300    1.7300 O.2       2 ALA2        0.0000 
     28 N          70.8700  247.1400    3.1000 N.am      2 ALA2        0.0000 
     29 O          68.9200  249.3900    2.7000 O.2       2 ALA2        0.0000 
     30 O          67.9800  248.7500    3.6800 O.2       2 ALA2        0.0000 
     31 N          72.4600  248.5400    3.2500 N.am      2 ALA2        0.0000 
     32 N          71.5200  247.9000    4.2200 N.am      2 ALA2        0.0000 
     33 O          68.6300  249.5100    4.8000 O.2       2 ALA2        0.0000 
     34 N          68.6600  247.7400    5.9800 N.am      2 ALA2        0.0000 
     35 N          70.6400  243.7300    7.5500 N.am      2 ALA2        0.0000 
     36 N          69.6700  244.8500    7.3500 N.am      2 ALA2        0.0000 
     37 N          68.6900  245.9800    7.1500 N.am      2 ALA2        0.0000 
     38 N          71.2900  244.4800    8.6700 N.am      2 ALA2        0.0000 
     39 N          70.3500  243.8400    9.6500 N.am      2 ALA2        0.0000 
     40 N          69.3700  244.9700    9.4500 N.am      2 ALA2        0.0000 
     41 N          75.7600  244.2800    8.2400 N.am      2 ALA2        0.0000 
     42 N          74.7900  245.4000    8.0400 N.am      2 ALA2        0.0000 
     43 N          78.2900  246.3200    7.4000 N.am      2 ALA2        0.0000 
     44 N          77.3500  245.6800    8.3800 N.am      2 ALA2        0.0000 
     45 N          76.3800  246.8000    8.1800 N.am      2 ALA2        0.0000 
     46 N          75.4400  246.1600    9.1600 N.am      2 ALA2        0.0000 
     47 O          72.5200  249.5300    8.5600 O.2       2 ALA2        0.0000 
     48 N          74.4900  245.5200   10.1300 N.am      2 ALA2        0.0000 
     49 N          79.9100  245.9500    8.7200 N.am      2 ALA2        0.0000 
     50 N          78.9400  247.0700    8.5300 N.am      2 ALA2        0.0000 
     51 N          78.0000  246.4300    9.5000 N.am      2 ALA2        0.0000 
     52 N          77.0200  247.5600    9.3000 N.am      2 ALA2        0.0000 
     53 O          74.1100  250.9300    8.7100 O.2       2 ALA2        0.0000 
     54 N          76.0800  246.9200   10.2800 N.am      2 ALA2        0.0000 
     55 O          77.6100  251.8500    8.0700 O.2       2 ALA2        0.0000 
     56 O          77.6400  250.0800    9.2500 O.2       2 ALA2        0.0000 
     57 O          76.6700  251.2100    9.0500 O.2       2 ALA2        0.0000 
     58 N          78.6400  247.1900   10.6200 N.am      2 ALA2        0.0000 
     59 O          76.7000  249.4400   10.2200 O.2       2 ALA2        0.0000 
     60 N          76.7300  247.6700   11.4000 N.am      2 ALA2        0.0000 
     61 O          75.7600  248.8000   11.2000 O.2       2 ALA2        0.0000 
     62 OD1        70.5100  250.7900    2.8500 O.co2     3 ASP3        0.0000 
     63 OD1        70.5400  249.0200    4.0200 O.co2     3 ASP3        0.0000 
     64 OD1        69.5700  250.1500    3.8200 O.co2     3 ASP3        0.0000 
     65 OD1        72.1600  248.6600    5.3400 O.co2     3 ASP3        0.0000 
     66 OD1        71.1900  249.7800    5.1400 O.co2     3 ASP3        0.0000 
     67 OD1        70.2500  249.1400    6.1200 O.co2     3 ASP3        0.0000 
     68 OD1        69.2800  250.2600    5.9200 O.co2     3 ASP3        0.0000 
     69 OD1        73.2000  244.0000    7.8900 O.co2     3 ASP3        0.0000 
     70 OD1        72.8100  249.4200    6.4600 O.co2     3 ASP3        0.0000 
     71 OD1        71.8700  248.7700    7.4400 O.co2     3 ASP3        0.0000 
     72 OD1        70.9000  249.9000    7.2400 O.co2     3 ASP3        0.0000 
     73 OD1        73.4600  250.1700    7.5800 O.co2     3 ASP3        0.0000 
     74 OD1        79.8800  247.7200    7.5500 O.co2     3 ASP3        0.0000 
     75 OD1        75.0500  251.5700    7.7300 O.co2     3 ASP3        0.0000 
     76 NZ         67.3400  247.9900    2.5600 N.4       4 LYS4        0.0000 
     77 NZ         67.0400  248.1100    4.6600 N.4       4 LYS4        0.0000 
     78 NZ         72.8700  245.8800    8.8100 N.4       4 LYS4        0.0000 
     79 NZ         71.9000  247.0100    8.6200 N.4       4 LYS4        0.0000 
     80 NZ         73.4900  248.4100    8.7600 N.4       4 LYS4        0.0000 
     81 NZ         73.5200  246.6400    9.9400 N.4       4 LYS4        0.0000 
     82 NZ         74.1400  249.1700    9.8800 N.4       4 LYS4        0.0000 
     83 CZ         71.7800  249.5500    0.9500 C.ar      5 PHE5        0.0000 
     84 CZ         71.4900  249.6600    3.0500 C.ar      5 PHE5        0.0000 
     85 CZ         73.1100  249.3000    4.3700 C.ar      5 PHE5        0.0000 
     86 CZ         70.2800  247.3700    7.3000 C.ar      5 PHE5        0.0000 
     87 CZ         69.3100  248.5000    7.1000 C.ar      5 PHE5        0.0000 
     88 CZ         70.3100  245.6100    8.4700 C.ar      5 PHE5        0.0000 
     89 CZ         70.0200  245.7300   10.5700 C.ar      5 PHE5        0.0000 
     90 CZ         76.9600  251.0900    6.9500 C.ar      5 PHE5        0.0000 
     91 CZ         75.9900  252.2100    6.7500 C.ar      5 PHE5        0.0000 
     92 CA         70.1900  248.1500    0.8000 C.3       6 GLY6        0.0000 
     93 CA         70.2200  246.3800    1.9800 C.3       6 GLY6        0.0000 
     94 CA         69.2500  247.5100    1.7800 C.3       6 GLY6        0.0000 
     95 CA         68.3100  246.8700    2.7600 C.3       6 GLY6        0.0000 
     96 CA         70.8400  248.9100    1.9300 C.3       6 GLY6        0.0000 
     97 CA         73.1400  247.5300    5.5400 C.3       6 GLY6        0.0000 
     98 CA         76.7000  244.9200    7.2600 C.3       6 GLY6        0.0000 
     99 CA         75.7300  246.0400    7.0600 C.3       6 GLY6        0.0000 
    100 CA         74.7600  247.1700    6.8600 C.3       6 GLY6        0.0000 
    101 CA         73.7800  248.2900    6.6600 C.3       6 GLY6        0.0000 
    102 CA         73.8200  246.5300    7.8400 C.3       6 GLY6        0.0000 
    103 CA         73.8500  244.7600    9.0100 C.3       6 GLY6        0.0000 
    104 CA         71.9300  245.2400    9.7900 C.3       6 GLY6        0.0000 
    105 CA         70.9900  244.6000   10.7700 C.3       6 GLY6        0.0000 
    106 CA         73.5500  244.8800   11.1100 C.3       6 GLY6        0.0000 
    107 CA         78.9100  248.8400    7.3500 C.3       6 GLY6        0.0000 
    108 CA         76.0200  250.4500    7.9300 C.3       6 GLY6        0.0000 
    109 CA         75.0800  249.8100    8.9000 C.3       6 GLY6        0.0000 
    110 CA         75.1100  248.0400   10.0800 C.3       6 GLY6        0.0000 
    111 CA         75.1400  246.2800   11.2600 C.3       6 GLY6        0.0000 
    112 CA         78.5800  250.7200    8.2700 C.3       6 GLY6        0.0000 
    113 CA         79.5800  247.8300    9.6500 C.3       6 GLY6        0.0000 
    114 CA         78.6100  248.9600    9.4500 C.3       6 GLY6        0.0000 
    115 CA         77.6700  248.3200   10.4200 C.3       6 GLY6        0.0000 
    116 DU         69.9000  248.2700    2.9000 H         7 CUB7        0.0000 
    117 DU         70.5800  247.2600    5.2000 H         7 CUB7        0.0000 
    118 DU         69.6000  248.3800    5.0000 H         7 CUB7        0.0000 
    119 DU         71.2200  248.0200    6.3200 H         7 CUB7        0.0000 
    120 DU         71.2600  246.2500    7.4900 H         7 CUB7        0.0000 
    121 DU         72.8400  247.6500    7.6400 H         7 CUB7        0.0000 
    122 DU         74.4300  249.0500    7.7800 H         7 CUB7        0.0000 
    123 DU         74.4600  247.2800    8.9600 H         7 CUB7        0.0000 
    124 DU         76.0500  248.6800    9.1000 H         7 CUB7        0.0000 
@<TRIPOS>BOND
@<TRIPOS>SUBSTRUCTURE
     1 SER1        1 GROUP   
     2 ALA2       24 GROUP   
     3 ASP3       62 GROUP   
     4 LYS4       76 GROUP   
     5 PHE5       83 GROUP   
     6 GLY6       92 GROUP   
     7 CUB7      116 GROUP   
@<TRIPOS>SET

