#    Name: 6q94_2_GDD
#    Modification time : Fri May 22 19:30:14 2020

@<TRIPOS>MOLECULE
6q94_2_GDD
   39    42     1     0     0
SMALL
NO_CHARGES


@<TRIPOS>ATOM
      1 N2        105.1330  248.3610   15.7500 N.pl3     1 GDD402      0.0000 
      2 C2        105.8720  248.2840   16.8620 C.2       1 GDD402      0.0000 
      3 N1        105.2990  248.7350   18.0240 N.am      1 GDD402      0.0000 
      4 N3        107.1260  247.8400   16.7830 N.2       1 GDD402      0.0000 
      5 C4        107.7770  247.9010   17.9570 C.2       1 GDD402      0.0000 
      6 C5        107.2950  248.3440   19.1750 C.2       1 GDD402      0.0000 
      7 C6        105.9360  248.8090   19.2480 C.2       1 GDD402      0.0000 
      8 O6        105.3520  249.2820   20.2320 O.2       1 GDD402      0.0000 
      9 N7        108.2850  248.2740   20.1400 N.2       1 GDD402      0.0000 
     10 C8        109.3310  247.8000   19.4970 C.2       1 GDD402      0.0000 
     11 N9        109.0950  247.5490   18.1720 N.pl3     1 GDD402      0.0000 
     12 C1'       110.0720  247.0210   17.1980 C.3       1 GDD402      0.0000 
     13 C2'       109.5940  245.8000   16.4280 C.3       1 GDD402      0.0000 
     14 O2'       109.7760  244.6360   17.2150 O.3       1 GDD402      0.0000 
     15 C3'       110.5600  245.8170   15.2410 C.3       1 GDD402      0.0000 
     16 O3'       111.7700  245.1400   15.5370 O.3       1 GDD402      0.0000 
     17 C4'       110.8430  247.3140   15.0310 C.3       1 GDD402      0.0000 
     18 O4'       110.3450  247.9970   16.2140 O.3       1 GDD402      0.0000 
     19 C5'       110.2190  247.9020   13.7820 C.3       1 GDD402      0.0000 
     20 O5'       108.8000  247.7030   13.8680 O.3       1 GDD402      0.0000 
     21 PA        107.7550  248.3030   12.8440 P.3       1 GDD402      0.0000 
     22 O1A       107.9070  249.7680   12.6790 O.co2     1 GDD402      0.0000 
     23 O2A       106.4450  247.7230   13.2760 O.co2     1 GDD402      0.0000 
     24 O3A       108.1140  247.5730   11.4830 O.3       1 GDD402      0.0000 
     25 PB        108.7430  246.2730   10.8200 P.3       1 GDD402      0.0000 
     26 O2B       110.2540  246.5600   10.6070 O.co2     1 GDD402      0.0000 
     27 O3B       108.4620  245.0160   11.5370 O.co2     1 GDD402      0.0000 
     28 O1B       107.8010  246.3950    9.4890 O.3       1 GDD402      0.0000 
     29 C11       107.8440  247.2460    8.4100 C.3       1 GDD402      0.0000 
     30 O51       109.0030  247.0480    7.6080 O.3       1 GDD402      0.0000 
     31 C51       108.9910  246.2870    6.3750 C.3       1 GDD402      0.0000 
     32 C61       109.9690  246.9900    5.4430 C.3       1 GDD402      0.0000 
     33 O6A       109.4810  248.3210    5.1750 O.3       1 GDD402      0.0000 
     34 C21       106.5110  247.1230    7.6840 C.3       1 GDD402      0.0000 
     35 O21       106.1480  248.3330    7.0210 O.3       1 GDD402      0.0000 
     36 C31       106.5130  245.9490    6.7280 C.3       1 GDD402      0.0000 
     37 O31       105.2780  245.9090    6.0260 O.3       1 GDD402      0.0000 
     38 C41       107.6180  246.1310    5.7200 C.3       1 GDD402      0.0000 
     39 O41       107.6200  245.0050    4.8510 O.3       1 GDD402      0.0000 
@<TRIPOS>BOND
     1    1    2 1    
     2    2    3 1    
     3    2    4 2    
     4    3    7 am   
     5    4    5 1    
     6    5    6 2    
     7    5   11 1    
     8    6    7 1    
     9    6    9 1    
    10    7    8 2    
    11    9   10 2    
    12   10   11 1    
    13   11   12 1    
    14   12   13 1    
    15   12   18 1    
    16   13   14 1    
    17   13   15 1    
    18   15   16 1    
    19   15   17 1    
    20   17   18 1    
    21   17   19 1    
    22   19   20 1    
    23   20   21 1    
    24   21   22 ar   
    25   21   23 ar   
    26   21   24 1    
    27   24   25 1    
    28   25   26 ar   
    29   25   27 ar   
    30   25   28 1    
    31   28   29 1    
    32   29   30 1    
    33   29   34 1    
    34   30   31 1    
    35   31   32 1    
    36   31   38 1    
    37   32   33 1    
    38   34   35 1    
    39   34   36 1    
    40   36   37 1    
    41   36   38 1    
    42   38   39 1    
@<TRIPOS>SUBSTRUCTURE
     1 GDD402      1 GROUP   
@<TRIPOS>SET

