#    Name: 6q94_8_NAP
#    Modification time : Fri May 22 19:31:29 2020

@<TRIPOS>MOLECULE
6q94_8_NAP
   59    62     1     0     1
SMALL
NO_CHARGES


@<TRIPOS>ATOM
      1 PA        110.5640  314.7070   43.8170 P.3       1 NAP401      0.0000 
      2 O1A       111.5160  315.7940   43.4930 O.co2     1 NAP401      0.0000 
      3 O2A       110.0650  313.8440   42.6520 O.co2     1 NAP401      0.0000 
      4 O5B       111.3490  313.7530   44.8890 O.3       1 NAP401      0.0000 
      5 C5B       110.7430  312.5160   45.2930 C.3       1 NAP401      0.0000 
      6 C4B       111.5130  311.9260   46.4460 C.3       1 NAP401      0.0000 
      7 O4B       110.8750  310.7010   46.8830 O.3       1 NAP401      0.0000 
      8 C3B       112.9680  311.5570   46.1590 C.3       1 NAP401      0.0000 
      9 O3B       113.7380  311.7900   47.3370 O.3       1 NAP401      0.0000 
     10 C2B       112.8610  310.0670   45.8620 C.3       1 NAP401      0.0000 
     11 O2B       114.1330  309.3970   45.9680 O.3       1 NAP401      0.0000 
     12 C1B       111.8520  309.6820   46.9320 C.3       1 NAP401      0.0000 
     13 N9A       111.2200  308.4000   46.6800 N.pl3     1 NAP401      0.0000 
     14 C8A       110.5990  307.9870   45.5340 C.2       1 NAP401      0.0000 
     15 N7A       110.2310  306.7300   45.5510 N.2       1 NAP401      0.0000 
     16 C5A       110.6280  306.2890   46.8040 C.ar      1 NAP401      0.0000 
     17 C6A       110.5180  305.0450   47.4530 C.ar      1 NAP401      0.0000 
     18 N6A       109.9440  303.9740   46.9110 N.pl3     1 NAP401      0.0000 
     19 N1A       110.9950  304.9460   48.7130 N.ar      1 NAP401      0.0000 
     20 C2A       111.5420  306.0240   49.2760 C.ar      1 NAP401      0.0000 
     21 N3A       111.7070  307.2450   48.7610 N.ar      1 NAP401      0.0000 
     22 C4A       111.2300  307.3110   47.5140 C.ar      1 NAP401      0.0000 
     23 O3        109.2740  315.2930   44.5340 O.3       1 NAP401      0.0000 
     24 PN        109.0340  316.8060   44.9820 P.3       1 NAP401      0.0000 
     25 O1N       108.1050  317.3690   43.9840 O.co2     1 NAP401      0.0000 
     26 O2N       110.3650  317.4240   45.1810 O.co2     1 NAP401      0.0000 
     27 O5D       108.3450  316.6940   46.4280 O.3       1 NAP401      0.0000 
     28 C5D       106.9900  317.1440   46.6400 C.3       1 NAP401      0.0000 
     29 C4D       106.1290  316.0650   47.2250 C.3       1 NAP401      0.0000 
     30 O4D       104.8060  316.5970   47.4040 O.3       1 NAP401      0.0000 
     31 C3D       105.9670  314.7890   46.4170 C.3       1 NAP401      0.0000 
     32 O3D       105.8920  313.7020   47.3360 O.3       1 NAP401      0.0000 
     33 C2D       104.6700  315.0200   45.6290 C.3       1 NAP401      0.0000 
     34 O2D       103.8520  313.8540   45.7060 O.3       1 NAP401      0.0000 
     35 C1D       103.9780  316.1680   46.3640 C.3       1 NAP401      0.0000 
     36 N1N       103.8060  317.3500   45.3440 N.pl3     1 NAP401      0.0000 
     37 P2B       115.1630  309.3130   44.7380 P.3       1 NAP401      0.0000 
     38 O1X       116.1350  308.1750   44.9310 O.co2     1 NAP401      0.0000 
     39 O2X       114.3310  309.2140   43.4520 O.co2     1 NAP401      0.0000 
     40 O3X       115.8660  310.6960   44.6260 O.co2     1 NAP401      0.0000 
     41 H51A      109.7040  312.7200   45.5480 H         1 NAP401      0.0000 
     42 H52A      110.7210  311.8560   44.4270 H         1 NAP401      0.0000 
     43 H4B       111.4290  312.5820   47.3110 H         1 NAP401      0.0000 
     44 H3B       113.3870  312.0760   45.2980 H         1 NAP401      0.0000 
     45 HO3A      113.3180  311.2420   48.0510 H         1 NAP401      0.0000 
     46 H2B       112.5170  309.8480   44.8520 H         1 NAP401      0.0000 
     47 H1B       112.2960  309.6410   47.9260 H         1 NAP401      0.0000 
     48 H8A       110.4240  308.6420   44.6820 H         1 NAP401      0.0000 
     49 H61A      109.5530  304.0300   45.9750 H         1 NAP401      0.0000 
     50 H62A      109.8980  303.1060   47.4350 H         1 NAP401      0.0000 
     51 H2A       111.8940  305.8620   50.2930 H         1 NAP401      0.0000 
     52 H51N      106.5630  317.4650   45.6910 H         1 NAP401      0.0000 
     53 H52N      106.9950  318.0000   47.3140 H         1 NAP401      0.0000 
     54 H4D       106.4620  315.8360   48.2360 H         1 NAP401      0.0000 
     55 H3D       106.7690  314.6200   45.6990 H         1 NAP401      0.0000 
     56 HO3N      105.1920  313.9510   47.9950 H         1 NAP401      0.0000 
     57 H2D       104.8470  315.2090   44.5720 H         1 NAP401      0.0000 
     58 HO2N      103.9890  313.2880   44.9010 H         1 NAP401      0.0000 
     59 H1D       103.0170  315.9260   46.8150 H         1 NAP401      0.0000 
@<TRIPOS>BOND
     1    1    2 ar   
     2    1    3 ar   
     3    1    4 1    
     4    1   23 1    
     5    4    5 1    
     6    5    6 1    
     7    5   41 1    
     8    5   42 1    
     9    6    7 1    
    10    6    8 1    
    11    6   43 1    
    12    7   12 1    
    13    8    9 1    
    14    8   10 1    
    15    8   44 1    
    16    9   45 1    
    17   10   11 1    
    18   10   12 1    
    19   10   46 1    
    20   11   37 1    
    21   12   13 1    
    22   12   47 1    
    23   13   14 1    
    24   13   22 1    
    25   14   15 2    
    26   14   48 1    
    27   15   16 1    
    28   16   17 ar   
    29   16   22 ar   
    30   17   18 1    
    31   17   19 ar   
    32   18   49 1    
    33   18   50 1    
    34   19   20 ar   
    35   20   21 ar   
    36   20   51 1    
    37   21   22 ar   
    38   23   24 1    
    39   24   25 ar   
    40   24   26 ar   
    41   24   27 1    
    42   27   28 1    
    43   28   29 1    
    44   28   52 1    
    45   28   53 1    
    46   29   30 1    
    47   29   31 1    
    48   29   54 1    
    49   30   35 1    
    50   31   32 1    
    51   31   33 1    
    52   31   55 1    
    53   32   56 1    
    54   33   34 1    
    55   33   35 1    
    56   33   57 1    
    57   34   58 1    
    58   35   36 1    
    59   35   59 1    
    60   37   38 ar   
    61   37   39 ar   
    62   37   40 ar   
@<TRIPOS>SUBSTRUCTURE
     1 NAP401      1 GROUP   
@<TRIPOS>SET
ATOM$ORANGE STATIC     ATOMS   COLORGROUP SYSTEM 
30 5 5 6 6 8 8 10 10 12 12 14 14 16 16 17 17 20 \
20 22 22 28 28 29 29 31 31 33 33 35 35 

