#    Name: 6q94_4_GDD
#    Modification time : Fri May 22 19:30:27 2020

@<TRIPOS>MOLECULE
6q94_4_GDD
   39    42     1     0     0
SMALL
NO_CHARGES


@<TRIPOS>ATOM
      1 N2        105.7910  317.1650   32.2460 N.pl3     1 GDD402      0.0000 
      2 C2        105.1700  317.6120   31.1490 C.2       1 GDD402      0.0000 
      3 N1        105.8150  317.4260   29.9550 N.am      1 GDD402      0.0000 
      4 N3        103.9920  318.2280   31.2620 N.2       1 GDD402      0.0000 
      5 C4        103.5120  318.6600   30.0790 C.2       1 GDD402      0.0000 
      6 C5        104.0930  318.5350   28.8320 C.2       1 GDD402      0.0000 
      7 C6        105.3530  317.8590   28.7280 C.2       1 GDD402      0.0000 
      8 O6        106.0120  317.6470   27.7100 O.2       1 GDD402      0.0000 
      9 N7        103.2930  319.1160   27.8640 N.2       1 GDD402      0.0000 
     10 C8        102.2530  319.5670   28.5330 C.2       1 GDD402      0.0000 
     11 N9        102.3140  319.3190   29.8780 N.pl3     1 GDD402      0.0000 
     12 C1'       101.2540  319.6500   30.8490 C.3       1 GDD402      0.0000 
     13 C2'       100.7260  318.4730   31.6480 C.3       1 GDD402      0.0000 
     14 O2'        99.7780  317.7310   30.9030 O.3       1 GDD402      0.0000 
     15 C3'       100.0470  319.2100   32.8070 C.3       1 GDD402      0.0000 
     16 O3'        98.7330  319.6090   32.4470 O.3       1 GDD402      0.0000 
     17 C4'       100.9280  320.4510   33.0010 C.3       1 GDD402      0.0000 
     18 O4'       101.7650  320.5370   31.8200 O.3       1 GDD402      0.0000 
     19 C5'       101.7930  320.3570   34.2300 C.3       1 GDD402      0.0000 
     20 O5'       102.4550  319.0820   34.1700 O.3       1 GDD402      0.0000 
     21 PA        103.6470  318.7070   35.1550 P.3       1 GDD402      0.0000 
     22 O1A       104.6060  319.7960   35.3600 O.co2     1 GDD402      0.0000 
     23 O2A       104.3520  317.5110   34.5890 O.co2     1 GDD402      0.0000 
     24 O3A       103.0150  318.3270   36.5570 O.3       1 GDD402      0.0000 
     25 PB        101.5580  318.1220   37.1580 P.3       1 GDD402      0.0000 
     26 O2B       100.9280  319.4600   37.5930 O.co2     1 GDD402      0.0000 
     27 O3B       100.7230  317.1270   36.4440 O.co2     1 GDD402      0.0000 
     28 O1B       102.3190  317.5340   38.4740 O.3       1 GDD402      0.0000 
     29 C11       102.8630  318.2220   39.5330 C.3       1 GDD402      0.0000 
     30 O51       101.8520  318.8870   40.2770 O.3       1 GDD402      0.0000 
     31 C51       101.3140  318.3690   41.5160 C.3       1 GDD402      0.0000 
     32 C61       101.0560  319.5940   42.3720 C.3       1 GDD402      0.0000 
     33 O6A       102.3090  319.9790   42.9860 O.3       1 GDD402      0.0000 
     34 C21       103.7560  317.2880   40.3400 C.3       1 GDD402      0.0000 
     35 O21       104.7960  317.9750   41.0380 O.3       1 GDD402      0.0000 
     36 C31       102.9380  316.4550   41.3050 C.3       1 GDD402      0.0000 
     37 O31       103.8060  315.5990   42.0360 O.3       1 GDD402      0.0000 
     38 C41       102.2230  317.3810   42.2490 C.3       1 GDD402      0.0000 
     39 O41       101.4890  316.6150   43.1920 O.3       1 GDD402      0.0000 
@<TRIPOS>BOND
     1    1    2 1    
     2    2    3 1    
     3    2    4 2    
     4    3    7 am   
     5    4    5 1    
     6    5    6 2    
     7    5   11 1    
     8    6    7 1    
     9    6    9 1    
    10    7    8 2    
    11    9   10 2    
    12   10   11 1    
    13   11   12 1    
    14   12   13 1    
    15   12   18 1    
    16   13   14 1    
    17   13   15 1    
    18   15   16 1    
    19   15   17 1    
    20   17   18 1    
    21   17   19 1    
    22   19   20 1    
    23   20   21 1    
    24   21   22 ar   
    25   21   23 ar   
    26   21   24 1    
    27   24   25 1    
    28   25   26 ar   
    29   25   27 ar   
    30   25   28 1    
    31   28   29 1    
    32   29   30 1    
    33   29   34 1    
    34   30   31 1    
    35   31   32 1    
    36   31   38 1    
    37   32   33 1    
    38   34   35 1    
    39   34   36 1    
    40   36   37 1    
    41   36   38 1    
    42   38   39 1    
@<TRIPOS>SUBSTRUCTURE
     1 GDD402      1 GROUP   
@<TRIPOS>SET

