#    Name: 6q94_6_GDD
#    Modification time : Fri May 22 19:30:40 2020

@<TRIPOS>MOLECULE
6q94_6_GDD
   39    42     1     0     0
SMALL
NO_CHARGES


@<TRIPOS>ATOM
      1 N2        132.1960  297.4970   50.4410 N.pl3     1 GDD401      0.0000 
      2 C2        133.1860  297.4540   51.3350 C.2       1 GDD401      0.0000 
      3 N1        133.4350  298.6030   52.0460 N.am      1 GDD401      0.0000 
      4 N3        133.8530  296.3110   51.5220 N.2       1 GDD401      0.0000 
      5 C4        134.7850  296.3990   52.5050 C.2       1 GDD401      0.0000 
      6 C5        135.1100  297.5030   53.2690 C.2       1 GDD401      0.0000 
      7 C6        134.3880  298.7330   53.0430 C.2       1 GDD401      0.0000 
      8 O6        134.5490  299.8110   53.6250 O.2       1 GDD401      0.0000 
      9 N7        136.1190  297.1920   54.1620 N.2       1 GDD401      0.0000 
     10 C8        136.3760  295.9240   53.9300 C.2       1 GDD401      0.0000 
     11 N9        135.6000  295.3750   52.9490 N.pl3     1 GDD401      0.0000 
     12 C1'       135.6100  293.9600   52.5370 C.3       1 GDD401      0.0000 
     13 C2'       134.2850  293.2410   52.7420 C.3       1 GDD401      0.0000 
     14 O2'       134.1590  292.7930   54.0870 O.3       1 GDD401      0.0000 
     15 C3'       134.4230  292.0770   51.7550 C.3       1 GDD401      0.0000 
     16 O3'       135.0710  290.9670   52.3600 O.3       1 GDD401      0.0000 
     17 C4'       135.2900  292.6610   50.6340 C.3       1 GDD401      0.0000 
     18 O4'       135.8680  293.8840   51.1520 O.3       1 GDD401      0.0000 
     19 C5'       134.5740  292.9400   49.3350 C.3       1 GDD401      0.0000 
     20 O5'       133.5960  293.9720   49.5640 O.3       1 GDD401      0.0000 
     21 PA        132.6540  294.4970   48.3860 P.3       1 GDD401      0.0000 
     22 O1A       133.3390  295.4890   47.5360 O.co2     1 GDD401      0.0000 
     23 O2A       131.3800  294.9890   49.0820 O.co2     1 GDD401      0.0000 
     24 O3A       132.2540  293.2220   47.5170 O.3       1 GDD401      0.0000 
     25 PB        131.3890  291.9200   47.8230 P.3       1 GDD401      0.0000 
     26 O2B       132.3490  290.7140   47.7270 O.co2     1 GDD401      0.0000 
     27 O3B       130.6080  292.0830   49.0570 O.co2     1 GDD401      0.0000 
     28 O1B       130.3570  291.7860   46.5880 O.3       1 GDD401      0.0000 
     29 C11       130.5120  292.1870   45.2740 C.3       1 GDD401      0.0000 
     30 O51       130.7730  291.0700   44.4410 O.3       1 GDD401      0.0000 
     31 C51       129.7010  290.1140   44.4060 C.3       1 GDD401      0.0000 
     32 C61       130.1730  288.9620   43.5460 C.3       1 GDD401      0.0000 
     33 O6A       130.3960  289.3650   42.2020 O.3       1 GDD401      0.0000 
     34 C21       129.2630  292.9310   44.8120 C.3       1 GDD401      0.0000 
     35 O21       129.4730  293.5200   43.5330 O.3       1 GDD401      0.0000 
     36 C31       128.0820  291.9790   44.7290 C.3       1 GDD401      0.0000 
     37 O31       126.9920  292.6630   44.1330 O.3       1 GDD401      0.0000 
     38 C41       128.4390  290.7790   43.8680 C.3       1 GDD401      0.0000 
     39 O41       127.3670  289.8430   43.8430 O.3       1 GDD401      0.0000 
@<TRIPOS>BOND
     1    1    2 1    
     2    2    3 1    
     3    2    4 2    
     4    3    7 am   
     5    4    5 1    
     6    5    6 2    
     7    5   11 1    
     8    6    7 1    
     9    6    9 1    
    10    7    8 2    
    11    9   10 2    
    12   10   11 1    
    13   11   12 1    
    14   12   13 1    
    15   12   18 1    
    16   13   14 1    
    17   13   15 1    
    18   15   16 1    
    19   15   17 1    
    20   17   18 1    
    21   17   19 1    
    22   19   20 1    
    23   20   21 1    
    24   21   22 ar   
    25   21   23 ar   
    26   21   24 1    
    27   24   25 1    
    28   25   26 ar   
    29   25   27 ar   
    30   25   28 1    
    31   28   29 1    
    32   29   30 1    
    33   29   34 1    
    34   30   31 1    
    35   31   32 1    
    36   31   38 1    
    37   32   33 1    
    38   34   35 1    
    39   34   36 1    
    40   36   37 1    
    41   36   38 1    
    42   38   39 1    
@<TRIPOS>SUBSTRUCTURE
     1 GDD401      1 GROUP   
@<TRIPOS>SET

