#    Name: 6q94_3_GDD
#    Modification time : Fri May 22 19:30:21 2020

@<TRIPOS>MOLECULE
6q94_3_GDD
   39    42     1     0     0
SMALL
NO_CHARGES


@<TRIPOS>ATOM
      1 N2         80.6180  293.0100   63.9360 N.pl3     1 GDD402      0.0000 
      2 C2         80.1640  293.6000   65.0470 C.2       1 GDD402      0.0000 
      3 N1         80.2550  292.8820   66.2120 N.am      1 GDD402      0.0000 
      4 N3         79.5960  294.8050   64.9690 N.2       1 GDD402      0.0000 
      5 C4         79.1060  295.2290   66.1530 C.2       1 GDD402      0.0000 
      6 C5         79.1430  294.5720   67.3740 C.2       1 GDD402      0.0000 
      7 C6         79.7640  293.2900   67.4380 C.2       1 GDD402      0.0000 
      8 O6         79.8940  292.5740   68.4280 O.2       1 GDD402      0.0000 
      9 N7         78.5550  295.3450   68.3590 N.2       1 GDD402      0.0000 
     10 C8         78.1750  296.4380   67.7310 C.2       1 GDD402      0.0000 
     11 N9         78.4760  296.4370   66.3920 N.pl3     1 GDD402      0.0000 
     12 C1'        78.1780  297.5420   65.4560 C.3       1 GDD402      0.0000 
     13 C2'        79.3690  298.0890   64.6870 C.3       1 GDD402      0.0000 
     14 O2'        80.1720  298.9980   65.4240 O.3       1 GDD402      0.0000 
     15 C3'        78.6490  298.8430   63.5660 C.3       1 GDD402      0.0000 
     16 O3'        78.3220  300.1620   63.9880 O.3       1 GDD402      0.0000 
     17 C4'        77.3940  297.9920   63.3250 C.3       1 GDD402      0.0000 
     18 O4'        77.2880  297.0920   64.4570 O.3       1 GDD402      0.0000 
     19 C5'        77.4460  297.1780   62.0600 C.3       1 GDD402      0.0000 
     20 O5'        78.6470  296.3920   62.1470 O.3       1 GDD402      0.0000 
     21 PA         78.9810  295.2300   61.0740 P.3       1 GDD402      0.0000 
     22 O1A        77.7570  294.5940   60.5090 O.co2     1 GDD402      0.0000 
     23 O2A        79.9980  294.3570   61.7500 O.co2     1 GDD402      0.0000 
     24 O3A        79.7890  295.9660   59.9180 O.3       1 GDD402      0.0000 
     25 PB         79.6390  297.3050   59.0730 P.3       1 GDD402      0.0000 
     26 O2B        78.1750  297.6980   58.9670 O.co2     1 GDD402      0.0000 
     27 O3B        80.5570  298.3200   59.6310 O.co2     1 GDD402      0.0000 
     28 O1B        80.1060  296.6260   57.6330 O.3       1 GDD402      0.0000 
     29 C11        79.3860  295.9850   56.6100 C.3       1 GDD402      0.0000 
     30 O51        78.8140  296.8950   55.6710 O.3       1 GDD402      0.0000 
     31 C51        79.4550  297.2600   54.4250 C.3       1 GDD402      0.0000 
     32 C61        78.3470  297.3620   53.4140 C.3       1 GDD402      0.0000 
     33 O6A        77.4860  298.4240   53.7010 O.3       1 GDD402      0.0000 
     34 C21        80.3690  295.0080   55.9850 C.3       1 GDD402      0.0000 
     35 O21        79.6740  294.0020   55.2530 O.3       1 GDD402      0.0000 
     36 C31        81.3260  295.7030   55.0470 C.3       1 GDD402      0.0000 
     37 O31        82.2090  294.7200   54.5260 O.3       1 GDD402      0.0000 
     38 C41        80.5370  296.3100   53.9240 C.3       1 GDD402      0.0000 
     39 O41        81.4210  297.0040   53.0540 O.3       1 GDD402      0.0000 
@<TRIPOS>BOND
     1    1    2 1    
     2    2    3 1    
     3    2    4 2    
     4    3    7 am   
     5    4    5 1    
     6    5    6 2    
     7    5   11 1    
     8    6    7 1    
     9    6    9 1    
    10    7    8 2    
    11    9   10 2    
    12   10   11 1    
    13   11   12 1    
    14   12   13 1    
    15   12   18 1    
    16   13   14 1    
    17   13   15 1    
    18   15   16 1    
    19   15   17 1    
    20   17   18 1    
    21   17   19 1    
    22   19   20 1    
    23   20   21 1    
    24   21   22 ar   
    25   21   23 ar   
    26   21   24 1    
    27   24   25 1    
    28   25   26 ar   
    29   25   27 ar   
    30   25   28 1    
    31   28   29 1    
    32   29   30 1    
    33   29   34 1    
    34   30   31 1    
    35   31   32 1    
    36   31   38 1    
    37   32   33 1    
    38   34   35 1    
    39   34   36 1    
    40   36   37 1    
    41   36   38 1    
    42   38   39 1    
@<TRIPOS>SUBSTRUCTURE
     1 GDD402      1 GROUP   
@<TRIPOS>SET

