#    Name: 6q94_9_NAP
#    Modification time : Fri May 22 19:31:16 2020

@<TRIPOS>MOLECULE
6q94_9_NAP
   59    62     1     0     1
SMALL
NO_CHARGES


@<TRIPOS>ATOM
      1 PA         77.7900  249.2050    7.9680 P.3       1 NAP401      0.0000 
      2 O1A        77.8240  250.5190    8.6450 O.co2     1 NAP401      0.0000 
      3 O2A        78.0810  249.2340    6.4570 O.co2     1 NAP401      0.0000 
      4 O5B        78.9770  248.3860    8.6900 O.3       1 NAP401      0.0000 
      5 C5B        79.4270  247.1130    8.2170 C.3       1 NAP401      0.0000 
      6 C4B        80.3970  246.6080    9.2500 C.3       1 NAP401      0.0000 
      7 O4B        80.8730  245.3000    8.8570 O.3       1 NAP401      0.0000 
      8 C3B        81.6510  247.4590    9.4630 C.3       1 NAP401      0.0000 
      9 O3B        81.9420  247.4600   10.8590 O.3       1 NAP401      0.0000 
     10 C2B        82.6880  246.7340    8.6060 C.3       1 NAP401      0.0000 
     11 O2B        84.0470  247.0710    8.9580 O.3       1 NAP401      0.0000 
     12 C1B        82.2850  245.3010    8.9090 C.3       1 NAP401      0.0000 
     13 N9A        82.7990  244.3400    7.9540 N.pl3     1 NAP401      0.0000 
     14 C8A        82.7120  244.3480    6.5870 C.2       1 NAP401      0.0000 
     15 N7A        83.3590  243.3680    6.0060 N.2       1 NAP401      0.0000 
     16 C5A        83.9010  242.6570    7.0690 C.ar      1 NAP401      0.0000 
     17 C6A        84.6720  241.4820    7.1340 C.ar      1 NAP401      0.0000 
     18 N6A        85.1420  240.8420    6.0730 N.pl3     1 NAP401      0.0000 
     19 N1A        84.9870  241.0000    8.3550 N.ar      1 NAP401      0.0000 
     20 C2A        84.5640  241.6600    9.4300 C.ar      1 NAP401      0.0000 
     21 N3A        83.8470  242.7830    9.4890 N.ar      1 NAP401      0.0000 
     22 C4A        83.5500  243.2380    8.2710 C.ar      1 NAP401      0.0000 
     23 O3         76.4170  248.4390    8.2090 O.3       1 NAP401      0.0000 
     24 PN         75.2570  248.8220    9.2380 P.3       1 NAP401      0.0000 
     25 O1N        75.5540  250.1410    9.8320 O.co2     1 NAP401      0.0000 
     26 O2N        75.1260  247.6770   10.1620 O.co2     1 NAP401      0.0000 
     27 O5D        73.9800  248.8970    8.2970 O.3       1 NAP401      0.0000 
     28 C5D        73.6570  247.7530    7.4650 C.3       1 NAP401      0.0000 
     29 C4D        74.2180  246.4230    7.9310 C.3       1 NAP401      0.0000 
     30 O4D        73.7570  246.1410    9.2710 O.3       1 NAP401      0.0000 
     31 C3D        73.7020  245.2610    7.0620 C.3       1 NAP401      0.0000 
     32 O3D        74.6140  244.7480    6.1030 O.3       1 NAP401      0.0000 
     33 C2D        73.3980  244.1920    8.0980 C.3       1 NAP401      0.0000 
     34 O2D        74.6600  243.6250    8.4130 O.3       1 NAP401      0.0000 
     35 C1D        72.8580  245.0790    9.1950 C.3       1 NAP401      0.0000 
     36 N1N        71.5370  245.5920    8.5960 N.pl3     1 NAP401      0.0000 
     37 P2B        84.6990  248.4030    8.3080 P.3       1 NAP401      0.0000 
     38 O1X        84.1070  248.6710    6.9850 O.co2     1 NAP401      0.0000 
     39 O2X        84.3880  249.5380    9.2960 O.co2     1 NAP401      0.0000 
     40 O3X        86.2260  248.2370    8.2640 O.co2     1 NAP401      0.0000 
     41 H51A       78.5660  246.4600    8.0820 H         1 NAP401      0.0000 
     42 H52A       79.8740  247.2380    7.2320 H         1 NAP401      0.0000 
     43 H4B        79.8740  246.4290   10.1880 H         1 NAP401      0.0000 
     44 H3B        81.5850  248.4790    9.0880 H         1 NAP401      0.0000 
     45 HO3A       81.4870  248.2590   11.2330 H         1 NAP401      0.0000 
     46 H2B        82.6220  246.9830    7.5480 H         1 NAP401      0.0000 
     47 H1B        82.6180  244.9870    9.8970 H         1 NAP401      0.0000 
     48 H8A        82.1570  245.1020    6.0300 H         1 NAP401      0.0000 
     49 H61A       84.9490  241.1980    5.1420 H         1 NAP401      0.0000 
     50 H62A       85.6920  239.9980    6.1960 H         1 NAP401      0.0000 
     51 H2A        84.8540  241.2040   10.3750 H         1 NAP401      0.0000 
     52 H51N       74.0290  247.9430    6.4590 H         1 NAP401      0.0000 
     53 H52N       72.5730  247.6630    7.4110 H         1 NAP401      0.0000 
     54 H4D        75.2970  246.4520    8.0680 H         1 NAP401      0.0000 
     55 H3D        72.8310  245.6210    6.5160 H         1 NAP401      0.0000 
     56 HO3N       74.0610  244.2740    5.4290 H         1 NAP401      0.0000 
     57 H2D        72.7460  243.3570    7.8460 H         1 NAP401      0.0000 
     58 HO2N       74.5380  242.7310    8.8280 H         1 NAP401      0.0000 
     59 H1D        72.7220  244.6850   10.2010 H         1 NAP401      0.0000 
@<TRIPOS>BOND
     1    1    2 ar   
     2    1    3 ar   
     3    1    4 1    
     4    1   23 1    
     5    4    5 1    
     6    5    6 1    
     7    5   41 1    
     8    5   42 1    
     9    6    7 1    
    10    6    8 1    
    11    6   43 1    
    12    7   12 1    
    13    8    9 1    
    14    8   10 1    
    15    8   44 1    
    16    9   45 1    
    17   10   11 1    
    18   10   12 1    
    19   10   46 1    
    20   11   37 1    
    21   12   13 1    
    22   12   47 1    
    23   13   14 1    
    24   13   22 1    
    25   14   15 2    
    26   14   48 1    
    27   15   16 1    
    28   16   17 ar   
    29   16   22 ar   
    30   17   18 1    
    31   17   19 ar   
    32   18   49 1    
    33   18   50 1    
    34   19   20 ar   
    35   20   21 ar   
    36   20   51 1    
    37   21   22 ar   
    38   23   24 1    
    39   24   25 ar   
    40   24   26 ar   
    41   24   27 1    
    42   27   28 1    
    43   28   29 1    
    44   28   52 1    
    45   28   53 1    
    46   29   30 1    
    47   29   31 1    
    48   29   54 1    
    49   30   35 1    
    50   31   32 1    
    51   31   33 1    
    52   31   55 1    
    53   32   56 1    
    54   33   34 1    
    55   33   35 1    
    56   33   57 1    
    57   34   58 1    
    58   35   36 1    
    59   35   59 1    
    60   37   38 ar   
    61   37   39 ar   
    62   37   40 ar   
@<TRIPOS>SUBSTRUCTURE
     1 NAP401      1 GROUP   
@<TRIPOS>SET
ATOM$ORANGE STATIC     ATOMS   COLORGROUP SYSTEM 
30 5 5 6 6 8 8 10 10 12 12 14 14 16 16 17 17 20 \
20 22 22 28 28 29 29 31 31 33 33 35 35 

