#    Name: 6q94_1_GDD
#    Modification time : Fri May 22 19:30:07 2020

@<TRIPOS>MOLECULE
6q94_1_GDD
   39    42     1     0     0
SMALL
NO_CHARGES


@<TRIPOS>ATOM
      1 N2         72.9700  254.9560   -2.5250 N.pl3     1 GDD402      0.0000 
      2 C2         72.1960  255.5890   -3.4080 C.2       1 GDD402      0.0000 
      3 N1         72.7550  256.6520   -4.0710 N.am      1 GDD402      0.0000 
      4 N3         70.9280  255.2040   -3.5680 N.2       1 GDD402      0.0000 
      5 C4         70.2500  255.9800   -4.4350 C.2       1 GDD402      0.0000 
      6 C5         70.7210  257.0750   -5.1480 C.2       1 GDD402      0.0000 
      7 C6         72.0900  257.4700   -4.9700 C.2       1 GDD402      0.0000 
      8 O6         72.6690  258.4270   -5.4940 O.2       1 GDD402      0.0000 
      9 N7         69.7150  257.6150   -5.9280 N.2       1 GDD402      0.0000 
     10 C8         68.6700  256.8560   -5.6730 C.2       1 GDD402      0.0000 
     11 N9         68.9190  255.8480   -4.7780 N.pl3     1 GDD402      0.0000 
     12 C1'        67.9280  254.8580   -4.3130 C.3       1 GDD402      0.0000 
     13 C2'        68.3060  253.4020   -4.5360 C.3       1 GDD402      0.0000 
     14 O2'        68.0820  252.9880   -5.8780 O.3       1 GDD402      0.0000 
     15 C3'        67.3530  252.7180   -3.5510 C.3       1 GDD402      0.0000 
     16 O3'        66.0770  252.6010   -4.1620 O.3       1 GDD402      0.0000 
     17 C4'        67.2600  253.7290   -2.3980 C.3       1 GDD402      0.0000 
     18 O4'        67.7900  254.9760   -2.9140 O.3       1 GDD402      0.0000 
     19 C5'        67.9650  253.3500   -1.1100 C.3       1 GDD402      0.0000 
     20 O5'        69.3860  253.0940   -1.2480 O.3       1 GDD402      0.0000 
     21 PA         70.3890  252.8190    0.0630 P.3       1 GDD402      0.0000 
     22 O1A        71.3150  253.4280   -0.9110 O.co2     1 GDD402      0.0000 
     23 O2A        69.4220  253.6460    0.9480 O.co2     1 GDD402      0.0000 
     24 O3A        69.9920  251.2560   -0.0210 O.3       1 GDD402      0.0000 
     25 PB         68.9390  250.0480    0.1330 P.3       1 GDD402      0.0000 
     26 O2B        69.2400  249.5410   -1.2680 O.co2     1 GDD402      0.0000 
     27 O3B        67.8960  250.9980    0.5090 O.co2     1 GDD402      0.0000 
     28 O1B        69.9920  249.4740    1.3230 O.3       1 GDD402      0.0000 
     29 C11        69.9830  249.6060    2.7530 C.3       1 GDD402      0.0000 
     30 O51        68.9000  248.7400    3.0710 O.3       1 GDD402      0.0000 
     31 C51        69.1060  247.3530    3.4220 C.3       1 GDD402      0.0000 
     32 C61        68.0440  247.0700    4.4410 C.3       1 GDD402      0.0000 
     33 O6A        67.5770  248.3220    4.9360 O.3       1 GDD402      0.0000 
     34 C21        71.3340  249.2140    3.3460 C.3       1 GDD402      0.0000 
     35 O21        71.4020  249.5830    4.7150 O.3       1 GDD402      0.0000 
     36 C31        71.5880  247.7250    3.2380 C.3       1 GDD402      0.0000 
     37 O31        72.8090  247.4090    3.8960 O.3       1 GDD402      0.0000 
     38 C41        70.4870  246.9940    3.9640 C.3       1 GDD402      0.0000 
     39 O41        70.6580  245.5770    3.8850 O.3       1 GDD402      0.0000 
@<TRIPOS>BOND
     1    1    2 1    
     2    2    3 1    
     3    2    4 2    
     4    3    7 am   
     5    4    5 1    
     6    5    6 2    
     7    5   11 1    
     8    6    7 1    
     9    6    9 1    
    10    7    8 2    
    11    9   10 2    
    12   10   11 1    
    13   11   12 1    
    14   12   13 1    
    15   12   18 1    
    16   13   14 1    
    17   13   15 1    
    18   15   16 1    
    19   15   17 1    
    20   17   18 1    
    21   17   19 1    
    22   19   20 1    
    23   20   21 1    
    24   21   22 ar   
    25   21   23 ar   
    26   21   24 1    
    27   24   25 1    
    28   25   26 ar   
    29   25   27 ar   
    30   25   28 1    
    31   28   29 1    
    32   29   30 1    
    33   29   34 1    
    34   30   31 1    
    35   31   32 1    
    36   31   38 1    
    37   32   33 1    
    38   34   35 1    
    39   34   36 1    
    40   36   37 1    
    41   36   38 1    
    42   38   39 1    
@<TRIPOS>SUBSTRUCTURE
     1 GDD402      1 GROUP   
@<TRIPOS>SET

