#    Name: 6q94_8_GDD
#    Modification time : Fri May 22 19:31:04 2020

@<TRIPOS>MOLECULE
6q94_8_GDD
   39    42     1     0     0
SMALL
NO_CHARGES


@<TRIPOS>ATOM
      1 N2        135.1120  242.8470   79.9780 N.pl3     1 GDD402      0.0000 
      2 C2        135.1370  242.0720   78.8910 C.2       1 GDD402      0.0000 
      3 N1        134.7170  242.6380   77.7140 N.am      1 GDD402      0.0000 
      4 N3        135.5480  240.8080   78.9940 N.2       1 GDD402      0.0000 
      5 C4        135.5000  240.1430   77.8150 C.2       1 GDD402      0.0000 
      6 C5        135.0930  240.6210   76.5890 C.2       1 GDD402      0.0000 
      7 C6        134.6570  241.9880   76.4960 C.2       1 GDD402      0.0000 
      8 O6        134.2900  242.5870   75.4860 O.2       1 GDD402      0.0000 
      9 N7        135.2020  239.6350   75.6250 N.2       1 GDD402      0.0000 
     10 C8        135.6680  238.5950   76.2780 C.2       1 GDD402      0.0000 
     11 N9        135.8720  238.8330   77.6060 N.pl3     1 GDD402      0.0000 
     12 C1'       136.4280  237.8820   78.5740 C.3       1 GDD402      0.0000 
     13 C2'       137.6820  238.3660   79.2850 C.3       1 GDD402      0.0000 
     14 O2'       138.8170  238.2540   78.4240 O.3       1 GDD402      0.0000 
     15 C3'       137.7000  237.4060   80.4820 C.3       1 GDD402      0.0000 
     16 O3'       138.3890  236.2020   80.1690 O.3       1 GDD402      0.0000 
     17 C4'       136.2110  237.1650   80.7650 C.3       1 GDD402      0.0000 
     18 O4'       135.4920  237.6590   79.6080 O.3       1 GDD402      0.0000 
     19 C5'       135.6870  237.7980   82.0340 C.3       1 GDD402      0.0000 
     20 O5'       135.9240  239.2280   82.0460 O.3       1 GDD402      0.0000 
     21 PA        135.4060  240.2360   83.2400 P.3       1 GDD402      0.0000 
     22 O1A       133.9160  240.2070   83.2500 O.co2     1 GDD402      0.0000 
     23 O2A       136.0940  241.5720   82.8370 O.co2     1 GDD402      0.0000 
     24 O3A       135.9940  239.8210   84.6790 O.3       1 GDD402      0.0000 
     25 PB        137.3190  239.1060   85.2360 P.3       1 GDD402      0.0000 
     26 O2B       138.3730  239.6800   84.2320 O.co2     1 GDD402      0.0000 
     27 O3B       136.7140  237.7900   84.8750 O.co2     1 GDD402      0.0000 
     28 O1B       136.7340  240.1800   86.3300 O.3       1 GDD402      0.0000 
     29 C11       136.3960  239.8950   87.6640 C.3       1 GDD402      0.0000 
     30 O51       137.5690  239.5630   88.3930 O.3       1 GDD402      0.0000 
     31 C51       137.4090  239.5020   89.8240 C.3       1 GDD402      0.0000 
     32 C61       136.4130  238.4050   90.1220 C.3       1 GDD402      0.0000 
     33 O6A       136.9990  237.1250   89.9310 O.3       1 GDD402      0.0000 
     34 C21       135.6680  241.0790   88.2900 C.3       1 GDD402      0.0000 
     35 O21       134.5340  240.6250   89.0210 O.3       1 GDD402      0.0000 
     36 C31       136.6130  241.7970   89.2370 C.3       1 GDD402      0.0000 
     37 O31       135.9700  242.9620   89.7430 O.3       1 GDD402      0.0000 
     38 C41       136.9840  240.8580   90.3780 C.3       1 GDD402      0.0000 
     39 O41       138.0810  241.3760   91.1250 O.3       1 GDD402      0.0000 
@<TRIPOS>BOND
     1    1    2 1    
     2    2    3 1    
     3    2    4 2    
     4    3    7 am   
     5    4    5 1    
     6    5    6 2    
     7    5   11 1    
     8    6    7 1    
     9    6    9 1    
    10    7    8 2    
    11    9   10 2    
    12   10   11 1    
    13   11   12 1    
    14   12   13 1    
    15   12   18 1    
    16   13   14 1    
    17   13   15 1    
    18   15   16 1    
    19   15   17 1    
    20   17   18 1    
    21   17   19 1    
    22   19   20 1    
    23   20   21 1    
    24   21   22 ar   
    25   21   23 ar   
    26   21   24 1    
    27   24   25 1    
    28   25   26 ar   
    29   25   27 ar   
    30   25   28 1    
    31   28   29 1    
    32   29   30 1    
    33   29   34 1    
    34   30   31 1    
    35   31   32 1    
    36   31   38 1    
    37   32   33 1    
    38   34   35 1    
    39   34   36 1    
    40   36   37 1    
    41   36   38 1    
    42   38   39 1    
@<TRIPOS>SUBSTRUCTURE
     1 GDD402      1 GROUP   
@<TRIPOS>SET

