#    Name: 6q94_7_GDD
#    Modification time : Fri May 22 19:30:52 2020

@<TRIPOS>MOLECULE
6q94_7_GDD
   39    42     1     0     0
SMALL
NO_CHARGES


@<TRIPOS>ATOM
      1 N2        128.8280  275.0630   98.5100 N.pl3     1 GDD402      0.0000 
      2 C2        128.1590  275.8150   99.3850 C.2       1 GDD402      0.0000 
      3 N1        127.1010  275.2250  100.0300 N.am      1 GDD402      0.0000 
      4 N3        128.4840  277.0990   99.5290 N.2       1 GDD402      0.0000 
      5 C4        127.6290  277.7630  100.3330 C.2       1 GDD402      0.0000 
      6 C5        126.5150  277.2640  100.9900 C.2       1 GDD402      0.0000 
      7 C6        126.2070  275.8800  100.8600 C.2       1 GDD402      0.0000 
      8 O6        125.2620  275.2760  101.3830 O.2       1 GDD402      0.0000 
      9 N7        125.8810  278.2690  101.6950 N.2       1 GDD402      0.0000 
     10 C8        126.6150  279.3360  101.4630 C.2       1 GDD402      0.0000 
     11 N9        127.6920  279.1020  100.6560 N.pl3     1 GDD402      0.0000 
     12 C1'       128.7250  280.0940  100.3100 C.3       1 GDD402      0.0000 
     13 C2'       130.1570  279.5770  100.3430 C.3       1 GDD402      0.0000 
     14 O2'       130.6760  279.6130  101.6690 O.3       1 GDD402      0.0000 
     15 C3'       130.8390  280.6240   99.4620 C.3       1 GDD402      0.0000 
     16 O3'       131.0610  281.8030  100.2180 O.3       1 GDD402      0.0000 
     17 C4'       129.7840  280.9020   98.3890 C.3       1 GDD402      0.0000 
     18 O4'       128.5110  280.5460   98.9870 O.3       1 GDD402      0.0000 
     19 C5'       129.9760  280.1520   97.0920 C.3       1 GDD402      0.0000 
     20 O5'       130.7110  278.9470   97.3690 O.3       1 GDD402      0.0000 
     21 PA        130.9420  277.8170   96.2590 P.3       1 GDD402      0.0000 
     22 O1A       129.6660  277.5860   95.5460 O.co2     1 GDD402      0.0000 
     23 O2A       131.4290  276.5260   96.9440 O.co2     1 GDD402      0.0000 
     24 O3A       132.1870  278.3570   95.4010 O.3       1 GDD402      0.0000 
     25 PB        133.6860  278.8120   95.7520 P.3       1 GDD402      0.0000 
     26 O2B       133.8470  277.9450   97.0340 O.co2     1 GDD402      0.0000 
     27 O3B       133.1910  280.2150   95.8330 O.co2     1 GDD402      0.0000 
     28 O1B       133.8580  277.8400   94.4250 O.3       1 GDD402      0.0000 
     29 C11       133.9200  277.9750   93.0210 C.3       1 GDD402      0.0000 
     30 O51       134.7750  278.9910   92.5080 O.3       1 GDD402      0.0000 
     31 C51       136.1790  278.7290   92.6550 C.3       1 GDD402      0.0000 
     32 C61       136.9010  279.9270   92.1140 C.3       1 GDD402      0.0000 
     33 O6A       136.0840  280.5800   91.1580 O.3       1 GDD402      0.0000 
     34 C21       134.2600  276.5960   92.4550 C.3       1 GDD402      0.0000 
     35 O21       133.7450  276.4450   91.1350 O.3       1 GDD402      0.0000 
     36 C31       135.7610  276.3100   92.5170 C.3       1 GDD402      0.0000 
     37 O31       136.0620  275.0960   91.8380 O.3       1 GDD402      0.0000 
     38 C41       136.5320  277.4610   91.8970 C.3       1 GDD402      0.0000 
     39 O41       137.9410  277.2830   91.9560 O.3       1 GDD402      0.0000 
@<TRIPOS>BOND
     1    1    2 1    
     2    2    3 1    
     3    2    4 2    
     4    3    7 am   
     5    4    5 1    
     6    5    6 2    
     7    5   11 1    
     8    6    7 1    
     9    6    9 1    
    10    7    8 2    
    11    9   10 2    
    12   10   11 1    
    13   11   12 1    
    14   12   13 1    
    15   12   18 1    
    16   13   14 1    
    17   13   15 1    
    18   15   16 1    
    19   15   17 1    
    20   17   18 1    
    21   17   19 1    
    22   19   20 1    
    23   20   21 1    
    24   21   22 ar   
    25   21   23 ar   
    26   21   24 1    
    27   24   25 1    
    28   25   26 ar   
    29   25   27 ar   
    30   25   28 1    
    31   28   29 1    
    32   29   30 1    
    33   29   34 1    
    34   30   31 1    
    35   31   32 1    
    36   31   38 1    
    37   32   33 1    
    38   34   35 1    
    39   34   36 1    
    40   36   37 1    
    41   36   38 1    
    42   38   39 1    
@<TRIPOS>SUBSTRUCTURE
     1 GDD402      1 GROUP   
@<TRIPOS>SET

