#    Name: 6q94_5_GDD
#    Modification time : Fri May 22 19:30:34 2020

@<TRIPOS>MOLECULE
6q94_5_GDD
   39    42     1     0     0
SMALL
NO_CHARGES


@<TRIPOS>ATOM
      1 N2         97.7000  265.2870   45.4460 N.pl3     1 GDD402      0.0000 
      2 C2         97.7090  264.2840   44.5550 C.2       1 GDD402      0.0000 
      3 N1         96.5210  263.9890   43.9380 N.am      1 GDD402      0.0000 
      4 N3         98.8360  263.6090   44.3300 N.2       1 GDD402      0.0000 
      5 C4         98.6720  262.6070   43.4450 C.2       1 GDD402      0.0000 
      6 C5         97.5250  262.2360   42.7830 C.2       1 GDD402      0.0000 
      7 C6         96.3350  262.9670   43.0250 C.2       1 GDD402      0.0000 
      8 O6         95.2390  262.7830   42.4940 O.2       1 GDD402      0.0000 
      9 N7         97.7770  261.1710   41.9300 N.2       1 GDD402      0.0000 
     10 C8         99.0530  260.9230   42.0900 C.2       1 GDD402      0.0000 
     11 N9         99.6540  261.7580   42.9960 N.pl3     1 GDD402      0.0000 
     12 C1'       101.0600  261.7430   43.3870 C.3       1 GDD402      0.0000 
     13 C2'       101.7980  263.0580   43.1800 C.3       1 GDD402      0.0000 
     14 O2'       102.1690  263.2530   41.8170 O.3       1 GDD402      0.0000 
     15 C3'       103.0040  262.8280   44.0960 C.3       1 GDD402      0.0000 
     16 O3'       104.0280  262.1000   43.4270 O.3       1 GDD402      0.0000 
     17 C4'       102.4170  261.9860   45.2370 C.3       1 GDD402      0.0000 
     18 O4'       101.1350  261.5000   44.7740 O.3       1 GDD402      0.0000 
     19 C5'       102.2530  262.7020   46.5540 C.3       1 GDD402      0.0000 
     20 O5'       101.3570  263.8150   46.3560 O.3       1 GDD402      0.0000 
     21 PA        100.8730  264.7570   47.5440 P.3       1 GDD402      0.0000 
     22 O1A        99.8590  264.0800   48.3930 O.co2     1 GDD402      0.0000 
     23 O2A       100.4520  266.1270   46.9570 O.co2     1 GDD402      0.0000 
     24 O3A       102.2500  264.9870   48.3120 O.3       1 GDD402      0.0000 
     25 PB        103.5720  265.8280   48.0320 P.3       1 GDD402      0.0000 
     26 O2B       104.7690  264.9810   48.3970 O.co2     1 GDD402      0.0000 
     27 O3B       103.5980  266.4220   46.6920 O.co2     1 GDD402      0.0000 
     28 O1B       103.4650  266.9650   49.1470 O.3       1 GDD402      0.0000 
     29 C11       103.3770  266.8410   50.5310 C.3       1 GDD402      0.0000 
     30 O51       104.5930  266.3980   51.1230 O.3       1 GDD402      0.0000 
     31 C51       105.6640  267.3550   51.1480 C.3       1 GDD402      0.0000 
     32 C61       106.8180  266.6540   51.8190 C.3       1 GDD402      0.0000 
     33 O6A       106.3800  266.0630   53.0300 O.3       1 GDD402      0.0000 
     34 C21       102.9020  268.1710   51.1100 C.3       1 GDD402      0.0000 
     35 O21       102.3900  267.9590   52.4220 O.3       1 GDD402      0.0000 
     36 C31       104.0300  269.1910   51.1460 C.3       1 GDD402      0.0000 
     37 O31       103.6080  270.4070   51.7420 O.3       1 GDD402      0.0000 
     38 C41       105.2160  268.6130   51.8860 C.3       1 GDD402      0.0000 
     39 O41       106.2680  269.5640   51.9880 O.3       1 GDD402      0.0000 
@<TRIPOS>BOND
     1    1    2 1    
     2    2    3 1    
     3    2    4 2    
     4    3    7 am   
     5    4    5 1    
     6    5    6 2    
     7    5   11 1    
     8    6    7 1    
     9    6    9 1    
    10    7    8 2    
    11    9   10 2    
    12   10   11 1    
    13   11   12 1    
    14   12   13 1    
    15   12   18 1    
    16   13   14 1    
    17   13   15 1    
    18   15   16 1    
    19   15   17 1    
    20   17   18 1    
    21   17   19 1    
    22   19   20 1    
    23   20   21 1    
    24   21   22 ar   
    25   21   23 ar   
    26   21   24 1    
    27   24   25 1    
    28   25   26 ar   
    29   25   27 ar   
    30   25   28 1    
    31   28   29 1    
    32   29   30 1    
    33   29   34 1    
    34   30   31 1    
    35   31   32 1    
    36   31   38 1    
    37   32   33 1    
    38   34   35 1    
    39   34   36 1    
    40   36   37 1    
    41   36   38 1    
    42   38   39 1    
@<TRIPOS>SUBSTRUCTURE
     1 GDD402      1 GROUP   
@<TRIPOS>SET

