#    Name: 6q94_6_NAP
#    Modification time : Fri May 22 19:31:42 2020

@<TRIPOS>MOLECULE
6q94_6_NAP
   59    62     1     0     1
SMALL
NO_CHARGES


@<TRIPOS>ATOM
      1 PA        133.1160  248.0550   91.7710 P.3       1 NAP401      0.0000 
      2 O1A       131.6630  248.1760   91.5590 O.co2     1 NAP401      0.0000 
      3 O2A       134.0120  248.1820   90.5020 O.co2     1 NAP401      0.0000 
      4 O5B       133.4810  249.2210   92.7980 O.3       1 NAP401      0.0000 
      5 C5B       134.7930  249.5570   93.2720 C.3       1 NAP401      0.0000 
      6 C4B       134.5310  250.5380   94.3920 C.3       1 NAP401      0.0000 
      7 O4B       135.7820  251.0550   94.9020 O.3       1 NAP401      0.0000 
      8 C3B       133.6730  251.7560   94.0260 C.3       1 NAP401      0.0000 
      9 O3B       132.8160  252.1510   95.0900 O.3       1 NAP401      0.0000 
     10 C2B       134.7420  252.8120   93.7880 C.3       1 NAP401      0.0000 
     11 O2B       134.2270  254.1490   93.9180 O.3       1 NAP401      0.0000 
     12 C1B       135.6950  252.4650   94.9140 C.3       1 NAP401      0.0000 
     13 N9A       137.0240  253.0120   94.7330 N.pl3     1 NAP401      0.0000 
     14 C8A       137.8500  252.8920   93.6470 C.2       1 NAP401      0.0000 
     15 N7A       138.9780  253.5490   93.7610 N.2       1 NAP401      0.0000 
     16 C5A       138.8890  254.1380   95.0140 C.ar      1 NAP401      0.0000 
     17 C6A       139.7620  254.9720   95.7340 C.ar      1 NAP401      0.0000 
     18 N6A       140.9320  255.3980   95.2680 N.pl3     1 NAP401      0.0000 
     19 N1A       139.3810  255.3670   96.9690 N.ar      1 NAP401      0.0000 
     20 C2A       138.2050  254.9530   97.4390 C.ar      1 NAP401      0.0000 
     21 N3A       137.2960  254.1770   96.8480 N.ar      1 NAP401      0.0000 
     22 C4A       137.6970  253.8050   95.6270 C.ar      1 NAP401      0.0000 
     23 O3        133.4490  246.6710   92.4940 O.3       1 NAP401      0.0000 
     24 PN        132.3880  245.6220   93.0780 P.3       1 NAP401      0.0000 
     25 O1N       131.2780  245.5040   92.1110 O.co2     1 NAP401      0.0000 
     26 O2N       132.1260  245.9690   94.4960 O.co2     1 NAP401      0.0000 
     27 O5D       133.1800  244.2420   93.0840 O.3       1 NAP401      0.0000 
     28 C5D       134.6050  244.3140   92.9310 C.3       1 NAP401      0.0000 
     29 C4D       135.3670  244.2440   94.2300 C.3       1 NAP401      0.0000 
     30 O4D       135.4550  242.9060   94.7530 O.3       1 NAP401      0.0000 
     31 C3D       136.7970  244.7090   94.0620 C.3       1 NAP401      0.0000 
     32 O3D       137.1950  245.2490   95.3200 O.3       1 NAP401      0.0000 
     33 C2D       137.5410  243.4160   93.7170 C.3       1 NAP401      0.0000 
     34 O2D       138.9030  243.4660   94.1210 O.3       1 NAP401      0.0000 
     35 C1D       136.6680  242.3200   94.3560 C.3       1 NAP401      0.0000 
     36 N1N       136.3330  241.1970   93.3270 N.pl3     1 NAP401      0.0000 
     37 P2B       133.5850  254.8990   92.6420 P.3       1 NAP401      0.0000 
     38 O1X       132.1000  254.8520   92.7550 O.co2     1 NAP401      0.0000 
     39 O2X       134.1060  256.3390   92.6590 O.co2     1 NAP401      0.0000 
     40 O3X       134.1860  254.2160   91.3950 O.co2     1 NAP401      0.0000 
     41 H51A      135.3830  249.9720   92.4560 H         1 NAP401      0.0000 
     42 H52A      135.3100  248.6540   93.5940 H         1 NAP401      0.0000 
     43 H4B       134.1230  250.0080   95.2520 H         1 NAP401      0.0000 
     44 H3B       133.0830  251.5680   93.1310 H         1 NAP401      0.0000 
     45 HO3A      132.0870  251.4770   95.1190 H         1 NAP401      0.0000 
     46 H2B       135.1760  252.7390   92.7910 H         1 NAP401      0.0000 
     47 H1B       135.3200  252.8090   95.8770 H         1 NAP401      0.0000 
     48 H8A       137.5940  252.3050   92.7670 H         1 NAP401      0.0000 
     49 H61A      141.2380  255.1190   94.3410 H         1 NAP401      0.0000 
     50 H62A      141.5140  256.0000   95.8410 H         1 NAP401      0.0000 
     51 H2A       137.9780  255.3090   98.4430 H         1 NAP401      0.0000 
     52 H51N      134.8590  245.2490   92.4320 H         1 NAP401      0.0000 
     53 H52N      134.9330  243.4930   92.2940 H         1 NAP401      0.0000 
     54 H4D       134.8000  244.7100   95.0340 H         1 NAP401      0.0000 
     55 H3D       136.9470  245.4260   93.2570 H         1 NAP401      0.0000 
     56 HO3N      137.1970  246.2350   95.2040 H         1 NAP401      0.0000 
     57 H2D       137.6840  243.2360   92.6530 H         1 NAP401      0.0000 
     58 HO2N      139.4700  243.7840   93.3710 H         1 NAP401      0.0000 
     59 H1D       137.1270  241.8490   95.2250 H         1 NAP401      0.0000 
@<TRIPOS>BOND
     1    1    2 ar   
     2    1    3 ar   
     3    1    4 1    
     4    1   23 1    
     5    4    5 1    
     6    5    6 1    
     7    5   41 1    
     8    5   42 1    
     9    6    7 1    
    10    6    8 1    
    11    6   43 1    
    12    7   12 1    
    13    8    9 1    
    14    8   10 1    
    15    8   44 1    
    16    9   45 1    
    17   10   11 1    
    18   10   12 1    
    19   10   46 1    
    20   11   37 1    
    21   12   13 1    
    22   12   47 1    
    23   13   14 1    
    24   13   22 1    
    25   14   15 2    
    26   14   48 1    
    27   15   16 1    
    28   16   17 ar   
    29   16   22 ar   
    30   17   18 1    
    31   17   19 ar   
    32   18   49 1    
    33   18   50 1    
    34   19   20 ar   
    35   20   21 ar   
    36   20   51 1    
    37   21   22 ar   
    38   23   24 1    
    39   24   25 ar   
    40   24   26 ar   
    41   24   27 1    
    42   27   28 1    
    43   28   29 1    
    44   28   52 1    
    45   28   53 1    
    46   29   30 1    
    47   29   31 1    
    48   29   54 1    
    49   30   35 1    
    50   31   32 1    
    51   31   33 1    
    52   31   55 1    
    53   32   56 1    
    54   33   34 1    
    55   33   35 1    
    56   33   57 1    
    57   34   58 1    
    58   35   36 1    
    59   35   59 1    
    60   37   38 ar   
    61   37   39 ar   
    62   37   40 ar   
@<TRIPOS>SUBSTRUCTURE
     1 NAP401      1 GROUP   
@<TRIPOS>SET
ATOM$ORANGE STATIC     ATOMS   COLORGROUP SYSTEM 
30 5 5 6 6 8 8 10 10 12 12 14 14 16 16 17 17 20 \
20 22 22 28 28 29 29 31 31 33 33 35 35 

