#    Name: 5mu6_1_MYA
#    Modification time : Fri May 22 19:21:33 2020

@<TRIPOS>MOLECULE
5mu6_1_MYA
   63    65     1     0     0
SMALL
NO_CHARGES


@<TRIPOS>ATOM
      1 S1        -19.9680    9.4530  -17.1290 S.3       1 MYA501      0.0000 
      2 C2        -21.5510    8.6820  -17.1960 C.3       1 MYA501      0.0000 
      3 C3        -21.7410    8.0670  -18.5850 C.3       1 MYA501      0.0000 
      4 N4        -23.1190    7.6220  -18.7090 N.am      1 MYA501      0.0000 
      5 C5        -23.5420    6.3570  -18.6360 C.2       1 MYA501      0.0000 
      6 O5        -22.7750    5.4380  -18.4290 O.2       1 MYA501      0.0000 
      7 C6        -25.0160    6.0950  -18.8010 C.3       1 MYA501      0.0000 
      8 C7        -25.2280    4.7220  -19.4470 C.3       1 MYA501      0.0000 
      9 N8        -24.6760    4.7560  -20.8060 N.am      1 MYA501      0.0000 
     10 C9        -25.1340    5.4610  -21.8460 C.2       1 MYA501      0.0000 
     11 O9        -26.1330    6.1380  -21.7340 O.2       1 MYA501      0.0000 
     12 C10       -24.4100    5.3370  -23.1780 C.3       1 MYA501      0.0000 
     13 O10       -23.7700    4.0490  -23.2660 O.3       1 MYA501      0.0000 
     14 C11       -23.3570    6.4240  -23.4500 C.3       1 MYA501      0.0000 
     15 C12       -22.5660    6.1060  -24.7240 C.3       1 MYA501      0.0000 
     16 C13       -22.3980    6.5250  -22.2790 C.3       1 MYA501      0.0000 
     17 C14       -24.0190    7.7790  -23.6560 C.3       1 MYA501      0.0000 
     18 N1A       -17.5060    9.1840  -21.8330 N.ar      1 MYA501      0.0000 
     19 O1A       -22.0760    4.5850  -30.1460 O.co2     1 MYA501      0.0000 
     20 P1A       -22.0500    5.6320  -29.0670 P.3       1 MYA501      0.0000 
     21 C1X       -17.4480    6.7380  -26.3660 C.3       1 MYA501      0.0000 
     22 C2A       -16.8700    9.4930  -22.9760 C.ar      1 MYA501      0.0000 
     23 O2A       -23.1150    6.6830  -29.0820 O.co2     1 MYA501      0.0000 
     24 P2A       -23.3230    4.5740  -26.7450 P.3       1 MYA501      0.0000 
     25 C2M       -20.1870   11.0180  -17.6790 C.2       1 MYA501      0.0000 
     26 O2M       -21.3100   11.4710  -17.7380 O.2       1 MYA501      0.0000 
     27 C2X       -16.8600    5.4420  -26.9010 C.3       1 MYA501      0.0000 
     28 O2X       -15.5060    5.2670  -26.4860 O.3       1 MYA501      0.0000 
     29 N3A       -16.9660    8.7280  -24.0660 N.ar      1 MYA501      0.0000 
     30 O3A       -22.0350    4.8590  -27.6540 O.3       1 MYA501      0.0000 
     31 C3M       -19.0140   11.8410  -18.1300 C.3       1 MYA501      0.0000 
     32 C3X       -16.9740    5.6520  -28.4080 C.3       1 MYA501      0.0000 
     33 O3X       -15.9030    6.4630  -28.8760 O.3       1 MYA501      0.0000 
     34 P3X       -14.5980    5.8070  -29.5380 P.3       1 MYA501      0.0000 
     35 C4A       -17.7220    7.6090  -24.0420 C.ar      1 MYA501      0.0000 
     36 O4A       -24.5770    4.4540  -27.5390 O.co2     1 MYA501      0.0000 
     37 C4M       -19.1420   12.0400  -19.6410 C.3       1 MYA501      0.0000 
     38 C4X       -18.2790    6.4140  -28.5410 C.3       1 MYA501      0.0000 
     39 O4X       -18.5090    7.0390  -27.2710 O.3       1 MYA501      0.0000 
     40 C5A       -18.3860    7.2590  -22.8750 C.ar      1 MYA501      0.0000 
     41 O5A       -22.9450    3.4670  -25.7940 O.co2     1 MYA501      0.0000 
     42 C5M       -17.9270   12.7340  -20.2440 C.3       1 MYA501      0.0000 
     43 C5X       -19.4420    5.4690  -28.8220 C.3       1 MYA501      0.0000 
     44 O5X       -20.5970    6.2610  -29.0580 O.3       1 MYA501      0.0000 
     45 C6A       -18.2690    8.0760  -21.7490 C.ar      1 MYA501      0.0000 
     46 N6A       -18.8950    7.7800  -20.5800 N.pl3     1 MYA501      0.0000 
     47 O6A       -23.4430    5.8950  -25.8220 O.3       1 MYA501      0.0000 
     48 C6M       -18.0990   13.0140  -21.7400 C.3       1 MYA501      0.0000 
     49 N7A       -19.0470    6.1150  -23.1330 N.2       1 MYA501      0.0000 
     50 O7A       -13.4790    6.7970  -29.5150 O.co2     1 MYA501      0.0000 
     51 C7M       -16.8570   13.6600  -22.3560 C.3       1 MYA501      0.0000 
     52 C8A       -18.7940    5.7750  -24.4240 C.2       1 MYA501      0.0000 
     53 O8A       -15.0910    5.4330  -30.9140 O.co2     1 MYA501      0.0000 
     54 C8M       -16.8270   15.1830  -22.1720 C.3       1 MYA501      0.0000 
     55 N9A       -17.9780    6.6890  -24.9700 N.pl3     1 MYA501      0.0000 
     56 O9A       -14.2970    4.6230  -28.6560 O.co2     1 MYA501      0.0000 
     57 C9M       -15.5590   15.8060  -22.7400 C.3       1 MYA501      0.0000 
     58 CAM       -15.4780   17.3110  -22.4770 C.3       1 MYA501      0.0000 
     59 CBM       -16.4910   18.1040  -23.2990 C.3       1 MYA501      0.0000 
     60 CCM       -16.4480   19.6180  -23.0180 C.3       1 MYA501      0.0000 
     61 CDM       -15.1290   20.2770  -23.3950 C.3       1 MYA501      0.0000 
     62 CEM       -15.1720   21.7930  -23.1930 C.3       1 MYA501      0.0000 
     63 CFM       -13.8280   22.4330  -23.4810 C.3       1 MYA501      0.0000 
@<TRIPOS>BOND
     1    1    2 1    
     2    1   25 1    
     3    2    3 1    
     4    3    4 1    
     5    4    5 am   
     6    5    6 2    
     7    5    7 1    
     8    7    8 1    
     9    8    9 1    
    10    9   10 am   
    11   10   11 2    
    12   10   12 1    
    13   12   13 1    
    14   12   14 1    
    15   14   15 1    
    16   14   16 1    
    17   14   17 1    
    18   15   47 1    
    19   18   22 ar   
    20   18   45 ar   
    21   19   20 ar   
    22   20   23 ar   
    23   20   30 1    
    24   20   44 1    
    25   21   27 1    
    26   21   39 1    
    27   21   55 1    
    28   22   29 ar   
    29   24   30 1    
    30   24   36 ar   
    31   24   41 ar   
    32   24   47 1    
    33   25   26 2    
    34   25   31 1    
    35   27   28 1    
    36   27   32 1    
    37   29   35 ar   
    38   31   37 1    
    39   32   33 1    
    40   32   38 1    
    41   33   34 1    
    42   34   50 ar   
    43   34   53 ar   
    44   34   56 ar   
    45   35   40 ar   
    46   35   55 1    
    47   37   42 1    
    48   38   39 1    
    49   38   43 1    
    50   40   45 ar   
    51   40   49 1    
    52   42   48 1    
    53   43   44 1    
    54   45   46 1    
    55   48   51 1    
    56   49   52 2    
    57   51   54 1    
    58   52   55 1    
    59   54   57 1    
    60   57   58 1    
    61   58   59 1    
    62   59   60 1    
    63   60   61 1    
    64   61   62 1    
    65   62   63 1    
@<TRIPOS>SUBSTRUCTURE
     1 MYA501      1 GROUP   
@<TRIPOS>SET

