#    Name: 5mu6_2_MYA
#    Modification time : Fri May 22 19:21:38 2020

@<TRIPOS>MOLECULE
5mu6_2_MYA
   63    65     1     0     0
SMALL
NO_CHARGES


@<TRIPOS>ATOM
      1 S1        -16.9140   57.0670  -11.7920 S.3       1 MYA501      0.0000 
      2 C2        -18.3950   58.0110  -11.7260 C.3       1 MYA501      0.0000 
      3 C3        -18.4850   58.6800  -10.3540 C.3       1 MYA501      0.0000 
      4 N4        -19.7870   59.3140  -10.2400 N.am      1 MYA501      0.0000 
      5 C5        -20.0290   60.6280  -10.2740 C.2       1 MYA501      0.0000 
      6 O5        -19.1480   61.4480  -10.4350 O.2       1 MYA501      0.0000 
      7 C6        -21.4530   61.0780  -10.1270 C.3       1 MYA501      0.0000 
      8 C7        -21.4720   62.4770   -9.4920 C.3       1 MYA501      0.0000 
      9 N8        -20.9520   62.3540   -8.1240 N.am      1 MYA501      0.0000 
     10 C9        -21.4990   61.6790   -7.1180 C.2       1 MYA501      0.0000 
     11 O9        -22.5580   61.0970   -7.2260 O.2       1 MYA501      0.0000 
     12 C10       -20.7780   61.7160   -5.7900 C.3       1 MYA501      0.0000 
     13 O10       -19.9770   62.9020   -5.7360 O.3       1 MYA501      0.0000 
     14 C11       -19.8780   60.5010   -5.5310 C.3       1 MYA501      0.0000 
     15 C12       -19.0340   60.7500   -4.2820 C.3       1 MYA501      0.0000 
     16 C13       -18.9530   60.2500   -6.7110 C.3       1 MYA501      0.0000 
     17 C14       -20.7340   59.2530   -5.3240 C.3       1 MYA501      0.0000 
     18 N1A       -14.4040   56.9780   -7.1740 N.ar      1 MYA501      0.0000 
     19 O1A       -18.2460   62.2460    1.1630 O.co2     1 MYA501      0.0000 
     20 P1A       -18.4100   61.1790    0.1040 P.3       1 MYA501      0.0000 
     21 C1X       -13.9650   59.3640   -2.5900 C.3       1 MYA501      0.0000 
     22 C2A       -13.8370   56.5240   -6.0490 C.ar      1 MYA501      0.0000 
     23 O2A       -19.6310   60.3190    0.1630 O.co2     1 MYA501      0.0000 
     24 P2A       -19.5480   62.3590   -2.2180 P.3       1 MYA501      0.0000 
     25 C2M       -17.2770   55.5150  -11.2390 C.2       1 MYA501      0.0000 
     26 O2M       -18.4360   55.1400  -11.1910 O.2       1 MYA501      0.0000 
     27 C2X       -13.1880   60.5770   -2.1240 C.3       1 MYA501      0.0000 
     28 O2X       -11.8240   60.5250   -2.5410 O.3       1 MYA501      0.0000 
     29 N3A       -13.8060   57.2750   -4.9390 N.ar      1 MYA501      0.0000 
     30 O3A       -18.3010   61.9100   -1.3330 O.3       1 MYA501      0.0000 
     31 C3M       -16.1850   54.5750  -10.7910 C.3       1 MYA501      0.0000 
     32 C3X       -13.3280   60.4650   -0.6130 C.3       1 MYA501      0.0000 
     33 O3X       -12.4100   59.4960   -0.1160 O.3       1 MYA501      0.0000 
     34 P3X       -10.9940   59.8680    0.5430 P.3       1 MYA501      0.0000 
     35 C4A       -14.3470   58.5140   -4.9250 C.ar      1 MYA501      0.0000 
     36 O4A       -20.7920   62.5880   -1.4310 O.co2     1 MYA501      0.0000 
     37 C4M       -16.3510   54.2830   -9.2920 C.3       1 MYA501      0.0000 
     38 C4X       -14.7340   59.9070   -0.4490 C.3       1 MYA501      0.0000 
     39 O4X       -15.0710   59.2950   -1.6970 O.3       1 MYA501      0.0000 
     40 C5A       -14.9300   59.0000   -6.0760 C.ar      1 MYA501      0.0000 
     41 O5A       -19.0230   63.4450   -3.1250 O.co2     1 MYA501      0.0000 
     42 C5M       -15.2090   53.4420   -8.7250 C.3       1 MYA501      0.0000 
     43 C5X       -15.7880   60.9670   -0.1390 C.3       1 MYA501      0.0000 
     44 O5X       -17.0510   60.3440    0.0800 O.3       1 MYA501      0.0000 
     45 C6A       -14.9560   58.2100   -7.2140 C.ar      1 MYA501      0.0000 
     46 N6A       -15.5330   58.6830   -8.3410 N.pl3     1 MYA501      0.0000 
     47 O6A       -19.8560   61.0930   -3.1680 O.3       1 MYA501      0.0000 
     48 C6M       -15.3450   53.2140   -7.2130 C.3       1 MYA501      0.0000 
     49 N7A       -15.3900   60.2330   -5.8050 N.2       1 MYA501      0.0000 
     50 O7A       -10.2050   58.5930    0.5920 O.co2     1 MYA501      0.0000 
     51 C7M       -14.2010   52.3900   -6.6180 C.3       1 MYA501      0.0000 
     52 C8A       -15.0950   60.5130   -4.5180 C.2       1 MYA501      0.0000 
     53 O8A       -11.3710   60.4070    1.9010 O.co2     1 MYA501      0.0000 
     54 C8M       -14.3570   50.8830   -6.8670 C.3       1 MYA501      0.0000 
     55 N9A       -14.4520   59.4650   -3.9860 N.pl3     1 MYA501      0.0000 
     56 O9A       -10.3800   60.8930   -0.3730 O.co2     1 MYA501      0.0000 
     57 C9M       -13.2560   50.0670   -6.1840 C.3       1 MYA501      0.0000 
     58 CAM       -13.3470   48.5440   -6.4440 C.3       1 MYA501      0.0000 
     59 CBM       -14.5470   47.8980   -5.7580 C.3       1 MYA501      0.0000 
     60 CCM       -14.7110   46.4070   -6.1220 C.3       1 MYA501      0.0000 
     61 CDM       -13.5130   45.5670   -5.6930 C.3       1 MYA501      0.0000 
     62 CEM       -13.7900   44.0600   -5.7810 C.3       1 MYA501      0.0000 
     63 CFM       -12.5220   43.2650   -5.5520 C.3       1 MYA501      0.0000 
@<TRIPOS>BOND
     1    1    2 1    
     2    1   25 1    
     3    2    3 1    
     4    3    4 1    
     5    4    5 am   
     6    5    6 2    
     7    5    7 1    
     8    7    8 1    
     9    8    9 1    
    10    9   10 am   
    11   10   11 2    
    12   10   12 1    
    13   12   13 1    
    14   12   14 1    
    15   14   15 1    
    16   14   16 1    
    17   14   17 1    
    18   15   47 1    
    19   18   22 ar   
    20   18   45 ar   
    21   19   20 ar   
    22   20   23 ar   
    23   20   30 1    
    24   20   44 1    
    25   21   27 1    
    26   21   39 1    
    27   21   55 1    
    28   22   29 ar   
    29   24   30 1    
    30   24   36 ar   
    31   24   41 ar   
    32   24   47 1    
    33   25   26 2    
    34   25   31 1    
    35   27   28 1    
    36   27   32 1    
    37   29   35 ar   
    38   31   37 1    
    39   32   33 1    
    40   32   38 1    
    41   33   34 1    
    42   34   50 ar   
    43   34   53 ar   
    44   34   56 ar   
    45   35   40 ar   
    46   35   55 1    
    47   37   42 1    
    48   38   39 1    
    49   38   43 1    
    50   40   45 ar   
    51   40   49 1    
    52   42   48 1    
    53   43   44 1    
    54   45   46 1    
    55   48   51 1    
    56   49   52 2    
    57   51   54 1    
    58   52   55 1    
    59   54   57 1    
    60   57   58 1    
    61   58   59 1    
    62   59   60 1    
    63   60   61 1    
    64   61   62 1    
    65   62   63 1    
@<TRIPOS>SUBSTRUCTURE
     1 MYA501      1 GROUP   
@<TRIPOS>SET

