#    Name: 6dhm_11_NDP
#    Modification time : Fri May 22 19:34:25 2020

@<TRIPOS>MOLECULE
6dhm_11_NDP
   48    52     1     0     1
SMALL
NO_CHARGES


@<TRIPOS>ATOM
      1 PA         21.3750  -27.4450   52.5650 P.3       1 NDP603      0.0000 
      2 O1A        20.1550  -26.5890   52.5070 O.co2     1 NDP603      0.0000 
      3 O2A        22.6550  -26.9290   53.1660 O.co2     1 NDP603      0.0000 
      4 O5B        21.0220  -28.8940   53.3250 O.3       1 NDP603      0.0000 
      5 C5B        20.2220  -29.6970   52.4900 C.3       1 NDP603      0.0000 
      6 C4B        19.7990  -31.0010   53.3040 C.3       1 NDP603      0.0000 
      7 O4B        20.4690  -32.1950   52.8940 O.3       1 NDP603      0.0000 
      8 C3B        20.0410  -30.8360   54.8240 C.3       1 NDP603      0.0000 
      9 O3B        18.8150  -30.9810   55.4760 O.3       1 NDP603      0.0000 
     10 C2B        20.9820  -32.0470   55.1660 C.3       1 NDP603      0.0000 
     11 O2B        20.7050  -32.6180   56.3240 O.3       1 NDP603      0.0000 
     12 C1B        20.5510  -33.0100   54.0390 C.3       1 NDP603      0.0000 
     13 N9A        21.5000  -34.0660   53.7110 N.pl3     1 NDP603      0.0000 
     14 C8A        22.8360  -33.9420   53.3810 C.2       1 NDP603      0.0000 
     15 N7A        23.4370  -35.1140   53.0850 N.2       1 NDP603      0.0000 
     16 C5A        22.4210  -36.0400   53.2280 C.ar      1 NDP603      0.0000 
     17 C6A        22.3940  -37.4280   53.0470 C.ar      1 NDP603      0.0000 
     18 N6A        23.5290  -38.0970   52.6690 N.pl3     1 NDP603      0.0000 
     19 N1A        21.2580  -38.1600   53.2350 N.ar      1 NDP603      0.0000 
     20 C2A        20.1860  -37.4060   53.6000 C.ar      1 NDP603      0.0000 
     21 N3A        20.0590  -36.0840   53.7950 N.ar      1 NDP603      0.0000 
     22 C4A        21.2100  -35.4060   53.6030 C.ar      1 NDP603      0.0000 
     23 O3         21.8340  -27.6540   50.9420 O.3       1 NDP603      0.0000 
     24 PN         20.7090  -27.1040   49.9160 P.3       1 NDP603      0.0000 
     25 O1N        21.0240  -25.7080   49.5510 O.co2     1 NDP603      0.0000 
     26 O2N        19.3020  -27.6150   50.1620 O.co2     1 NDP603      0.0000 
     27 O5D        21.0730  -27.8320   48.3440 O.3       1 NDP603      0.0000 
     28 C5D        21.0950  -29.1930   48.4500 C.3       1 NDP603      0.0000 
     29 C4D        21.2540  -29.7400   47.0620 C.3       1 NDP603      0.0000 
     30 O4D        20.5040  -28.9690   46.1000 O.3       1 NDP603      0.0000 
     31 C3D        22.7400  -29.5910   46.6730 C.3       1 NDP603      0.0000 
     32 O3D        23.0590  -30.6840   45.8600 O.3       1 NDP603      0.0000 
     33 C2D        22.7230  -28.2740   45.8930 C.3       1 NDP603      0.0000 
     34 O2D        23.7720  -28.1520   44.9580 O.3       1 NDP603      0.0000 
     35 C1D        21.3850  -28.4370   45.1480 C.3       1 NDP603      0.0000 
     36 N1N        20.8430  -27.1460   44.6960 N.pl3     1 NDP603      0.0000 
     37 C2N        20.8960  -26.0010   45.4740 C.2       1 NDP603      0.0000 
     38 C3N        20.5050  -24.7880   44.9490 C.2       1 NDP603      0.0000 
     39 C7N        20.5200  -23.6330   45.8020 C.2       1 NDP603      0.0000 
     40 O7N        20.5580  -23.6490   47.0370 O.2       1 NDP603      0.0000 
     41 N7N        20.4250  -22.4380   45.1650 N.am      1 NDP603      0.0000 
     42 C4N        20.0320  -24.6260   43.5750 C.3       1 NDP603      0.0000 
     43 C5N        19.8080  -25.9160   42.9280 C.2       1 NDP603      0.0000 
     44 C6N        20.2010  -27.0730   43.4590 C.2       1 NDP603      0.0000 
     45 P2B        21.9980  -32.4490   57.6110 P.3       1 NDP603      0.0000 
     46 O1X        21.7690  -30.9950   57.8960 O.co2     1 NDP603      0.0000 
     47 O2X        21.4910  -33.4670   58.6350 O.co2     1 NDP603      0.0000 
     48 O3X        23.2200  -32.8250   56.8090 O.co2     1 NDP603      0.0000 
@<TRIPOS>BOND
     1    1    2 ar   
     2    1    3 ar   
     3    1    4 1    
     4    1   23 1    
     5    4    5 1    
     6    5    6 1    
     7    6    7 1    
     8    6    8 1    
     9    7   12 1    
    10    8    9 1    
    11    8   10 1    
    12   10   11 1    
    13   10   12 1    
    14   11   45 1    
    15   12   13 1    
    16   13   14 1    
    17   13   22 1    
    18   14   15 2    
    19   15   16 1    
    20   16   17 ar   
    21   16   22 ar   
    22   17   18 1    
    23   17   19 ar   
    24   19   20 ar   
    25   20   21 ar   
    26   21   22 ar   
    27   23   24 1    
    28   24   25 ar   
    29   24   26 ar   
    30   24   27 1    
    31   27   28 1    
    32   28   29 1    
    33   29   30 1    
    34   29   31 1    
    35   30   35 1    
    36   31   32 1    
    37   31   33 1    
    38   33   34 1    
    39   33   35 1    
    40   35   36 1    
    41   36   37 1    
    42   36   44 1    
    43   37   38 2    
    44   38   39 1    
    45   38   42 1    
    46   39   40 2    
    47   39   41 am   
    48   42   43 1    
    49   43   44 2    
    50   45   46 ar   
    51   45   47 ar   
    52   45   48 ar   
@<TRIPOS>SUBSTRUCTURE
     1 NDP603      1 GROUP   
@<TRIPOS>SET
ATOM$ORANGE STATIC     ATOMS   COLORGROUP SYSTEM 
42 5 5 6 6 8 8 10 10 12 12 14 14 16 16 17 17 20 \
20 22 22 28 28 29 29 31 31 33 33 35 35 37 37 38 38 39 \
39 42 42 43 43 44 44 

