#    Name: 6dhm_7_NDP
#    Modification time : Fri May 22 19:34:13 2020

@<TRIPOS>MOLECULE
6dhm_7_NDP
   48    52     1     0     1
SMALL
NO_CHARGES


@<TRIPOS>ATOM
      1 PA         31.0460   -3.6380    2.1610 P.3       1 NDP602      0.0000 
      2 O1A        30.1120   -4.4860    2.9530 O.co2     1 NDP602      0.0000 
      3 O2A        32.5140   -3.9540    2.1460 O.co2     1 NDP602      0.0000 
      4 O5B        30.4090   -3.5390    0.6110 O.3       1 NDP602      0.0000 
      5 C5B        31.1970   -2.6870   -0.1670 C.3       1 NDP602      0.0000 
      6 C4B        30.6060   -2.7330   -1.6110 C.3       1 NDP602      0.0000 
      7 O4B        31.0490   -1.6190   -2.3770 O.3       1 NDP602      0.0000 
      8 C3B        31.0730   -4.0140   -2.3360 C.3       1 NDP602      0.0000 
      9 O3B        30.0280   -4.5200   -3.1260 O.3       1 NDP602      0.0000 
     10 C2B        32.2690   -3.4760   -3.2420 C.3       1 NDP602      0.0000 
     11 O2B        32.4560   -4.1610   -4.3640 O.3       1 NDP602      0.0000 
     12 C1B        31.6510   -2.1300   -3.6140 C.3       1 NDP602      0.0000 
     13 N9A        32.6030   -1.1100   -4.1310 N.pl3     1 NDP602      0.0000 
     14 C8A        33.7720   -0.6260   -3.5350 C.2       1 NDP602      0.0000 
     15 N7A        34.3950    0.3280   -4.2680 N.2       1 NDP602      0.0000 
     16 C5A        33.5740    0.4780   -5.4020 C.ar      1 NDP602      0.0000 
     17 C6A        33.6690    1.3180   -6.5290 C.ar      1 NDP602      0.0000 
     18 N6A        34.7310    2.2100   -6.6720 N.pl3     1 NDP602      0.0000 
     19 N1A        32.7370    1.2890   -7.5280 N.ar      1 NDP602      0.0000 
     20 C2A        31.7200    0.3900   -7.3230 C.ar      1 NDP602      0.0000 
     21 N3A        31.4910   -0.4670   -6.3120 N.ar      1 NDP602      0.0000 
     22 C4A        32.4570   -0.4030   -5.3360 C.ar      1 NDP602      0.0000 
     23 O3         30.9050   -2.1570    2.9520 O.3       1 NDP602      0.0000 
     24 PN         29.3810   -1.8870    3.3740 P.3       1 NDP602      0.0000 
     25 O1N        29.2140   -2.3430    4.7720 O.co2     1 NDP602      0.0000 
     26 O2N        28.3650   -2.0670    2.2600 O.co2     1 NDP602      0.0000 
     27 O5D        29.2590   -0.1970    3.6360 O.3       1 NDP602      0.0000 
     28 C5D        29.5950    0.3320    2.4470 C.3       1 NDP602      0.0000 
     29 C4D        29.3480    1.7830    2.5260 C.3       1 NDP602      0.0000 
     30 O4D        28.2940    1.9770    3.4400 O.3       1 NDP602      0.0000 
     31 C3D        30.6040    2.4310    3.1520 C.3       1 NDP602      0.0000 
     32 O3D        30.7470    3.6650    2.5820 O.3       1 NDP602      0.0000 
     33 C2D        30.1940    2.5710    4.6030 C.3       1 NDP602      0.0000 
     34 O2D        30.7860    3.6570    5.2390 O.3       1 NDP602      0.0000 
     35 C1D        28.7160    2.8850    4.4020 C.3       1 NDP602      0.0000 
     36 N1N        27.9730    2.6120    5.6250 N.pl3     1 NDP602      0.0000 
     37 C2N        27.9980    1.3690    6.2300 C.2       1 NDP602      0.0000 
     38 C3N        27.4420    1.2240    7.4780 C.2       1 NDP602      0.0000 
     39 C7N        27.4480   -0.0410    8.0730 C.2       1 NDP602      0.0000 
     40 O7N        27.8050   -1.0870    7.5410 O.2       1 NDP602      0.0000 
     41 N7N        26.9940   -0.0420    9.3380 N.am      1 NDP602      0.0000 
     42 C4N        26.8570    2.3140    8.2360 C.3       1 NDP602      0.0000 
     43 C5N        26.6570    3.4930    7.4010 C.2       1 NDP602      0.0000 
     44 C6N        27.1790    3.6160    6.1850 C.2       1 NDP602      0.0000 
     45 P2B        33.8660   -5.3330   -4.2950 P.3       1 NDP602      0.0000 
     46 O1X        33.3260   -6.2310   -3.2260 O.co2     1 NDP602      0.0000 
     47 O2X        33.9270   -5.8960   -5.7190 O.co2     1 NDP602      0.0000 
     48 O3X        34.9220   -4.3420   -3.9020 O.co2     1 NDP602      0.0000 
@<TRIPOS>BOND
     1    1    2 ar   
     2    1    3 ar   
     3    1    4 1    
     4    1   23 1    
     5    4    5 1    
     6    5    6 1    
     7    6    7 1    
     8    6    8 1    
     9    7   12 1    
    10    8    9 1    
    11    8   10 1    
    12   10   11 1    
    13   10   12 1    
    14   11   45 1    
    15   12   13 1    
    16   13   14 1    
    17   13   22 1    
    18   14   15 2    
    19   15   16 1    
    20   16   17 ar   
    21   16   22 ar   
    22   17   18 1    
    23   17   19 ar   
    24   19   20 ar   
    25   20   21 ar   
    26   21   22 ar   
    27   23   24 1    
    28   24   25 ar   
    29   24   26 ar   
    30   24   27 1    
    31   27   28 1    
    32   28   29 1    
    33   29   30 1    
    34   29   31 1    
    35   30   35 1    
    36   31   32 1    
    37   31   33 1    
    38   33   34 1    
    39   33   35 1    
    40   35   36 1    
    41   36   37 1    
    42   36   44 1    
    43   37   38 2    
    44   38   39 1    
    45   38   42 1    
    46   39   40 2    
    47   39   41 am   
    48   42   43 1    
    49   43   44 2    
    50   45   46 ar   
    51   45   47 ar   
    52   45   48 ar   
@<TRIPOS>SUBSTRUCTURE
     1 NDP602      1 GROUP   
@<TRIPOS>SET
ATOM$ORANGE STATIC     ATOMS   COLORGROUP SYSTEM 
42 5 5 6 6 8 8 10 10 12 12 14 14 16 16 17 17 20 \
20 22 22 28 28 29 29 31 31 33 33 35 35 37 37 38 38 39 \
39 42 42 43 43 44 44 

