#    Name: 6dhm_1_NDP
#    Modification time : Fri May 22 19:33:55 2020

@<TRIPOS>MOLECULE
6dhm_1_NDP
   48    52     1     0     1
SMALL
NO_CHARGES


@<TRIPOS>ATOM
      1 PA         66.3210   25.5120   22.8830 P.3       1 NDP602      0.0000 
      2 O1A        67.1500   25.4590   24.1210 O.co2     1 NDP602      0.0000 
      3 O2A        64.8330   25.6270   22.9940 O.co2     1 NDP602      0.0000 
      4 O5B        66.8060   26.7690   21.9160 O.3       1 NDP602      0.0000 
      5 C5B        67.8590   26.2960   21.1070 C.3       1 NDP602      0.0000 
      6 C4B        68.5540   27.5040   20.3380 C.3       1 NDP602      0.0000 
      7 O4B        68.3670   27.3910   18.9340 O.3       1 NDP602      0.0000 
      8 C3B        68.0530   28.9050   20.7720 C.3       1 NDP602      0.0000 
      9 O3B        69.1480   29.7630   20.9810 O.3       1 NDP602      0.0000 
     10 C2B        67.2820   29.3670   19.5120 C.3       1 NDP602      0.0000 
     11 O2B        67.3470   30.6530   19.3050 O.3       1 NDP602      0.0000 
     12 C1B        68.1170   28.6890   18.4370 C.3       1 NDP602      0.0000 
     13 N9A        67.4060   28.4900   17.1840 N.pl3     1 NDP602      0.0000 
     14 C8A        66.1790   27.8610   16.9790 C.2       1 NDP602      0.0000 
     15 N7A        65.8060   27.7930   15.6840 N.2       1 NDP602      0.0000 
     16 C5A        66.8700   28.4060   15.0050 C.ar      1 NDP602      0.0000 
     17 C6A        67.1010   28.6670   13.6300 C.ar      1 NDP602      0.0000 
     18 N6A        66.1810   28.2880   12.6510 N.pl3     1 NDP602      0.0000 
     19 N1A        68.2430   29.2940   13.2130 N.ar      1 NDP602      0.0000 
     20 C2A        69.1200   29.6410   14.2120 C.ar      1 NDP602      0.0000 
     21 N3A        69.0500   29.4810   15.5360 N.ar      1 NDP602      0.0000 
     22 C4A        67.8800   28.8420   15.9270 C.ar      1 NDP602      0.0000 
     23 O3         66.5950   24.0480   22.0950 O.3       1 NDP602      0.0000 
     24 PN         67.6310   23.1600   22.9180 P.3       1 NDP602      0.0000 
     25 O1N        67.0100   22.3740   24.0040 O.co2     1 NDP602      0.0000 
     26 O2N        68.9650   23.8400   23.1220 O.co2     1 NDP602      0.0000 
     27 O5D        68.0500   21.8090   21.8950 O.3       1 NDP602      0.0000 
     28 C5D        67.9470   22.2550   20.5900 C.3       1 NDP602      0.0000 
     29 C4D        68.4650   21.1650   19.6220 C.3       1 NDP602      0.0000 
     30 O4D        69.2860   20.1750   20.2920 O.3       1 NDP602      0.0000 
     31 C3D        67.2340   20.3940   19.0720 C.3       1 NDP602      0.0000 
     32 O3D        67.5920   19.7850   17.8820 O.3       1 NDP602      0.0000 
     33 C2D        67.0610   19.3620   20.1630 C.3       1 NDP602      0.0000 
     34 O2D        66.3350   18.2730   19.7380 O.3       1 NDP602      0.0000 
     35 C1D        68.5590   18.9530   20.3090 C.3       1 NDP602      0.0000 
     36 N1N        68.8190   18.2790   21.5860 N.pl3     1 NDP602      0.0000 
     37 C2N        68.3520   18.7700   22.8210 C.2       1 NDP602      0.0000 
     38 C3N        68.4830   18.0020   23.9640 C.2       1 NDP602      0.0000 
     39 C7N        68.0710   18.5380   25.1900 C.2       1 NDP602      0.0000 
     40 O7N        67.6460   19.6810   25.3620 O.2       1 NDP602      0.0000 
     41 N7N        68.2360   17.6950   26.2460 N.am      1 NDP602      0.0000 
     42 C4N        69.0740   16.6640   23.9780 C.3       1 NDP602      0.0000 
     43 C5N        69.7590   16.3740   22.6930 C.2       1 NDP602      0.0000 
     44 C6N        69.6240   17.1340   21.5850 C.2       1 NDP602      0.0000 
     45 P2B        65.7040   31.4290   19.1360 P.3       1 NDP602      0.0000 
     46 O1X        65.4320   31.6120   20.5970 O.co2     1 NDP602      0.0000 
     47 O2X        66.0280   32.6780   18.3070 O.co2     1 NDP602      0.0000 
     48 O3X        65.0250   30.2880   18.4340 O.co2     1 NDP602      0.0000 
@<TRIPOS>BOND
     1    1    2 ar   
     2    1    3 ar   
     3    1    4 1    
     4    1   23 1    
     5    4    5 1    
     6    5    6 1    
     7    6    7 1    
     8    6    8 1    
     9    7   12 1    
    10    8    9 1    
    11    8   10 1    
    12   10   11 1    
    13   10   12 1    
    14   11   45 1    
    15   12   13 1    
    16   13   14 1    
    17   13   22 1    
    18   14   15 2    
    19   15   16 1    
    20   16   17 ar   
    21   16   22 ar   
    22   17   18 1    
    23   17   19 ar   
    24   19   20 ar   
    25   20   21 ar   
    26   21   22 ar   
    27   23   24 1    
    28   24   25 ar   
    29   24   26 ar   
    30   24   27 1    
    31   27   28 1    
    32   28   29 1    
    33   29   30 1    
    34   29   31 1    
    35   30   35 1    
    36   31   32 1    
    37   31   33 1    
    38   33   34 1    
    39   33   35 1    
    40   35   36 1    
    41   36   37 1    
    42   36   44 1    
    43   37   38 2    
    44   38   39 1    
    45   38   42 1    
    46   39   40 2    
    47   39   41 am   
    48   42   43 1    
    49   43   44 2    
    50   45   46 ar   
    51   45   47 ar   
    52   45   48 ar   
@<TRIPOS>SUBSTRUCTURE
     1 NDP602      1 GROUP   
@<TRIPOS>SET
ATOM$ORANGE STATIC     ATOMS   COLORGROUP SYSTEM 
42 5 5 6 6 8 8 10 10 12 12 14 14 16 16 17 17 20 \
20 22 22 28 28 29 29 31 31 33 33 35 35 37 37 38 38 39 \
39 42 42 43 43 44 44 

