#    Name: 6dhm_9_NDP
#    Modification time : Fri May 22 19:34:19 2020

@<TRIPOS>MOLECULE
6dhm_9_NDP
   48    52     1     0     1
SMALL
NO_CHARGES


@<TRIPOS>ATOM
      1 PA         20.7640   28.0810   47.7680 P.3       1 NDP602      0.0000 
      2 O1A        20.3730   27.7530   46.3680 O.co2     1 NDP602      0.0000 
      3 O2A        22.1460   28.5680   48.0770 O.co2     1 NDP602      0.0000 
      4 O5B        19.6430   29.1630   48.2940 O.3       1 NDP602      0.0000 
      5 C5B        19.9810   29.5080   49.5940 C.3       1 NDP602      0.0000 
      6 C4B        18.9150   30.4830   50.0360 C.3       1 NDP602      0.0000 
      7 O4B        19.0660   30.7330   51.3930 O.3       1 NDP602      0.0000 
      8 C3B        19.1360   31.7710   49.2670 C.3       1 NDP602      0.0000 
      9 O3B        17.9190   32.3220   48.8920 O.3       1 NDP602      0.0000 
     10 C2B        19.8290   32.6690   50.3270 C.3       1 NDP602      0.0000 
     11 O2B        19.6270   33.9560   50.1190 O.3       1 NDP602      0.0000 
     12 C1B        19.0690   32.1530   51.5760 C.3       1 NDP602      0.0000 
     13 N9A        19.6670   32.3350   52.9310 N.pl3     1 NDP602      0.0000 
     14 C8A        20.8980   31.8460   53.4110 C.2       1 NDP602      0.0000 
     15 N7A        21.1110   32.1130   54.7280 N.2       1 NDP602      0.0000 
     16 C5A        19.9470   32.7960   55.1310 C.ar      1 NDP602      0.0000 
     17 C6A        19.5620   33.3430   56.3700 C.ar      1 NDP602      0.0000 
     18 N6A        20.4090   33.2470   57.4710 N.pl3     1 NDP602      0.0000 
     19 N1A        18.3340   33.9820   56.5300 N.ar      1 NDP602      0.0000 
     20 C2A        17.5430   34.0300   55.3900 C.ar      1 NDP602      0.0000 
     21 N3A        17.7820   33.5610   54.1500 N.ar      1 NDP602      0.0000 
     22 C4A        19.0220   32.9360   54.0360 C.ar      1 NDP602      0.0000 
     23 O3         20.5760   26.6470   48.6580 O.3       1 NDP602      0.0000 
     24 PN         19.2590   25.7990   48.1900 P.3       1 NDP602      0.0000 
     25 O1N        19.7080   24.6950   47.3160 O.co2     1 NDP602      0.0000 
     26 O2N        17.9530   26.5360   47.9570 O.co2     1 NDP602      0.0000 
     27 O5D        18.8230   24.7970   49.5480 O.3       1 NDP602      0.0000 
     28 C5D        18.7200   25.5610   50.6730 C.3       1 NDP602      0.0000 
     29 C4D        18.4760   24.5990   51.8030 C.3       1 NDP602      0.0000 
     30 O4D        17.8080   23.4370   51.2400 O.3       1 NDP602      0.0000 
     31 C3D        19.8750   24.1390   52.3140 C.3       1 NDP602      0.0000 
     32 O3D        19.8630   24.0570   53.6930 O.3       1 NDP602      0.0000 
     33 C2D        20.0600   22.7690   51.6600 C.3       1 NDP602      0.0000 
     34 O2D        20.7220   21.8750   52.4890 O.3       1 NDP602      0.0000 
     35 C1D        18.5900   22.2910   51.4900 C.3       1 NDP602      0.0000 
     36 N1N        18.4530   21.3430   50.3550 N.pl3     1 NDP602      0.0000 
     37 C2N        18.8160   21.6660   49.0340 C.2       1 NDP602      0.0000 
     38 C3N        18.6400   20.7410   48.0140 C.2       1 NDP602      0.0000 
     39 C7N        19.0020   21.0820   46.6480 C.2       1 NDP602      0.0000 
     40 O7N        19.9500   21.8130   46.2800 O.2       1 NDP602      0.0000 
     41 N7N        18.2030   20.5030   45.6800 N.am      1 NDP602      0.0000 
     42 C4N        18.0930   19.3920   48.2430 C.3       1 NDP602      0.0000 
     43 C5N        17.7290   19.1520   49.6580 C.2       1 NDP602      0.0000 
     44 C6N        17.9120   20.0660   50.6180 C.2       1 NDP602      0.0000 
     45 P2B        21.1560   34.7190   49.4890 P.3       1 NDP602      0.0000 
     46 O1X        21.1740   34.1140   48.1170 O.co2     1 NDP602      0.0000 
     47 O2X        20.8180   36.2100   49.6000 O.co2     1 NDP602      0.0000 
     48 O3X        22.0660   34.1150   50.5300 O.co2     1 NDP602      0.0000 
@<TRIPOS>BOND
     1    1    2 ar   
     2    1    3 ar   
     3    1    4 1    
     4    1   23 1    
     5    4    5 1    
     6    5    6 1    
     7    6    7 1    
     8    6    8 1    
     9    7   12 1    
    10    8    9 1    
    11    8   10 1    
    12   10   11 1    
    13   10   12 1    
    14   11   45 1    
    15   12   13 1    
    16   13   14 1    
    17   13   22 1    
    18   14   15 2    
    19   15   16 1    
    20   16   17 ar   
    21   16   22 ar   
    22   17   18 1    
    23   17   19 ar   
    24   19   20 ar   
    25   20   21 ar   
    26   21   22 ar   
    27   23   24 1    
    28   24   25 ar   
    29   24   26 ar   
    30   24   27 1    
    31   27   28 1    
    32   28   29 1    
    33   29   30 1    
    34   29   31 1    
    35   30   35 1    
    36   31   32 1    
    37   31   33 1    
    38   33   34 1    
    39   33   35 1    
    40   35   36 1    
    41   36   37 1    
    42   36   44 1    
    43   37   38 2    
    44   38   39 1    
    45   38   42 1    
    46   39   40 2    
    47   39   41 am   
    48   42   43 1    
    49   43   44 2    
    50   45   46 ar   
    51   45   47 ar   
    52   45   48 ar   
@<TRIPOS>SUBSTRUCTURE
     1 NDP602      1 GROUP   
@<TRIPOS>SET
ATOM$ORANGE STATIC     ATOMS   COLORGROUP SYSTEM 
42 5 5 6 6 8 8 10 10 12 12 14 14 16 16 17 17 20 \
20 22 22 28 28 29 29 31 31 33 33 35 35 37 37 38 38 39 \
39 42 42 43 43 44 44 

