#    Name: 6dhm_3_NDP
#    Modification time : Fri May 22 19:34:01 2020

@<TRIPOS>MOLECULE
6dhm_3_NDP
   48    52     1     0     1
SMALL
NO_CHARGES


@<TRIPOS>ATOM
      1 PA         56.6090    4.3060   74.5710 P.3       1 NDP602      0.0000 
      2 O1A        57.3430    3.2340   73.8720 O.co2     1 NDP602      0.0000 
      3 O2A        55.1180    4.2070   74.7210 O.co2     1 NDP602      0.0000 
      4 O5B        57.3550    4.6150   76.0240 O.3       1 NDP602      0.0000 
      5 C5B        56.5780    5.6290   76.6750 C.3       1 NDP602      0.0000 
      6 C4B        57.2350    6.0160   78.0510 C.3       1 NDP602      0.0000 
      7 O4B        56.8140    7.3300   78.4780 O.3       1 NDP602      0.0000 
      8 C3B        56.8580    5.0180   79.1610 C.3       1 NDP602      0.0000 
      9 O3B        57.9000    4.9230   80.0730 O.3       1 NDP602      0.0000 
     10 C2B        55.7080    5.7730   79.8550 C.3       1 NDP602      0.0000 
     11 O2B        55.5270    5.4190   81.1160 O.3       1 NDP602      0.0000 
     12 C1B        56.3300    7.1970   79.8090 C.3       1 NDP602      0.0000 
     13 N9A        55.3650    8.2850   80.0610 N.pl3     1 NDP602      0.0000 
     14 C8A        54.2510    8.6490   79.2960 C.2       1 NDP602      0.0000 
     15 N7A        53.5710    9.7100   79.8000 N.2       1 NDP602      0.0000 
     16 C5A        54.2930   10.0560   80.9510 C.ar      1 NDP602      0.0000 
     17 C6A        54.1080   11.0600   81.8980 C.ar      1 NDP602      0.0000 
     18 N6A        53.0540   11.9330   81.7860 N.pl3     1 NDP602      0.0000 
     19 N1A        54.9520   11.2130   82.9500 N.ar      1 NDP602      0.0000 
     20 C2A        55.9840   10.3190   83.0000 C.ar      1 NDP602      0.0000 
     21 N3A        56.3060    9.3060   82.1880 N.ar      1 NDP602      0.0000 
     22 C4A        55.4140    9.1820   81.1370 C.ar      1 NDP602      0.0000 
     23 O3         56.7520    5.6360   73.5960 O.3       1 NDP602      0.0000 
     24 PN         58.2550    5.9110   73.0980 P.3       1 NDP602      0.0000 
     25 O1N        58.4830    5.1500   71.8520 O.co2     1 NDP602      0.0000 
     26 O2N        59.3110    6.1570   74.1590 O.co2     1 NDP602      0.0000 
     27 O5D        58.1410    7.5080   72.3870 O.3       1 NDP602      0.0000 
     28 C5D        58.2170    8.3910   73.4350 C.3       1 NDP602      0.0000 
     29 C4D        58.2430    9.8170   72.8880 C.3       1 NDP602      0.0000 
     30 O4D        59.3300   10.0060   71.9650 O.3       1 NDP602      0.0000 
     31 C3D        56.9350   10.0670   72.1350 C.3       1 NDP602      0.0000 
     32 O3D        56.5880   11.3630   72.3660 O.3       1 NDP602      0.0000 
     33 C2D        57.3260    9.8670   70.6790 C.3       1 NDP602      0.0000 
     34 O2D        56.6320   10.7020   69.8180 O.3       1 NDP602      0.0000 
     35 C1D        58.8150   10.3130   70.6940 C.3       1 NDP602      0.0000 
     36 N1N        59.5860    9.5480   69.6830 N.pl3     1 NDP602      0.0000 
     37 C2N        59.4480    8.1730   69.5510 C.2       1 NDP602      0.0000 
     38 C3N        60.0130    7.5250   68.4870 C.2       1 NDP602      0.0000 
     39 C7N        59.8550    6.1010   68.3770 C.2       1 NDP602      0.0000 
     40 O7N        59.0890    5.3960   69.0530 O.2       1 NDP602      0.0000 
     41 N7N        60.6390    5.5080   67.4200 N.am      1 NDP602      0.0000 
     42 C4N        60.7560    8.2150   67.4470 C.3       1 NDP602      0.0000 
     43 C5N        61.0240    9.6300   67.7980 C.2       1 NDP602      0.0000 
     44 C6N        60.4630   10.2290   68.8420 C.2       1 NDP602      0.0000 
     45 P2B        54.0280    4.4330   81.4000 P.3       1 NDP602      0.0000 
     46 O1X        54.4810    3.1790   80.7180 O.co2     1 NDP602      0.0000 
     47 O2X        54.0170    4.4510   82.9310 O.co2     1 NDP602      0.0000 
     48 O3X        53.0360    5.3060   80.6840 O.co2     1 NDP602      0.0000 
@<TRIPOS>BOND
     1    1    2 ar   
     2    1    3 ar   
     3    1    4 1    
     4    1   23 1    
     5    4    5 1    
     6    5    6 1    
     7    6    7 1    
     8    6    8 1    
     9    7   12 1    
    10    8    9 1    
    11    8   10 1    
    12   10   11 1    
    13   10   12 1    
    14   11   45 1    
    15   12   13 1    
    16   13   14 1    
    17   13   22 1    
    18   14   15 2    
    19   15   16 1    
    20   16   17 ar   
    21   16   22 ar   
    22   17   18 1    
    23   17   19 ar   
    24   19   20 ar   
    25   20   21 ar   
    26   21   22 ar   
    27   23   24 1    
    28   24   25 ar   
    29   24   26 ar   
    30   24   27 1    
    31   27   28 1    
    32   28   29 1    
    33   29   30 1    
    34   29   31 1    
    35   30   35 1    
    36   31   32 1    
    37   31   33 1    
    38   33   34 1    
    39   33   35 1    
    40   35   36 1    
    41   36   37 1    
    42   36   44 1    
    43   37   38 2    
    44   38   39 1    
    45   38   42 1    
    46   39   40 2    
    47   39   41 am   
    48   42   43 1    
    49   43   44 2    
    50   45   46 ar   
    51   45   47 ar   
    52   45   48 ar   
@<TRIPOS>SUBSTRUCTURE
     1 NDP602      1 GROUP   
@<TRIPOS>SET
ATOM$ORANGE STATIC     ATOMS   COLORGROUP SYSTEM 
42 5 5 6 6 8 8 10 10 12 12 14 14 16 16 17 17 20 \
20 22 22 28 28 29 29 31 31 33 33 35 35 37 37 38 38 39 \
39 42 42 43 43 44 44 

