#    Name: 6dhm_5_NDP
#    Modification time : Fri May 22 19:34:07 2020

@<TRIPOS>MOLECULE
6dhm_5_NDP
   48    52     1     0     1
SMALL
NO_CHARGES


@<TRIPOS>ATOM
      1 PA         66.3230  -29.7360   30.8860 P.3       1 NDP602      0.0000 
      2 O1A        67.1610  -28.5170   30.8160 O.co2     1 NDP602      0.0000 
      3 O2A        65.0440  -29.7840   30.0970 O.co2     1 NDP602      0.0000 
      4 O5B        67.2760  -31.0540   30.4840 O.3       1 NDP602      0.0000 
      5 C5B        66.9400  -32.1120   31.3640 C.3       1 NDP602      0.0000 
      6 C4B        67.7160  -33.3890   30.9360 C.3       1 NDP602      0.0000 
      7 O4B        67.3740  -34.4790   31.7770 O.3       1 NDP602      0.0000 
      8 C3B        67.3870  -33.7620   29.4460 C.3       1 NDP602      0.0000 
      9 O3B        68.5510  -34.0990   28.7700 O.3       1 NDP602      0.0000 
     10 C2B        66.5130  -35.0470   29.5610 C.3       1 NDP602      0.0000 
     11 O2B        66.7320  -35.9220   28.5790 O.3       1 NDP602      0.0000 
     12 C1B        67.0970  -35.6250   30.9200 C.3       1 NDP602      0.0000 
     13 N9A        66.2130  -36.5520   31.7000 N.pl3     1 NDP602      0.0000 
     14 C8A        64.9990  -36.2530   32.3470 C.2       1 NDP602      0.0000 
     15 N7A        64.4580  -37.3000   33.0140 N.2       1 NDP602      0.0000 
     16 C5A        65.3810  -38.3350   32.8010 C.ar      1 NDP602      0.0000 
     17 C6A        65.3980  -39.6720   33.2320 C.ar      1 NDP602      0.0000 
     18 N6A        64.3630  -40.1570   34.0070 N.pl3     1 NDP602      0.0000 
     19 N1A        66.4230  -40.5190   32.9040 N.ar      1 NDP602      0.0000 
     20 C2A        67.4030  -39.9420   32.1340 C.ar      1 NDP602      0.0000 
     21 N3A        67.5270  -38.6960   31.6500 N.ar      1 NDP602      0.0000 
     22 C4A        66.4840  -37.8870   31.9960 C.ar      1 NDP602      0.0000 
     23 O3         65.9220  -29.8070   32.5020 O.3       1 NDP602      0.0000 
     24 PN         66.9890  -29.0150   33.4020 P.3       1 NDP602      0.0000 
     25 O1N        66.7640  -27.5550   33.3070 O.co2     1 NDP602      0.0000 
     26 O2N        68.3640  -29.6480   33.4200 O.co2     1 NDP602      0.0000 
     27 O5D        66.5150  -29.2350   35.0900 O.3       1 NDP602      0.0000 
     28 C5D        66.7800  -30.5080   35.4120 C.3       1 NDP602      0.0000 
     29 C4D        66.4910  -30.6590   36.8760 C.3       1 NDP602      0.0000 
     30 O4D        67.0720  -29.5770   37.5610 O.3       1 NDP602      0.0000 
     31 C3D        64.9520  -30.5420   37.0850 C.3       1 NDP602      0.0000 
     32 O3D        64.5440  -31.5280   37.9940 O.3       1 NDP602      0.0000 
     33 C2D        64.8250  -29.1690   37.6890 C.3       1 NDP602      0.0000 
     34 O2D        63.7490  -29.1020   38.5870 O.3       1 NDP602      0.0000 
     35 C1D        66.1650  -29.1180   38.4850 C.3       1 NDP602      0.0000 
     36 N1N        66.5590  -27.7620   38.7570 N.pl3     1 NDP602      0.0000 
     37 C2N        66.5840  -26.8680   37.7170 C.2       1 NDP602      0.0000 
     38 C3N        66.9260  -25.5590   37.9020 C.2       1 NDP602      0.0000 
     39 C7N        66.9490  -24.7640   36.7200 C.2       1 NDP602      0.0000 
     40 O7N        66.8050  -25.2030   35.5770 O.2       1 NDP602      0.0000 
     41 N7N        67.1950  -23.4410   36.8980 N.am      1 NDP602      0.0000 
     42 C4N        67.2860  -24.9930   39.2300 C.3       1 NDP602      0.0000 
     43 C5N        67.3310  -26.0640   40.2780 C.2       1 NDP602      0.0000 
     44 C6N        66.9830  -27.3490   40.0380 C.2       1 NDP602      0.0000 
     45 P2B        65.6260  -35.7890   27.0950 P.3       1 NDP602      0.0000 
     46 O1X        66.0290  -34.4210   26.6410 O.co2     1 NDP602      0.0000 
     47 O2X        66.1290  -36.9790   26.2700 O.co2     1 NDP602      0.0000 
     48 O3X        64.2940  -35.9330   27.7840 O.co2     1 NDP602      0.0000 
@<TRIPOS>BOND
     1    1    2 ar   
     2    1    3 ar   
     3    1    4 1    
     4    1   23 1    
     5    4    5 1    
     6    5    6 1    
     7    6    7 1    
     8    6    8 1    
     9    7   12 1    
    10    8    9 1    
    11    8   10 1    
    12   10   11 1    
    13   10   12 1    
    14   11   45 1    
    15   12   13 1    
    16   13   14 1    
    17   13   22 1    
    18   14   15 2    
    19   15   16 1    
    20   16   17 ar   
    21   16   22 ar   
    22   17   18 1    
    23   17   19 ar   
    24   19   20 ar   
    25   20   21 ar   
    26   21   22 ar   
    27   23   24 1    
    28   24   25 ar   
    29   24   26 ar   
    30   24   27 1    
    31   27   28 1    
    32   28   29 1    
    33   29   30 1    
    34   29   31 1    
    35   30   35 1    
    36   31   32 1    
    37   31   33 1    
    38   33   34 1    
    39   33   35 1    
    40   35   36 1    
    41   36   37 1    
    42   36   44 1    
    43   37   38 2    
    44   38   39 1    
    45   38   42 1    
    46   39   40 2    
    47   39   41 am   
    48   42   43 1    
    49   43   44 2    
    50   45   46 ar   
    51   45   47 ar   
    52   45   48 ar   
@<TRIPOS>SUBSTRUCTURE
     1 NDP602      1 GROUP   
@<TRIPOS>SET
ATOM$ORANGE STATIC     ATOMS   COLORGROUP SYSTEM 
42 5 5 6 6 8 8 10 10 12 12 14 14 16 16 17 17 20 \
20 22 22 28 28 29 29 31 31 33 33 35 35 37 37 38 38 39 \
39 42 42 43 43 44 44 

