#    Name: 6ecx_1_SAM
#    Modification time : Fri May 22 19:29:29 2020

@<TRIPOS>MOLECULE
6ecx_1_SAM
   27    29     1     0     0
SMALL
NO_CHARGES


@<TRIPOS>ATOM
      1 N         -13.6300  -24.5900  -22.6890 N.4       1 SAM1301     0.0000 
      2 CA        -13.0580  -25.3030  -23.8240 C.3       1 SAM1301     0.0000 
      3 C         -11.5420  -25.3820  -23.7070 C.2       1 SAM1301     0.0000 
      4 O         -10.9690  -24.6750  -22.8830 O.co2     1 SAM1301     0.0000 
      5 OXT       -10.8620  -26.1380  -24.4080 O.co2     1 SAM1301     0.0000 
      6 CB        -13.4540  -24.6210  -25.1220 C.3       1 SAM1301     0.0000 
      7 CG        -13.1920  -23.1210  -25.1570 C.3       1 SAM1301     0.0000 
      8 SD        -13.5110  -22.4710  -26.8190 S.3       1 SAM1301     0.0000 
      9 CE        -12.3270  -21.1010  -26.8830 C.3       1 SAM1301     0.0000 
     10 C5'       -15.1450  -21.7110  -26.6420 C.3       1 SAM1301     0.0000 
     11 C4'       -16.2640  -22.7440  -26.4880 C.3       1 SAM1301     0.0000 
     12 O4'       -17.4840  -22.1590  -26.0570 O.3       1 SAM1301     0.0000 
     13 C3'       -16.6130  -23.5180  -27.7550 C.3       1 SAM1301     0.0000 
     14 O3'       -16.7060  -24.8770  -27.3660 O.3       1 SAM1301     0.0000 
     15 C2'       -18.0000  -23.0240  -28.1460 C.3       1 SAM1301     0.0000 
     16 O2'       -18.8030  -23.9910  -28.7940 O.3       1 SAM1301     0.0000 
     17 C1'       -18.5770  -22.7010  -26.7750 C.3       1 SAM1301     0.0000 
     18 N9        -19.7060  -21.7500  -26.7540 N.pl3     1 SAM1301     0.0000 
     19 C8        -19.7070  -20.4740  -27.2630 C.2       1 SAM1301     0.0000 
     20 N7        -20.9170  -19.9120  -27.0100 N.2       1 SAM1301     0.0000 
     21 C5        -21.6930  -20.8070  -26.3580 C.ar      1 SAM1301     0.0000 
     22 C6        -22.9870  -20.7570  -25.8730 C.ar      1 SAM1301     0.0000 
     23 N6        -23.7320  -19.6620  -26.0190 N.pl3     1 SAM1301     0.0000 
     24 N1        -23.5240  -21.8570  -25.2230 N.ar      1 SAM1301     0.0000 
     25 C2        -22.7730  -22.9960  -25.0490 C.ar      1 SAM1301     0.0000 
     26 N3        -21.4830  -23.0330  -25.5340 N.ar      1 SAM1301     0.0000 
     27 C4        -20.9440  -21.9670  -26.1830 C.ar      1 SAM1301     0.0000 
@<TRIPOS>BOND
     1    1    2 1    
     2    2    3 1    
     3    2    6 1    
     4    3    4 ar   
     5    3    5 ar   
     6    6    7 1    
     7    7    8 1    
     8    8    9 1    
     9    8   10 1    
    10   10   11 1    
    11   11   12 1    
    12   11   13 1    
    13   12   17 1    
    14   13   14 1    
    15   13   15 1    
    16   15   16 1    
    17   15   17 1    
    18   17   18 1    
    19   18   19 1    
    20   18   27 1    
    21   19   20 2    
    22   20   21 1    
    23   21   22 ar   
    24   21   27 ar   
    25   22   23 1    
    26   22   24 ar   
    27   24   25 ar   
    28   25   26 ar   
    29   26   27 ar   
@<TRIPOS>SUBSTRUCTURE
     1 SAM1301     1 GROUP   
@<TRIPOS>SET

