#    Name: 6esq_3_COA
#    Modification time : Fri May 22 19:25:16 2020

@<TRIPOS>MOLECULE
6esq_3_COA
   61    63     1     0     1
SMALL
NO_CHARGES


@<TRIPOS>ATOM
      1 N1A        66.9600   57.7090   23.4950 N.ar      1 COA401      0.0000 
      2 C2A        65.8150   58.3340   23.7900 C.ar      1 COA401      0.0000 
      3 N3A        64.8810   57.9980   24.6830 N.ar      1 COA401      0.0000 
      4 C4A        65.2230   56.8900   25.3460 C.ar      1 COA401      0.0000 
      5 C5A        66.3720   56.1370   25.1530 C.ar      1 COA401      0.0000 
      6 C6A        67.2760   56.5800   24.1670 C.ar      1 COA401      0.0000 
      7 N6A        68.3640   55.9060   23.8020 N.pl3     1 COA401      0.0000 
      8 N7A        66.3730   55.0170   25.9770 N.2       1 COA401      0.0000 
      9 C8A        65.2360   55.1260   26.6400 C.2       1 COA401      0.0000 
     10 N9A        64.5220   56.2410   26.3250 N.pl3     1 COA401      0.0000 
     11 C1B        63.3260   56.7270   27.0230 C.3       1 COA401      0.0000 
     12 C2B        62.2870   55.6480   27.3030 C.3       1 COA401      0.0000 
     13 O2B        61.4280   55.4670   26.1830 O.3       1 COA401      0.0000 
     14 C3B        61.5450   56.2580   28.4950 C.3       1 COA401      0.0000 
     15 O3B        60.5080   57.1490   28.0330 O.3       1 COA401      0.0000 
     16 P3B        59.5270   58.0040   28.9900 P.3       1 COA401      0.0000 
     17 O7A        59.8760   57.7550   30.4280 O.co2     1 COA401      0.0000 
     18 O8A        59.7120   59.4710   28.5720 O.co2     1 COA401      0.0000 
     19 O9A        58.1030   57.5650   28.6420 O.co2     1 COA401      0.0000 
     20 C4B        62.5940   57.1330   29.1910 C.3       1 COA401      0.0000 
     21 O4B        63.7190   57.2140   28.2880 O.3       1 COA401      0.0000 
     22 C5B        63.0410   56.6490   30.5500 C.3       1 COA401      0.0000 
     23 O5B        64.3350   56.0230   30.4500 O.3       1 COA401      0.0000 
     24 P1A        64.6590   54.6520   31.2560 P.3       1 COA401      0.0000 
     25 O1A        63.9310   54.5120   32.5410 O.co2     1 COA401      0.0000 
     26 O2A        64.3020   53.4720   30.3430 O.co2     1 COA401      0.0000 
     27 O3A        66.2310   54.5960   31.5150 O.3       1 COA401      0.0000 
     28 P2A        67.3480   53.5590   31.0510 P.3       1 COA401      0.0000 
     29 O4A        67.4290   52.4500   32.0310 O.co2     1 COA401      0.0000 
     30 O5A        66.8750   52.9930   29.7130 O.co2     1 COA401      0.0000 
     31 O6A        68.7730   54.3080   30.8280 O.3       1 COA401      0.0000 
     32 CBP        69.8300   53.5770   28.7450 C.3       1 COA401      0.0000 
     33 CCP        69.1570   54.7260   29.5020 C.3       1 COA401      0.0000 
     34 CDP        71.3030   53.9070   28.4620 C.3       1 COA401      0.0000 
     35 CEP        69.7570   52.2580   29.5190 C.3       1 COA401      0.0000 
     36 CAP        69.0860   53.4200   27.3960 C.3       1 COA401      0.0000 
     37 OAP        69.1470   54.6050   26.6210 O.3       1 COA401      0.0000 
     38 C9P        69.5920   52.2350   26.5750 C.2       1 COA401      0.0000 
     39 O9P        69.0950   51.1230   26.7310 O.2       1 COA401      0.0000 
     40 N8P        70.5090   52.5010   25.6450 N.am      1 COA401      0.0000 
     41 H2A        65.6430   59.2810   23.2810 H         1 COA401      0.0000 
     42 H61A       68.9920   56.2610   23.0890 H         1 COA401      0.0000 
     43 H62A       68.5580   54.9910   24.1940 H         1 COA401      0.0000 
     44 H8A        64.8930   54.3900   27.3610 H         1 COA401      0.0000 
     45 H1B        62.9260   57.5700   26.4650 H         1 COA401      0.0000 
     46 H2B        62.7200   54.6860   27.5690 H         1 COA401      0.0000 
     47 HO2A       60.6730   56.1070   26.2700 H         1 COA401      0.0000 
     48 H3B        61.1020   55.5120   29.1530 H         1 COA401      0.0000 
     49 H4B        62.2620   58.1670   29.2530 H         1 COA401      0.0000 
     50 H51A       62.3810   55.8780   30.9440 H         1 COA401      0.0000 
     51 H52A       63.0360   57.4540   31.2830 H         1 COA401      0.0000 
     52 H121       69.8400   55.5600   29.6480 H         1 COA401      0.0000 
     53 H122       68.2670   55.1020   29.0030 H         1 COA401      0.0000 
     54 H131       71.8230   53.0820   27.9790 H         1 COA401      0.0000 
     55 H132       71.8530   54.1140   29.3780 H         1 COA401      0.0000 
     56 H133       71.4320   54.7840   27.8320 H         1 COA401      0.0000 
     57 H141       70.3460   51.4710   29.0540 H         1 COA401      0.0000 
     58 H142       68.7470   51.8610   29.6010 H         1 COA401      0.0000 
     59 H143       70.1330   52.3500   30.5360 H         1 COA401      0.0000 
     60 H10        68.0140   53.3510   27.5700 H         1 COA401      0.0000 
     61 HO1        68.2220   54.8990   26.4150 H         1 COA401      0.0000 
@<TRIPOS>BOND
     1    1    2 ar   
     2    1    6 ar   
     3    2    3 ar   
     4    2   41 1    
     5    3    4 ar   
     6    4    5 ar   
     7    4   10 1    
     8    5    6 ar   
     9    5    8 1    
    10    6    7 1    
    11    7   42 1    
    12    7   43 1    
    13    8    9 2    
    14    9   10 1    
    15    9   44 1    
    16   10   11 1    
    17   11   12 1    
    18   11   21 1    
    19   11   45 1    
    20   12   13 1    
    21   12   14 1    
    22   12   46 1    
    23   13   47 1    
    24   14   15 1    
    25   14   20 1    
    26   14   48 1    
    27   15   16 1    
    28   16   17 ar   
    29   16   18 ar   
    30   16   19 ar   
    31   20   21 1    
    32   20   22 1    
    33   20   49 1    
    34   22   23 1    
    35   22   50 1    
    36   22   51 1    
    37   23   24 1    
    38   24   25 ar   
    39   24   26 ar   
    40   24   27 1    
    41   27   28 1    
    42   28   29 ar   
    43   28   30 ar   
    44   28   31 1    
    45   31   33 1    
    46   32   33 1    
    47   32   34 1    
    48   32   35 1    
    49   32   36 1    
    50   33   52 1    
    51   33   53 1    
    52   34   54 1    
    53   34   55 1    
    54   34   56 1    
    55   35   57 1    
    56   35   58 1    
    57   35   59 1    
    58   36   37 1    
    59   36   38 1    
    60   36   60 1    
    61   37   61 1    
    62   38   39 2    
    63   38   40 am   
@<TRIPOS>SUBSTRUCTURE
     1 COA401      1 GROUP   
@<TRIPOS>SET
ATOM$ORANGE STATIC     ATOMS   COLORGROUP SYSTEM 
32 2 2 4 4 5 5 6 6 9 9 11 11 12 12 14 14 20 \
20 22 22 32 32 33 33 34 34 35 35 36 36 38 38 

