#    Name: 6esq_4_COA
#    Modification time : Fri May 22 19:25:29 2020

@<TRIPOS>MOLECULE
6esq_4_COA
   61    63     1     0     1
SMALL
NO_CHARGES


@<TRIPOS>ATOM
      1 N1A        53.2990   14.2220   86.9480 N.ar      1 COA401      0.0000 
      2 C2A        52.2310   13.6950   86.3490 C.ar      1 COA401      0.0000 
      3 N3A        51.7330   13.9590   85.1400 N.ar      1 COA401      0.0000 
      4 C4A        52.4750   14.8700   84.5000 C.ar      1 COA401      0.0000 
      5 C5A        53.5730   15.5420   85.0120 C.ar      1 COA401      0.0000 
      6 C6A        54.0190   15.1580   86.2890 C.ar      1 COA401      0.0000 
      7 N6A        55.1410   15.6170   86.8540 N.pl3     1 COA401      0.0000 
      8 N7A        54.0960   16.4210   84.0730 N.2       1 COA401      0.0000 
      9 C8A        53.3300   16.2360   83.0200 C.2       1 COA401      0.0000 
     10 N9A        52.3490   15.3040   83.2050 N.pl3     1 COA401      0.0000 
     11 C1B        51.3140   14.9370   82.2310 C.3       1 COA401      0.0000 
     12 C2B        50.3930   16.1100   81.8770 C.3       1 COA401      0.0000 
     13 O2B        49.2190   16.0630   82.6780 O.3       1 COA401      0.0000 
     14 C3B        50.0590   15.8260   80.4120 C.3       1 COA401      0.0000 
     15 O3B        48.8750   15.0120   80.2900 O.3       1 COA401      0.0000 
     16 P3B        47.6280   15.4190   79.3560 P.3       1 COA401      0.0000 
     17 O7A        48.1150   15.6580   77.9650 O.co2     1 COA401      0.0000 
     18 O8A        46.6260   14.2610   79.4600 O.co2     1 COA401      0.0000 
     19 O9A        47.0180   16.6850   79.9840 O.co2     1 COA401      0.0000 
     20 C4B        51.2470   15.0170   79.8880 C.3       1 COA401      0.0000 
     21 O4B        51.9640   14.5360   81.0420 O.3       1 COA401      0.0000 
     22 C5B        52.1860   15.7820   78.9870 C.3       1 COA401      0.0000 
     23 O5B        52.9620   16.7090   79.7750 O.3       1 COA401      0.0000 
     24 P1A        54.3730   17.2540   79.1890 P.3       1 COA401      0.0000 
     25 O1A        54.2030   18.4290   78.3030 O.co2     1 COA401      0.0000 
     26 O2A        55.0040   16.1080   78.3860 O.co2     1 COA401      0.0000 
     27 O3A        55.3850   17.6090   80.3690 O.3       1 COA401      0.0000 
     28 P2A        56.9630   17.4950   80.5790 P.3       1 COA401      0.0000 
     29 O4A        57.4690   16.2480   79.9590 O.co2     1 COA401      0.0000 
     30 O5A        57.6170   18.6990   79.8910 O.co2     1 COA401      0.0000 
     31 O6A        57.2730   17.5900   82.1760 O.3       1 COA401      0.0000 
     32 CBP        58.6520   17.2010   84.1490 C.3       1 COA401      0.0000 
     33 CCP        58.6300   17.4190   82.6330 C.3       1 COA401      0.0000 
     34 CDP        58.0230   18.3880   84.8910 C.3       1 COA401      0.0000 
     35 CEP        57.8750   15.9300   84.5050 C.3       1 COA401      0.0000 
     36 CAP        60.1180   17.0170   84.6290 C.3       1 COA401      0.0000 
     37 OAP        60.9370   16.4420   83.6210 O.3       1 COA401      0.0000 
     38 C9P        60.7570   18.2800   85.1780 C.2       1 COA401      0.0000 
     39 O9P        61.0010   18.3790   86.3800 O.2       1 COA401      0.0000 
     40 N8P        61.0770   19.2280   84.2950 N.am      1 COA401      0.0000 
     41 H2A        51.7090   12.9250   86.9090 H         1 COA401      0.0000 
     42 H61A       55.4300   15.3250   87.7840 H         1 COA401      0.0000 
     43 H62A       55.7140   16.3130   86.3820 H         1 COA401      0.0000 
     44 H8A        53.4240   16.8090   82.1010 H         1 COA401      0.0000 
     45 H1B        50.7820   14.0680   82.6160 H         1 COA401      0.0000 
     46 H2B        50.8650   17.0840   81.9950 H         1 COA401      0.0000 
     47 HO2A       49.4920   15.7860   83.5920 H         1 COA401      0.0000 
     48 H3B        49.9040   16.7390   79.8410 H         1 COA401      0.0000 
     49 H4B        50.9130   14.1020   79.4000 H         1 COA401      0.0000 
     50 H51A       51.6390   16.4010   78.2770 H         1 COA401      0.0000 
     51 H52A       52.8090   15.1140   78.3940 H         1 COA401      0.0000 
     52 H121       59.1560   18.3280   82.3440 H         1 COA401      0.0000 
     53 H122       59.0580   16.5820   82.0860 H         1 COA401      0.0000 
     54 H131       58.4100   19.3500   84.5590 H         1 COA401      0.0000 
     55 H132       58.2100   18.3340   85.9630 H         1 COA401      0.0000 
     56 H133       56.9400   18.4250   84.7870 H         1 COA401      0.0000 
     57 H141       58.3220   15.0360   84.0720 H         1 COA401      0.0000 
     58 H142       56.8400   15.9550   84.1650 H         1 COA401      0.0000 
     59 H143       57.8430   15.7640   85.5810 H         1 COA401      0.0000 
     60 H10        60.1480   16.2150   85.3670 H         1 COA401      0.0000 
     61 HO1        61.1730   17.1390   82.9540 H         1 COA401      0.0000 
@<TRIPOS>BOND
     1    1    2 ar   
     2    1    6 ar   
     3    2    3 ar   
     4    2   41 1    
     5    3    4 ar   
     6    4    5 ar   
     7    4   10 1    
     8    5    6 ar   
     9    5    8 1    
    10    6    7 1    
    11    7   42 1    
    12    7   43 1    
    13    8    9 2    
    14    9   10 1    
    15    9   44 1    
    16   10   11 1    
    17   11   12 1    
    18   11   21 1    
    19   11   45 1    
    20   12   13 1    
    21   12   14 1    
    22   12   46 1    
    23   13   47 1    
    24   14   15 1    
    25   14   20 1    
    26   14   48 1    
    27   15   16 1    
    28   16   17 ar   
    29   16   18 ar   
    30   16   19 ar   
    31   20   21 1    
    32   20   22 1    
    33   20   49 1    
    34   22   23 1    
    35   22   50 1    
    36   22   51 1    
    37   23   24 1    
    38   24   25 ar   
    39   24   26 ar   
    40   24   27 1    
    41   27   28 1    
    42   28   29 ar   
    43   28   30 ar   
    44   28   31 1    
    45   31   33 1    
    46   32   33 1    
    47   32   34 1    
    48   32   35 1    
    49   32   36 1    
    50   33   52 1    
    51   33   53 1    
    52   34   54 1    
    53   34   55 1    
    54   34   56 1    
    55   35   57 1    
    56   35   58 1    
    57   35   59 1    
    58   36   37 1    
    59   36   38 1    
    60   36   60 1    
    61   37   61 1    
    62   38   39 2    
    63   38   40 am   
@<TRIPOS>SUBSTRUCTURE
     1 COA401      1 GROUP   
@<TRIPOS>SET
ATOM$ORANGE STATIC     ATOMS   COLORGROUP SYSTEM 
32 2 2 4 4 5 5 6 6 9 9 11 11 12 12 14 14 20 \
20 22 22 32 32 33 33 34 34 35 35 36 36 38 38 

