#    Name: 6esq_1_COA
#    Modification time : Fri May 22 19:25:02 2020

@<TRIPOS>MOLECULE
6esq_1_COA
   61    63     1     0     1
SMALL
NO_CHARGES


@<TRIPOS>ATOM
      1 N1A        84.5600    8.9270   27.9500 N.ar      1 COA401      0.0000 
      2 C2A        85.5320    8.2210   28.5350 C.ar      1 COA401      0.0000 
      3 N3A        86.4140    8.6120   29.4570 N.ar      1 COA401      0.0000 
      4 C4A        86.2350    9.9000   29.7860 C.ar      1 COA401      0.0000 
      5 C5A        85.2720   10.7480   29.2660 C.ar      1 COA401      0.0000 
      6 C6A        84.3940   10.2230   28.3040 C.ar      1 COA401      0.0000 
      7 N6A        83.4190   10.9210   27.7220 N.pl3     1 COA401      0.0000 
      8 N7A        85.4070   12.0250   29.8080 N.2       1 COA401      0.0000 
      9 C8A        86.4360   11.9080   30.6200 C.2       1 COA401      0.0000 
     10 N9A        86.9720   10.6500   30.6580 N.pl3     1 COA401      0.0000 
     11 C1B        88.0570   10.1830   31.5220 C.3       1 COA401      0.0000 
     12 C2B        88.3570   11.1030   32.7050 C.3       1 COA401      0.0000 
     13 O2B        89.3760   12.0400   32.3810 O.3       1 COA401      0.0000 
     14 C3B        88.8370   10.0970   33.7490 C.3       1 COA401      0.0000 
     15 O3B        90.2150    9.7320   33.5360 O.3       1 COA401      0.0000 
     16 P3B        91.2660    9.4310   34.7270 P.3       1 COA401      0.0000 
     17 O7A        92.5410    8.9000   34.1810 O.co2     1 COA401      0.0000 
     18 O8A        91.4470   10.7570   35.4700 O.co2     1 COA401      0.0000 
     19 O9A        90.5690    8.4440   35.6680 O.co2     1 COA401      0.0000 
     20 C4B        87.9880    8.8640   33.4660 C.3       1 COA401      0.0000 
     21 O4B        87.6820    8.9280   32.0570 O.3       1 COA401      0.0000 
     22 C5B        86.7100    8.7560   34.2580 C.3       1 COA401      0.0000 
     23 O5B        86.0570   10.0400   34.3250 O.3       1 COA401      0.0000 
     24 P1A        86.3980   11.0890   35.5170 P.3       1 COA401      0.0000 
     25 O1A        87.3210   12.1750   35.1090 O.co2     1 COA401      0.0000 
     26 O2A        87.0150   10.3200   36.6910 O.co2     1 COA401      0.0000 
     27 O3A        85.0530   11.7610   36.0350 O.3       1 COA401      0.0000 
     28 P2A        84.7390   13.3100   36.2260 P.3       1 COA401      0.0000 
     29 O4A        83.6600   13.4790   37.2280 O.co2     1 COA401      0.0000 
     30 O5A        86.0140   13.9740   36.7490 O.co2     1 COA401      0.0000 
     31 O6A        84.4360   13.9170   34.7550 O.3       1 COA401      0.0000 
     32 CBP        82.2590   12.9900   34.1620 C.3       1 COA401      0.0000 
     33 CCP        83.7450   13.0860   33.8050 C.3       1 COA401      0.0000 
     34 CDP        82.0260   11.7820   35.0760 C.3       1 COA401      0.0000 
     35 CEP        81.7520   14.2540   34.8610 C.3       1 COA401      0.0000 
     36 CAP        81.4320   12.7770   32.8650 C.3       1 COA401      0.0000 
     37 OAP        80.0610   12.6440   33.1910 O.3       1 COA401      0.0000 
     38 C9P        81.6060   13.8400   31.7940 C.2       1 COA401      0.0000 
     39 O9P        82.3690   14.7860   31.9700 O.2       1 COA401      0.0000 
     40 N8P        80.9130   13.6760   30.6670 N.am      1 COA401      0.0000 
     41 H2A        85.6230    7.1820   28.2260 H         1 COA401      0.0000 
     42 H61A       82.8090   10.5020   27.0270 H         1 COA401      0.0000 
     43 H62A       83.2690   11.8960   27.9600 H         1 COA401      0.0000 
     44 H8A        86.8400   12.7370   31.1950 H         1 COA401      0.0000 
     45 H1B        88.9280   10.0100   30.8940 H         1 COA401      0.0000 
     46 H2B        87.4810   11.6490   33.0480 H         1 COA401      0.0000 
     47 HO2A       90.2510   11.5890   32.5040 H         1 COA401      0.0000 
     48 H3B        88.7440   10.4550   34.7720 H         1 COA401      0.0000 
     49 H4B        88.5780    7.9540   33.5570 H         1 COA401      0.0000 
     50 H51A       86.8980    8.4720   35.2920 H         1 COA401      0.0000 
     51 H52A       86.0520    7.9890   33.8530 H         1 COA401      0.0000 
     52 H121       84.2300   12.1130   33.8470 H         1 COA401      0.0000 
     53 H122       83.9230   13.4990   32.8150 H         1 COA401      0.0000 
     54 H131       80.9810   11.6620   35.3490 H         1 COA401      0.0000 
     55 H132       82.5730   11.8630   36.0110 H         1 COA401      0.0000 
     56 H133       82.3530   10.8460   34.6290 H         1 COA401      0.0000 
     57 H141       80.6980   14.1880   35.1200 H         1 COA401      0.0000 
     58 H142       81.8570   15.1520   34.2570 H         1 COA401      0.0000 
     59 H143       82.2770   14.4580   35.7910 H         1 COA401      0.0000 
     60 H10        81.6430   11.7800   32.4780 H         1 COA401      0.0000 
     61 HO1        79.5750   12.2560   32.4160 H         1 COA401      0.0000 
@<TRIPOS>BOND
     1    1    2 ar   
     2    1    6 ar   
     3    2    3 ar   
     4    2   41 1    
     5    3    4 ar   
     6    4    5 ar   
     7    4   10 1    
     8    5    6 ar   
     9    5    8 1    
    10    6    7 1    
    11    7   42 1    
    12    7   43 1    
    13    8    9 2    
    14    9   10 1    
    15    9   44 1    
    16   10   11 1    
    17   11   12 1    
    18   11   21 1    
    19   11   45 1    
    20   12   13 1    
    21   12   14 1    
    22   12   46 1    
    23   13   47 1    
    24   14   15 1    
    25   14   20 1    
    26   14   48 1    
    27   15   16 1    
    28   16   17 ar   
    29   16   18 ar   
    30   16   19 ar   
    31   20   21 1    
    32   20   22 1    
    33   20   49 1    
    34   22   23 1    
    35   22   50 1    
    36   22   51 1    
    37   23   24 1    
    38   24   25 ar   
    39   24   26 ar   
    40   24   27 1    
    41   27   28 1    
    42   28   29 ar   
    43   28   30 ar   
    44   28   31 1    
    45   31   33 1    
    46   32   33 1    
    47   32   34 1    
    48   32   35 1    
    49   32   36 1    
    50   33   52 1    
    51   33   53 1    
    52   34   54 1    
    53   34   55 1    
    54   34   56 1    
    55   35   57 1    
    56   35   58 1    
    57   35   59 1    
    58   36   37 1    
    59   36   38 1    
    60   36   60 1    
    61   37   61 1    
    62   38   39 2    
    63   38   40 am   
@<TRIPOS>SUBSTRUCTURE
     1 COA401      1 GROUP   
@<TRIPOS>SET
ATOM$ORANGE STATIC     ATOMS   COLORGROUP SYSTEM 
32 2 2 4 4 5 5 6 6 9 9 11 11 12 12 14 14 20 \
20 22 22 32 32 33 33 34 34 35 35 36 36 38 38 

