#    Name: 6esq_1_COA_CAVITY_N1_4
#    Modification time : Fri May 22 19:25:03 2020

@<TRIPOS>MOLECULE
6esq_1_COA_CAVITY_N1_4
   32     0     4     0     0
SMALL
NO_CHARGES


@<TRIPOS>ATOM
      1 OG         79.1400   16.3900   31.7200 O.3       1 SER1        0.0000 
      2 N          79.1300   13.9400   27.3900 N.am      2 ALA2        0.0000 
      3 N          81.0400   14.5800   28.0600 N.am      2 ALA2        0.0000 
      4 N          79.7100   14.3600   28.7200 N.am      2 ALA2        0.0000 
      5 O          82.9400   15.2300   28.7300 O.2       2 ALA2        0.0000 
      6 N          76.8600   14.5200   33.3100 N.am      2 ALA2        0.0000 
      7 N          77.4300   14.9400   34.6300 N.am      2 ALA2        0.0000 
      8 CA         80.6600   16.0100   27.7800 C.3       3 GLY6        0.0000 
      9 CA         80.0900   12.9400   29.0000 C.3       3 GLY6        0.0000 
     10 CA         79.3200   15.7800   28.4300 C.3       3 GLY6        0.0000 
     11 CA         78.7500   12.7100   29.6500 C.3       3 GLY6        0.0000 
     12 CA         78.3700   14.1300   29.3700 C.3       3 GLY6        0.0000 
     13 CA         77.9900   15.5500   29.0800 C.3       3 GLY6        0.0000 
     14 CA         77.0400   13.9100   30.0200 C.3       3 GLY6        0.0000 
     15 CA         81.9900   13.5800   29.6700 C.3       3 GLY6        0.0000 
     16 CA         81.6100   15.0000   29.3900 C.3       3 GLY6        0.0000 
     17 CA         80.6600   13.3500   30.3200 C.3       3 GLY6        0.0000 
     18 CA         79.9000   16.2000   29.7500 C.3       3 GLY6        0.0000 
     19 CA         79.3300   13.1300   30.9700 C.3       3 GLY6        0.0000 
     20 CA         78.0000   12.9000   31.6200 C.3       3 GLY6        0.0000 
     21 CA         77.6100   14.3300   31.3400 C.3       3 GLY6        0.0000 
     22 CA         81.8000   16.8400   30.4200 C.3       3 GLY6        0.0000 
     23 CA         80.4700   16.6200   31.0700 C.3       3 GLY6        0.0000 
     24 CA         80.2800   12.1300   32.5800 C.3       3 GLY6        0.0000 
     25 CA         78.5700   13.3200   32.9400 C.3       3 GLY6        0.0000 
     26 DU         80.2800   14.7800   30.0400 H         4 CUB7        0.0000 
     27 DU         78.9500   14.5500   30.6900 H         4 CUB7        0.0000 
     28 DU         78.5700   15.9700   30.4000 H         4 CUB7        0.0000 
     29 DU         82.5700   14.0000   30.9900 H         4 CUB7        0.0000 
     30 DU         82.1900   15.4200   30.7100 H         4 CUB7        0.0000 
     31 DU         80.8500   15.2000   31.3600 H         4 CUB7        0.0000 
     32 DU         78.1900   14.7500   32.6600 H         4 CUB7        0.0000 
@<TRIPOS>BOND
@<TRIPOS>SUBSTRUCTURE
     1 SER1        1 GROUP   
     2 ALA2        2 GROUP   
     3 GLY6        8 GROUP   
     4 CUB7       26 GROUP   
@<TRIPOS>SET

