#    Name: 6vgh_2_C3D
#    Modification time : Fri May 22 19:25:16 2020

@<TRIPOS>MOLECULE
6vgh_2_C3D
   31    35     1     0     0
SMALL
NO_CHARGES


@<TRIPOS>ATOM
      1 C1        -30.6330   -1.3110  -23.2970 C.3       1 C3D601      0.0000 
      2 C2        -31.0310    0.0270  -23.7900 C.3       1 C3D601      0.0000 
      3 C3        -30.3150    1.2240  -23.1360 C.3       1 C3D601      0.0000 
      4 C4        -28.8180    1.2360  -23.4830 C.3       1 C3D601      0.0000 
      5 C5        -28.4310   -0.2000  -23.1470 C.ar      1 C3D601      0.0000 
      6 C6        -26.9270   -0.1480  -22.9030 C.ar      1 C3D601      0.0000 
      7 C7        -26.3340   -1.3270  -22.5760 C.ar      1 C3D601      0.0000 
      8 C8        -27.1680   -2.6080  -22.4680 C.ar      1 C3D601      0.0000 
      9 C9        -28.5240   -2.6090  -22.6940 C.ar      1 C3D601      0.0000 
     10 C10       -29.2040   -1.3010  -23.0560 C.ar      1 C3D601      0.0000 
     11 C11       -32.5750    0.2470  -23.6400 C.ar      1 C3D601      0.0000 
     12 C12       -33.4560   -0.3210  -24.5710 C.ar      1 C3D601      0.0000 
     13 C13       -34.8350   -0.1250  -24.4420 C.ar      1 C3D601      0.0000 
     14 C14       -35.3380    0.6400  -23.3830 C.ar      1 C3D601      0.0000 
     15 C15       -34.4610    1.2080  -22.4540 C.ar      1 C3D601      0.0000 
     16 C16       -33.0800    1.0140  -22.5860 C.ar      1 C3D601      0.0000 
     17 C17       -31.2870   -1.6010  -21.9830 C.ar      1 C3D601      0.0000 
     18 C18       -30.8150   -0.9360  -20.6840 C.ar      1 C3D601      0.0000 
     19 C19       -31.4400   -1.2270  -19.4840 C.ar      1 C3D601      0.0000 
     20 C20       -32.6040   -2.2300  -19.4430 C.ar      1 C3D601      0.0000 
     21 C21       -33.0290   -2.8340  -20.6020 C.ar      1 C3D601      0.0000 
     22 C22       -32.3360   -2.5100  -21.9380 C.ar      1 C3D601      0.0000 
     23 C24       -33.1890   -3.9100  -17.7590 C.3       1 C3D601      0.0000 
     24 C25       -33.8560   -4.0450  -16.3790 C.3       1 C3D601      0.0000 
     25 C27       -31.9710   -3.1050  -15.3670 C.3       1 C3D601      0.0000 
     26 C28       -31.4920   -2.9690  -13.9310 C.3       1 C3D601      0.0000 
     27 O7        -24.9410   -1.3710  -22.3350 O.3       1 C3D601      0.0000 
     28 O23       -33.2580   -2.5300  -18.1810 O.3       1 C3D601      0.0000 
     29 N26       -32.8760   -4.1980  -15.3580 N.4       1 C3D601      0.0000 
     30 C29       -32.5260   -3.6680  -13.0970 C.3       1 C3D601      0.0000 
     31 C30       -33.5240   -4.2560  -14.0790 C.3       1 C3D601      0.0000 
@<TRIPOS>BOND
     1    1    2 1    
     2    1   10 1    
     3    1   17 1    
     4    2    3 1    
     5    2   11 1    
     6    3    4 1    
     7    4    5 1    
     8    5    6 ar   
     9    5   10 ar   
    10    6    7 ar   
    11    7    8 ar   
    12    7   27 1    
    13    8    9 ar   
    14    9   10 ar   
    15   11   12 ar   
    16   11   16 ar   
    17   12   13 ar   
    18   13   14 ar   
    19   14   15 ar   
    20   15   16 ar   
    21   17   18 ar   
    22   17   22 ar   
    23   18   19 ar   
    24   19   20 ar   
    25   20   21 ar   
    26   20   28 1    
    27   21   22 ar   
    28   23   24 1    
    29   23   28 1    
    30   24   29 1    
    31   25   26 1    
    32   25   29 1    
    33   26   30 1    
    34   29   31 1    
    35   30   31 1    
@<TRIPOS>SUBSTRUCTURE
     1 C3D601      1 GROUP   
@<TRIPOS>SET

