#    Name: 6vgh_1_C3D
#    Modification time : Fri May 22 19:25:13 2020

@<TRIPOS>MOLECULE
6vgh_1_C3D
   31    35     1     0     0
SMALL
NO_CHARGES


@<TRIPOS>ATOM
      1 C1        -45.9610   24.9750  -13.6690 C.3       1 C3D601      0.0000 
      2 C2        -45.0470   23.9250  -13.1610 C.3       1 C3D601      0.0000 
      3 C3        -43.6070   23.9330  -13.7070 C.3       1 C3D601      0.0000 
      4 C4        -42.8490   25.2330  -13.3940 C.3       1 C3D601      0.0000 
      5 C5        -43.8770   26.2910  -13.7780 C.ar      1 C3D601      0.0000 
      6 C6        -43.0650   27.5560  -14.0190 C.ar      1 C3D601      0.0000 
      7 C7        -43.7720   28.6580  -14.3820 C.ar      1 C3D601      0.0000 
      8 C8        -45.2960   28.5890  -14.5300 C.ar      1 C3D601      0.0000 
      9 C9        -45.9900   27.4270  -14.3060 C.ar      1 C3D601      0.0000 
     10 C10       -45.2130   26.1870  -13.9030 C.ar      1 C3D601      0.0000 
     11 C11       -45.6700   22.5390  -13.5180 C.ar      1 C3D601      0.0000 
     12 C12       -46.8740   22.1370  -12.9230 C.ar      1 C3D601      0.0000 
     13 C13       -47.4330   20.9090  -13.2750 C.ar      1 C3D601      0.0000 
     14 C14       -46.7860   20.0760  -14.1960 C.ar      1 C3D601      0.0000 
     15 C15       -45.5830   20.4720  -14.7820 C.ar      1 C3D601      0.0000 
     16 C16       -45.0280   21.7090  -14.4410 C.ar      1 C3D601      0.0000 
     17 C17       -46.5100   24.5710  -15.0050 C.ar      1 C3D601      0.0000 
     18 C18       -45.6180   24.5020  -16.2500 C.ar      1 C3D601      0.0000 
     19 C19       -46.1470   24.1210  -17.4680 C.ar      1 C3D601      0.0000 
     20 C20       -47.6390   23.7750  -17.5860 C.ar      1 C3D601      0.0000 
     21 C21       -48.4500   23.8370  -16.4800 C.ar      1 C3D601      0.0000 
     22 C22       -47.8620   24.2650  -15.1250 C.ar      1 C3D601      0.0000 
     23 C24       -49.3620   24.0930  -19.2940 C.3       1 C3D601      0.0000 
     24 C25       -49.7720   23.5790  -20.6830 C.3       1 C3D601      0.0000 
     25 C27       -48.0030   24.7730  -21.6450 C.3       1 C3D601      0.0000 
     26 C28       -47.6170   25.1410  -23.0680 C.3       1 C3D601      0.0000 
     27 O7        -43.0990   29.8780  -14.6230 O.3       1 C3D601      0.0000 
     28 O23       -48.1840   23.3740  -18.8700 O.3       1 C3D601      0.0000 
     29 N26       -49.3950   24.5060  -21.6960 N.4       1 C3D601      0.0000 
     30 C29       -48.6950   24.5590  -23.9350 C.3       1 C3D601      0.0000 
     31 C30       -49.7150   23.9590  -22.9840 C.3       1 C3D601      0.0000 
@<TRIPOS>BOND
     1    1    2 1    
     2    1   10 1    
     3    1   17 1    
     4    2    3 1    
     5    2   11 1    
     6    3    4 1    
     7    4    5 1    
     8    5    6 ar   
     9    5   10 ar   
    10    6    7 ar   
    11    7    8 ar   
    12    7   27 1    
    13    8    9 ar   
    14    9   10 ar   
    15   11   12 ar   
    16   11   16 ar   
    17   12   13 ar   
    18   13   14 ar   
    19   14   15 ar   
    20   15   16 ar   
    21   17   18 ar   
    22   17   22 ar   
    23   18   19 ar   
    24   19   20 ar   
    25   20   21 ar   
    26   20   28 1    
    27   21   22 ar   
    28   23   24 1    
    29   23   28 1    
    30   24   29 1    
    31   25   26 1    
    32   25   29 1    
    33   26   30 1    
    34   29   31 1    
    35   30   31 1    
@<TRIPOS>SUBSTRUCTURE
     1 C3D601      1 GROUP   
@<TRIPOS>SET

