#    Name: 6ojz_5_ADP_CAVITY_N1_4
#    Modification time : Fri May 22 19:33:25 2020

@<TRIPOS>MOLECULE
6ojz_5_ADP_CAVITY_N1_4
   40     0     6     0     0
SMALL
NO_CHARGES


@<TRIPOS>ATOM
      1 OG        -23.0700  -24.4400  -26.2800 O.3       1 SER1        0.0000 
      2 OG        -21.8100  -23.6900  -27.8100 O.3       1 SER1        0.0000 
      3 OG        -22.0000  -25.0300  -27.1600 O.3       1 SER1        0.0000 
      4 OG        -22.7000  -20.8400  -25.6700 O.3       1 SER1        0.0000 
      5 OG        -22.9000  -22.1800  -25.0200 O.3       1 SER1        0.0000 
      6 OG        -21.8300  -22.7600  -25.9000 O.3       1 SER1        0.0000 
      7 OG        -20.7700  -23.3500  -26.7800 O.3       1 SER1        0.0000 
      8 OG        -19.7000  -23.9300  -27.6600 O.3       1 SER1        0.0000 
      9 OG        -19.9000  -25.2700  -27.0100 O.3       1 SER1        0.0000 
     10 OG        -18.4400  -23.1800  -29.1900 O.3       1 SER1        0.0000 
     11 OG        -20.6000  -21.0800  -25.5200 O.3       1 SER1        0.0000 
     12 OG        -14.9000  -20.4000  -29.3100 O.3       1 SER1        0.0000 
     13 O         -18.6400  -24.5200  -28.5400 O.2       2 ALA2        0.0000 
     14 OD1       -23.7100  -22.1100  -28.6000 O.co2     3 ASP3        0.0000 
     15 OD1       -22.6500  -22.7000  -29.4800 O.co2     3 ASP3        0.0000 
     16 OD1       -21.3800  -21.9400  -31.0100 O.co2     3 ASP3        0.0000 
     17 OD1       -22.6700  -21.7700  -27.5800 O.co2     3 ASP3        0.0000 
     18 OD1       -21.6100  -22.3500  -28.4600 O.co2     3 ASP3        0.0000 
     19 OD1       -20.3500  -21.6000  -29.9900 O.co2     3 ASP3        0.0000 
     20 OD1       -19.2800  -22.1800  -30.8700 O.co2     3 ASP3        0.0000 
     21 OD1       -21.6400  -21.4200  -26.5500 O.co2     3 ASP3        0.0000 
     22 OD1       -19.3100  -21.2600  -28.9600 O.co2     3 ASP3        0.0000 
     23 OD1       -17.3800  -23.7600  -30.0700 O.co2     3 ASP3        0.0000 
     24 OD1       -15.0800  -22.6600  -30.5700 O.co2     3 ASP3        0.0000 
     25 OD1       -14.0100  -23.2500  -31.4500 O.co2     3 ASP3        0.0000 
     26 NZ        -20.5700  -22.0100  -27.4300 N.4       4 LYS4        0.0000 
     27 NZ        -19.5100  -22.5900  -28.3100 N.4       4 LYS4        0.0000 
     28 NZ        -19.5300  -21.6600  -26.4000 N.4       4 LYS4        0.0000 
     29 CA        -21.5800  -23.2800  -30.3600 C.3       5 GLY6        0.0000 
     30 CA        -21.7800  -24.6200  -29.7100 C.3       5 GLY6        0.0000 
     31 CA        -20.5400  -22.9400  -29.3400 C.3       5 GLY6        0.0000 
     32 CA        -20.7400  -24.2800  -28.6900 C.3       5 GLY6        0.0000 
     33 CA        -20.9400  -25.6100  -28.0400 C.3       5 GLY6        0.0000 
     34 CA        -19.4800  -23.5200  -30.2200 C.3       5 GLY6        0.0000 
     35 CA        -19.6800  -24.8600  -29.5700 C.3       5 GLY6        0.0000 
     36 CA        -18.4700  -22.2500  -27.2800 C.3       5 GLY6        0.0000 
     37 CA        -18.6700  -23.5900  -26.6300 C.3       5 GLY6        0.0000 
     38 CA        -13.1700  -24.2400  -29.7800 C.3       5 GLY6        0.0000 
     39 DU        -22.8400  -24.0400  -28.8300 H         6 CUB7        0.0000 
     40 DU        -22.8700  -23.1100  -26.9300 H         6 CUB7        0.0000 
@<TRIPOS>BOND
@<TRIPOS>SUBSTRUCTURE
     1 SER1        1 GROUP   
     2 ALA2       13 GROUP   
     3 ASP3       14 GROUP   
     4 LYS4       26 GROUP   
     5 GLY6       29 GROUP   
     6 CUB7       39 GROUP   
@<TRIPOS>SET

