#    Name: 6ojz_5_ADP_CAVITY_N1_8
#    Modification time : Fri May 22 19:33:25 2020

@<TRIPOS>MOLECULE
6ojz_5_ADP_CAVITY_N1_8
  113     0     6     0     0
SMALL
NO_CHARGES


@<TRIPOS>ATOM
      1 OG        -23.0700  -24.4400  -26.2800 O.3       1 SER1        0.0000 
      2 OG        -21.8100  -23.6900  -27.8100 O.3       1 SER1        0.0000 
      3 OG        -22.0000  -25.0300  -27.1600 O.3       1 SER1        0.0000 
      4 OG        -14.6200  -21.8500  -35.6800 O.3       1 SER1        0.0000 
      5 OG        -22.7000  -20.8400  -25.6700 O.3       1 SER1        0.0000 
      6 OG        -22.9000  -22.1800  -25.0200 O.3       1 SER1        0.0000 
      7 OG        -21.8300  -22.7600  -25.9000 O.3       1 SER1        0.0000 
      8 OG        -20.7700  -23.3500  -26.7800 O.3       1 SER1        0.0000 
      9 OG        -19.7000  -23.9300  -27.6600 O.3       1 SER1        0.0000 
     10 OG        -19.9000  -25.2700  -27.0100 O.3       1 SER1        0.0000 
     11 OG        -18.4400  -23.1800  -29.1900 O.3       1 SER1        0.0000 
     12 OG        -13.7800  -22.8400  -34.0100 O.3       1 SER1        0.0000 
     13 OG        -12.7200  -23.4200  -34.8900 O.3       1 SER1        0.0000 
     14 OG        -20.6000  -21.0800  -25.5200 O.3       1 SER1        0.0000 
     15 OG        -14.9000  -20.4000  -29.3100 O.3       1 SER1        0.0000 
     16 OG        -12.9700  -22.9000  -30.4200 O.3       1 SER1        0.0000 
     17 OG        -11.9100  -23.4900  -31.3000 O.3       1 SER1        0.0000 
     18 OG        -10.8400  -24.0700  -32.1800 O.3       1 SER1        0.0000 
     19 OG        -13.8700  -20.0500  -28.2900 O.3       1 SER1        0.0000 
     20 OG        -12.8000  -20.6400  -29.1700 O.3       1 SER1        0.0000 
     21 OG        -13.0000  -21.9800  -28.5200 O.3       1 SER1        0.0000 
     22 OG        -11.9400  -22.5600  -29.4000 O.3       1 SER1        0.0000 
     23 OG        -10.6700  -21.8100  -30.9300 O.3       1 SER1        0.0000 
     24 OG        -10.8700  -23.1400  -30.2800 O.3       1 SER1        0.0000 
     25 OG        -14.0900  -20.4600  -25.7300 O.3       1 SER1        0.0000 
     26 OG        -12.8300  -19.7100  -27.2600 O.3       1 SER1        0.0000 
     27 OG        -13.0300  -21.0500  -26.6100 O.3       1 SER1        0.0000 
     28 OG        -11.9600  -21.6300  -27.4900 O.3       1 SER1        0.0000 
     29 OG        -12.1600  -22.9700  -26.8400 O.3       1 SER1        0.0000 
     30 OG        -10.9000  -22.2200  -28.3700 O.3       1 SER1        0.0000 
     31 OG         -9.8300  -22.8000  -29.2500 O.3       1 SER1        0.0000 
     32 N         -23.5700  -18.9200  -25.4400 N.am      2 ALA2        0.0000 
     33 O         -18.6400  -24.5200  -28.5400 O.2       2 ALA2        0.0000 
     34 N         -12.3800  -18.8900  -32.3700 N.am      2 ALA2        0.0000 
     35 N         -12.4100  -17.9600  -30.4600 N.am      2 ALA2        0.0000 
     36 N         -11.3400  -18.5500  -31.3400 N.am      2 ALA2        0.0000 
     37 N         -11.5400  -19.8800  -30.6900 N.am      2 ALA2        0.0000 
     38 N         -12.6300  -18.3700  -27.9100 N.am      2 ALA2        0.0000 
     39 N         -11.5700  -18.9600  -28.7900 N.am      2 ALA2        0.0000 
     40 N         -10.5000  -19.5400  -29.6700 N.am      2 ALA2        0.0000 
     41 O          -9.6300  -21.4600  -29.9000 O.2       2 ALA2        0.0000 
     42 N         -13.2500  -21.4600  -24.0500 N.am      2 ALA2        0.0000 
     43 OD1       -23.7100  -22.1100  -28.6000 O.co2     3 ASP3        0.0000 
     44 OD1       -22.6500  -22.7000  -29.4800 O.co2     3 ASP3        0.0000 
     45 OD1       -21.3800  -21.9400  -31.0100 O.co2     3 ASP3        0.0000 
     46 OD1       -23.5400  -19.8500  -27.3500 O.co2     3 ASP3        0.0000 
     47 OD1       -22.6700  -21.7700  -27.5800 O.co2     3 ASP3        0.0000 
     48 OD1       -21.6100  -22.3500  -28.4600 O.co2     3 ASP3        0.0000 
     49 OD1       -20.3500  -21.6000  -29.9900 O.co2     3 ASP3        0.0000 
     50 OD1       -19.2800  -22.1800  -30.8700 O.co2     3 ASP3        0.0000 
     51 OD1       -22.5000  -19.5000  -26.3200 O.co2     3 ASP3        0.0000 
     52 OD1       -21.6400  -21.4200  -26.5500 O.co2     3 ASP3        0.0000 
     53 OD1       -19.3100  -21.2600  -28.9600 O.co2     3 ASP3        0.0000 
     54 OD1       -17.3800  -23.7600  -30.0700 O.co2     3 ASP3        0.0000 
     55 OD1       -13.3900  -20.1600  -35.3000 O.co2     3 ASP3        0.0000 
     56 OD1       -13.5900  -21.5000  -34.6600 O.co2     3 ASP3        0.0000 
     57 OD1       -13.9800  -24.1800  -33.3600 O.co2     3 ASP3        0.0000 
     58 OD1       -15.0800  -22.6600  -30.5700 O.co2     3 ASP3        0.0000 
     59 OD1       -13.4200  -19.2400  -33.4000 O.co2     3 ASP3        0.0000 
     60 OD1       -13.6100  -20.5700  -32.7500 O.co2     3 ASP3        0.0000 
     61 OD1       -13.8100  -21.9100  -32.1000 O.co2     3 ASP3        0.0000 
     62 OD1       -14.0100  -23.2500  -31.4500 O.co2     3 ASP3        0.0000 
     63 OD1       -13.6400  -19.6400  -30.8400 O.co2     3 ASP3        0.0000 
     64 OD1       -13.8400  -20.9800  -30.1900 O.co2     3 ASP3        0.0000 
     65 OD1       -12.7700  -21.5700  -31.0700 O.co2     3 ASP3        0.0000 
     66 OD1       -13.6700  -18.7200  -28.9300 O.co2     3 ASP3        0.0000 
     67 OD1       -12.6000  -19.3000  -29.8100 O.co2     3 ASP3        0.0000 
     68 NZ        -20.5700  -22.0100  -27.4300 N.4       4 LYS4        0.0000 
     69 NZ        -19.5100  -22.5900  -28.3100 N.4       4 LYS4        0.0000 
     70 NZ        -12.5200  -22.0900  -35.5400 N.4       4 LYS4        0.0000 
     71 NZ        -19.5300  -21.6600  -26.4000 N.4       4 LYS4        0.0000 
     72 NZ        -11.4800  -21.7400  -34.5100 N.4       4 LYS4        0.0000 
     73 NZ        -11.6800  -23.0800  -33.8600 N.4       4 LYS4        0.0000 
     74 NZ        -13.0600  -20.1200  -24.7000 N.4       4 LYS4        0.0000 
     75 NZ        -11.7900  -19.3600  -26.2300 N.4       4 LYS4        0.0000 
     76 NZ        -11.9900  -20.7000  -25.5800 N.4       4 LYS4        0.0000 
     77 NZ        -10.9500  -20.3600  -24.5600 N.4       4 LYS4        0.0000 
     78 CA        -21.5800  -23.2800  -30.3600 C.3       5 GLY6        0.0000 
     79 CA        -21.7800  -24.6200  -29.7100 C.3       5 GLY6        0.0000 
     80 CA        -20.5400  -22.9400  -29.3400 C.3       5 GLY6        0.0000 
     81 CA        -20.7400  -24.2800  -28.6900 C.3       5 GLY6        0.0000 
     82 CA        -20.9400  -25.6100  -28.0400 C.3       5 GLY6        0.0000 
     83 CA        -19.4800  -23.5200  -30.2200 C.3       5 GLY6        0.0000 
     84 CA        -19.6800  -24.8600  -29.5700 C.3       5 GLY6        0.0000 
     85 CA        -18.4700  -22.2500  -27.2800 C.3       5 GLY6        0.0000 
     86 CA        -18.6700  -23.5900  -26.6300 C.3       5 GLY6        0.0000 
     87 CA        -12.9500  -23.8300  -32.3300 C.3       5 GLY6        0.0000 
     88 CA        -11.8800  -24.4200  -33.2100 C.3       5 GLY6        0.0000 
     89 CA        -13.1700  -24.2400  -29.7800 C.3       5 GLY6        0.0000 
     90 CA        -12.1100  -24.8300  -30.6500 C.3       5 GLY6        0.0000 
     91 CA        -10.6400  -22.7400  -32.8300 C.3       5 GLY6        0.0000 
     92 CA        -12.1300  -23.9000  -28.7500 C.3       5 GLY6        0.0000 
     93 CA        -13.8900  -19.1200  -26.3800 C.3       5 GLY6        0.0000 
     94 CA        -11.1000  -23.5500  -27.7200 C.3       5 GLY6        0.0000 
     95 CA        -12.1900  -22.0400  -24.9300 C.3       5 GLY6        0.0000 
     96 CA        -10.7300  -19.9500  -27.1100 C.3       5 GLY6        0.0000 
     97 CA        -11.1200  -22.6200  -25.8100 C.3       5 GLY6        0.0000 
     98 CA         -9.6600  -20.5300  -27.9900 C.3       5 GLY6        0.0000 
     99 CA         -9.8600  -21.8700  -27.3400 C.3       5 GLY6        0.0000 
    100 CA        -10.0600  -23.2100  -26.6900 C.3       5 GLY6        0.0000 
    101 DU        -22.8400  -24.0400  -28.8300 H         6 CUB7        0.0000 
    102 DU        -22.8700  -23.1100  -26.9300 H         6 CUB7        0.0000 
    103 DU        -12.3500  -19.8200  -34.2800 H         6 CUB7        0.0000 
    104 DU        -12.5500  -21.1600  -33.6300 H         6 CUB7        0.0000 
    105 DU        -12.7500  -22.5000  -32.9800 H         6 CUB7        0.0000 
    106 DU        -12.5800  -20.2300  -31.7200 H         6 CUB7        0.0000 
    107 DU        -11.5100  -20.8100  -32.6000 H         6 CUB7        0.0000 
    108 DU        -11.7100  -22.1500  -31.9500 H         6 CUB7        0.0000 
    109 DU        -11.7400  -21.2200  -30.0500 H         6 CUB7        0.0000 
    110 DU        -10.4700  -20.4700  -31.5700 H         6 CUB7        0.0000 
    111 DU        -11.7600  -20.2900  -28.1400 H         6 CUB7        0.0000 
    112 DU        -10.7000  -20.8800  -29.0200 H         6 CUB7        0.0000 
    113 DU        -10.9300  -21.2900  -26.4600 H         6 CUB7        0.0000 
@<TRIPOS>BOND
@<TRIPOS>SUBSTRUCTURE
     1 SER1        1 GROUP   
     2 ALA2       32 GROUP   
     3 ASP3       43 GROUP   
     4 LYS4       68 GROUP   
     5 GLY6       78 GROUP   
     6 CUB7      101 GROUP   
@<TRIPOS>SET

