#    Name: 6ojz_5_ADP
#    Modification time : Fri May 22 19:33:24 2020

@<TRIPOS>MOLECULE
6ojz_5_ADP
   27    29     1     0     1
SMALL
NO_CHARGES


@<TRIPOS>ATOM
      1 PB        -17.5390  -24.7960  -29.8060 P.3       1 ADP401      0.0000 
      2 O1B       -17.9020  -23.9190  -31.0100 O.co2     1 ADP401      0.0000 
      3 O2B       -16.6360  -23.9730  -28.8540 O.co2     1 ADP401      0.0000 
      4 O3B       -16.8300  -26.0310  -30.3250 O.co2     1 ADP401      0.0000 
      5 PA        -19.8930  -24.2560  -28.1440 P.3       1 ADP401      0.0000 
      6 O1A       -19.9960  -22.8480  -28.7720 O.co2     1 ADP401      0.0000 
      7 O2A       -19.2650  -24.1920  -26.7580 O.co2     1 ADP401      0.0000 
      8 O3A       -18.9270  -25.2480  -29.0520 O.3       1 ADP401      0.0000 
      9 O5'       -21.4130  -24.9430  -28.0740 O.3       1 ADP401      0.0000 
     10 C5'       -22.5340  -24.2370  -28.6460 C.3       1 ADP401      0.0000 
     11 C4'       -23.8570  -24.8790  -28.2250 C.3       1 ADP401      0.0000 
     12 O4'       -23.6920  -26.1710  -27.9810 O.3       1 ADP401      0.0000 
     13 C3'       -24.3540  -24.2350  -26.8930 C.3       1 ADP401      0.0000 
     14 O3'       -25.6780  -23.9300  -26.9860 O.3       1 ADP401      0.0000 
     15 C2'       -24.1070  -25.3140  -25.8070 C.3       1 ADP401      0.0000 
     16 O2'       -25.0700  -25.2400  -24.7460 O.3       1 ADP401      0.0000 
     17 C1'       -24.2120  -26.4630  -26.4660 C.3       1 ADP401      0.0000 
     18 N9        -23.3800  -27.4230  -25.8190 N.pl3     1 ADP401      0.0000 
     19 C8        -22.0490  -27.3510  -25.7370 C.2       1 ADP401      0.0000 
     20 N7        -21.6150  -28.4170  -25.0570 N.2       1 ADP401      0.0000 
     21 C5        -22.6940  -29.1540  -24.7110 C.ar      1 ADP401      0.0000 
     22 C6        -22.8090  -30.3470  -24.0030 C.ar      1 ADP401      0.0000 
     23 N6        -21.7810  -31.1990  -23.3950 N.pl3     1 ADP401      0.0000 
     24 N1        -24.0000  -30.8760  -23.7910 N.ar      1 ADP401      0.0000 
     25 C2        -25.1230  -30.2460  -24.2720 C.ar      1 ADP401      0.0000 
     26 N3        -25.0190  -29.0850  -24.9600 N.ar      1 ADP401      0.0000 
     27 C4        -23.7880  -28.5390  -25.1790 C.ar      1 ADP401      0.0000 
@<TRIPOS>BOND
     1    1    2 ar   
     2    1    3 ar   
     3    1    4 ar   
     4    1    8 1    
     5    5    6 ar   
     6    5    7 ar   
     7    5    8 1    
     8    5    9 1    
     9    9   10 1    
    10   10   11 1    
    11   11   12 1    
    12   11   13 1    
    13   12   17 1    
    14   13   14 1    
    15   13   15 1    
    16   15   16 1    
    17   15   17 1    
    18   17   18 1    
    19   18   19 1    
    20   18   27 1    
    21   19   20 2    
    22   20   21 1    
    23   21   22 ar   
    24   21   27 ar   
    25   22   23 1    
    26   22   24 ar   
    27   24   25 ar   
    28   25   26 ar   
    29   26   27 ar   
@<TRIPOS>SUBSTRUCTURE
     1 ADP401      1 GROUP   
@<TRIPOS>SET
ATOM$ORANGE STATIC     ATOMS   COLORGROUP SYSTEM 
20 10 10 11 11 13 13 15 15 17 17 19 19 21 21 22 22 25 \
25 27 27 

