#    Name: 6ojz_1_ADP
#    Modification time : Fri May 22 19:32:44 2020

@<TRIPOS>MOLECULE
6ojz_1_ADP
   27    29     1     0     1
SMALL
NO_CHARGES


@<TRIPOS>ATOM
      1 PB         14.9960  -25.1740  -13.2400 P.3       1 ADP401      0.0000 
      2 O1B        14.0380  -24.1150  -13.8050 O.co2     1 ADP401      0.0000 
      3 O2B        16.4370  -24.8430  -13.7030 O.co2     1 ADP401      0.0000 
      4 O3B        14.6110  -26.5240  -13.7910 O.co2     1 ADP401      0.0000 
      5 PA         14.9590  -23.8970  -10.5260 P.3       1 ADP401      0.0000 
      6 O1A        14.0180  -22.7760  -11.0280 O.co2     1 ADP401      0.0000 
      7 O2A        16.3860  -23.3810  -10.4290 O.co2     1 ADP401      0.0000 
      8 O3A        14.9130  -25.2030  -11.5800 O.3       1 ADP401      0.0000 
      9 O5'        14.4680  -24.3850   -9.0040 O.3       1 ADP401      0.0000 
     10 C5'        13.3540  -23.7040   -8.3970 C.3       1 ADP401      0.0000 
     11 C4'        13.6920  -23.2340   -6.9760 C.3       1 ADP401      0.0000 
     12 O4'        13.7670  -24.2810   -6.1620 O.3       1 ADP401      0.0000 
     13 C3'        15.0740  -22.4990   -6.9260 C.3       1 ADP401      0.0000 
     14 O3'        14.9300  -21.1510   -6.7680 O.3       1 ADP401      0.0000 
     15 C2'        15.8140  -23.0830   -5.6950 C.3       1 ADP401      0.0000 
     16 O2'        15.9330  -22.0780   -4.6790 O.3       1 ADP401      0.0000 
     17 C1'        15.1160  -24.1410   -5.2680 C.3       1 ADP401      0.0000 
     18 N9         15.8850  -25.3240   -5.4730 N.pl3     1 ADP401      0.0000 
     19 C8         16.4260  -25.6830   -6.6370 C.2       1 ADP401      0.0000 
     20 N7         17.0670  -26.8410   -6.4580 N.2       1 ADP401      0.0000 
     21 C5         16.9150  -27.2050   -5.1730 C.ar      1 ADP401      0.0000 
     22 C6         17.3730  -28.3130   -4.4780 C.ar      1 ADP401      0.0000 
     23 N6         18.1830  -29.4560   -4.9230 N.pl3     1 ADP401      0.0000 
     24 N1         17.0830  -28.4360   -3.1930 N.ar      1 ADP401      0.0000 
     25 C2         16.3300  -27.4770   -2.5500 C.ar      1 ADP401      0.0000 
     26 N3         15.8830  -26.4000   -3.2320 N.ar      1 ADP401      0.0000 
     27 C4         16.1830  -26.2700   -4.5570 C.ar      1 ADP401      0.0000 
@<TRIPOS>BOND
     1    1    2 ar   
     2    1    3 ar   
     3    1    4 ar   
     4    1    8 1    
     5    5    6 ar   
     6    5    7 ar   
     7    5    8 1    
     8    5    9 1    
     9    9   10 1    
    10   10   11 1    
    11   11   12 1    
    12   11   13 1    
    13   12   17 1    
    14   13   14 1    
    15   13   15 1    
    16   15   16 1    
    17   15   17 1    
    18   17   18 1    
    19   18   19 1    
    20   18   27 1    
    21   19   20 2    
    22   20   21 1    
    23   21   22 ar   
    24   21   27 ar   
    25   22   23 1    
    26   22   24 ar   
    27   24   25 ar   
    28   25   26 ar   
    29   26   27 ar   
@<TRIPOS>SUBSTRUCTURE
     1 ADP401      1 GROUP   
@<TRIPOS>SET
ATOM$ORANGE STATIC     ATOMS   COLORGROUP SYSTEM 
20 10 10 11 11 13 13 15 15 17 17 19 19 21 21 22 22 25 \
25 27 27 

