#    Name: 6ojz_3_ADP
#    Modification time : Fri May 22 19:33:04 2020

@<TRIPOS>MOLECULE
6ojz_3_ADP
   27    29     1     0     1
SMALL
NO_CHARGES


@<TRIPOS>ATOM
      1 PB          7.7550  -26.6760  -81.6120 P.3       1 ADP401      0.0000 
      2 O1B         6.6260  -25.6610  -81.3160 O.co2     1 ADP401      0.0000 
      3 O2B         9.0880  -26.0860  -81.1490 O.co2     1 ADP401      0.0000 
      4 O3B         7.5480  -27.9740  -80.8820 O.co2     1 ADP401      0.0000 
      5 PA          7.7510  -25.9410  -84.5020 P.3       1 ADP401      0.0000 
      6 O1A         6.3030  -25.7340  -84.9310 O.co2     1 ADP401      0.0000 
      7 O2A         8.3780  -24.5700  -84.1410 O.co2     1 ADP401      0.0000 
      8 O3A         7.7900  -27.0150  -83.2230 O.3       1 ADP401      0.0000 
      9 O5'         8.6610  -26.6590  -85.7120 O.3       1 ADP401      0.0000 
     10 C5'        10.0240  -26.2390  -85.9470 C.3       1 ADP401      0.0000 
     11 C4'        10.1940  -25.9990  -87.4490 C.3       1 ADP401      0.0000 
     12 O4'         9.9740  -27.1500  -88.0730 O.3       1 ADP401      0.0000 
     13 C3'         9.1310  -24.9530  -87.9590 C.3       1 ADP401      0.0000 
     14 O3'         9.6640  -23.7740  -88.4300 O.3       1 ADP401      0.0000 
     15 C2'         8.2790  -25.6970  -89.0320 C.3       1 ADP401      0.0000 
     16 O2'         8.1940  -24.9550  -90.2620 O.3       1 ADP401      0.0000 
     17 C1'         8.8410  -26.9000  -89.2110 C.3       1 ADP401      0.0000 
     18 N9          7.8560  -27.9170  -89.0650 N.pl3     1 ADP401      0.0000 
     19 C8          6.9270  -27.9720  -88.1100 C.2       1 ADP401      0.0000 
     20 N7          6.1930  -29.0700  -88.3050 N.2       1 ADP401      0.0000 
     21 C5          6.6830  -29.7050  -89.3920 C.ar      1 ADP401      0.0000 
     22 C6          6.3010  -30.8810  -90.0300 C.ar      1 ADP401      0.0000 
     23 N6          5.2220  -31.8310  -89.7110 N.pl3     1 ADP401      0.0000 
     24 N1          6.9600  -31.2860  -91.1050 N.ar      1 ADP401      0.0000 
     25 C2          8.0190  -30.5570  -91.5920 C.ar      1 ADP401      0.0000 
     26 N3          8.3960  -29.4160  -90.9740 N.ar      1 ADP401      0.0000 
     27 C4          7.7130  -28.9930  -89.8660 C.ar      1 ADP401      0.0000 
@<TRIPOS>BOND
     1    1    2 ar   
     2    1    3 ar   
     3    1    4 ar   
     4    1    8 1    
     5    5    6 ar   
     6    5    7 ar   
     7    5    8 1    
     8    5    9 1    
     9    9   10 1    
    10   10   11 1    
    11   11   12 1    
    12   11   13 1    
    13   12   17 1    
    14   13   14 1    
    15   13   15 1    
    16   15   16 1    
    17   15   17 1    
    18   17   18 1    
    19   18   19 1    
    20   18   27 1    
    21   19   20 2    
    22   20   21 1    
    23   21   22 ar   
    24   21   27 ar   
    25   22   23 1    
    26   22   24 ar   
    27   24   25 ar   
    28   25   26 ar   
    29   26   27 ar   
@<TRIPOS>SUBSTRUCTURE
     1 ADP401      1 GROUP   
@<TRIPOS>SET
ATOM$ORANGE STATIC     ATOMS   COLORGROUP SYSTEM 
20 10 10 11 11 13 13 15 15 17 17 19 19 21 21 22 22 25 \
25 27 27 

