#    Name: 6ojz_3_ADP_CAVITY_N1_4
#    Modification time : Fri May 22 19:33:05 2020

@<TRIPOS>MOLECULE
6ojz_3_ADP_CAVITY_N1_4
   39     0     6     0     0
SMALL
NO_CHARGES


@<TRIPOS>ATOM
      1 OG          7.4300  -20.7000  -89.0200 O.3       1 SER1        0.0000 
      2 OG          7.6700  -25.7100  -85.3900 O.3       1 SER1        0.0000 
      3 O           8.5400  -27.6300  -85.6300 O.2       2 ALA2        0.0000 
      4 O           7.4500  -26.1200  -82.8400 O.2       2 ALA2        0.0000 
      5 O           8.4900  -25.7700  -81.8100 O.2       2 ALA2        0.0000 
      6 O           9.5200  -25.4300  -80.7800 O.2       2 ALA2        0.0000 
      7 OD1         8.4700  -20.3600  -87.9900 O.co2     3 ASP3        0.0000 
      8 OD1         9.3100  -21.3500  -86.3100 O.co2     3 ASP3        0.0000 
      9 NZ          7.6500  -24.7800  -83.4900 N.4       4 LYS4        0.0000 
     10 NZ          7.6200  -23.8500  -81.5800 N.4       4 LYS4        0.0000 
     11 NZ          9.0800  -21.7600  -83.7600 N.4       4 LYS4        0.0000 
     12 NZ          8.8800  -23.1000  -83.1100 N.4       4 LYS4        0.0000 
     13 NZ          8.6800  -24.4400  -82.4600 N.4       4 LYS4        0.0000 
     14 NZ          8.8600  -22.1700  -81.2000 N.4       4 LYS4        0.0000 
     15 NZ          8.6600  -23.5100  -80.5500 N.4       4 LYS4        0.0000 
     16 CA          7.4800  -27.0500  -84.7500 C.3       5 GLY6        0.0000 
     17 CA          8.7100  -25.3600  -84.3700 C.3       5 GLY6        0.0000 
     18 CA          8.5100  -26.7000  -83.7200 C.3       5 GLY6        0.0000 
     19 CA          9.7800  -25.9500  -85.2500 C.3       5 GLY6        0.0000 
     20 CA          9.5800  -27.2900  -84.6000 C.3       5 GLY6        0.0000 
     21 CA          9.7500  -25.0200  -83.3400 C.3       5 GLY6        0.0000 
     22 CA         10.8100  -25.6000  -84.2200 C.3       5 GLY6        0.0000 
     23 CA         10.7900  -24.6800  -82.3100 C.3       5 GLY6        0.0000 
     24 CA         12.0500  -23.9200  -83.8400 C.3       5 GLY6        0.0000 
     25 CA         11.8500  -25.2600  -83.1900 C.3       5 GLY6        0.0000 
     26 CA         13.1200  -24.5100  -84.7200 C.3       5 GLY6        0.0000 
     27 CA         12.9200  -25.8400  -84.0700 C.3       5 GLY6        0.0000 
     28 CA          9.7000  -23.1600  -79.5300 C.3       5 GLY6        0.0000 
     29 CA         10.7600  -23.7500  -80.4100 C.3       5 GLY6        0.0000 
     30 CA         11.8200  -24.3300  -81.2900 C.3       5 GLY6        0.0000 
     31 DU          8.9400  -24.9600  -86.9200 H         6 CUB7        0.0000 
     32 DU         10.1500  -22.3400  -84.6400 H         6 CUB7        0.0000 
     33 DU          9.9500  -23.6800  -83.9900 H         6 CUB7        0.0000 
     34 DU         11.0100  -24.2700  -84.8700 H         6 CUB7        0.0000 
     35 DU         12.0800  -24.8500  -85.7500 H         6 CUB7        0.0000 
     36 DU         10.1200  -21.4200  -82.7300 H         6 CUB7        0.0000 
     37 DU          9.9200  -22.7500  -82.0800 H         6 CUB7        0.0000 
     38 DU         11.1800  -22.0000  -83.6100 H         6 CUB7        0.0000 
     39 DU         10.9900  -23.3400  -82.9600 H         6 CUB7        0.0000 
@<TRIPOS>BOND
@<TRIPOS>SUBSTRUCTURE
     1 SER1        1 GROUP   
     2 ALA2        3 GROUP   
     3 ASP3        7 GROUP   
     4 LYS4        9 GROUP   
     5 GLY6       16 GROUP   
     6 CUB7       31 GROUP   
@<TRIPOS>SET

