#    Name: 6ojz_5_ADP_CAVITY_N1_6
#    Modification time : Fri May 22 19:33:25 2020

@<TRIPOS>MOLECULE
6ojz_5_ADP_CAVITY_N1_6
   69     0     6     0     0
SMALL
NO_CHARGES


@<TRIPOS>ATOM
      1 OG        -23.0700  -24.4400  -26.2800 O.3       1 SER1        0.0000 
      2 OG        -21.8100  -23.6900  -27.8100 O.3       1 SER1        0.0000 
      3 OG        -22.0000  -25.0300  -27.1600 O.3       1 SER1        0.0000 
      4 OG        -22.7000  -20.8400  -25.6700 O.3       1 SER1        0.0000 
      5 OG        -22.9000  -22.1800  -25.0200 O.3       1 SER1        0.0000 
      6 OG        -21.8300  -22.7600  -25.9000 O.3       1 SER1        0.0000 
      7 OG        -20.7700  -23.3500  -26.7800 O.3       1 SER1        0.0000 
      8 OG        -19.7000  -23.9300  -27.6600 O.3       1 SER1        0.0000 
      9 OG        -19.9000  -25.2700  -27.0100 O.3       1 SER1        0.0000 
     10 OG        -18.4400  -23.1800  -29.1900 O.3       1 SER1        0.0000 
     11 OG        -13.7800  -22.8400  -34.0100 O.3       1 SER1        0.0000 
     12 OG        -20.6000  -21.0800  -25.5200 O.3       1 SER1        0.0000 
     13 OG        -14.9000  -20.4000  -29.3100 O.3       1 SER1        0.0000 
     14 OG        -12.9700  -22.9000  -30.4200 O.3       1 SER1        0.0000 
     15 OG        -11.9100  -23.4900  -31.3000 O.3       1 SER1        0.0000 
     16 OG        -13.8700  -20.0500  -28.2900 O.3       1 SER1        0.0000 
     17 OG        -12.8000  -20.6400  -29.1700 O.3       1 SER1        0.0000 
     18 OG        -13.0000  -21.9800  -28.5200 O.3       1 SER1        0.0000 
     19 OG        -11.9400  -22.5600  -29.4000 O.3       1 SER1        0.0000 
     20 OG        -10.8700  -23.1400  -30.2800 O.3       1 SER1        0.0000 
     21 OG        -14.0900  -20.4600  -25.7300 O.3       1 SER1        0.0000 
     22 OG        -12.8300  -19.7100  -27.2600 O.3       1 SER1        0.0000 
     23 OG        -13.0300  -21.0500  -26.6100 O.3       1 SER1        0.0000 
     24 OG        -11.9600  -21.6300  -27.4900 O.3       1 SER1        0.0000 
     25 OG        -12.1600  -22.9700  -26.8400 O.3       1 SER1        0.0000 
     26 N         -23.5700  -18.9200  -25.4400 N.am      2 ALA2        0.0000 
     27 O         -18.6400  -24.5200  -28.5400 O.2       2 ALA2        0.0000 
     28 OD1       -23.7100  -22.1100  -28.6000 O.co2     3 ASP3        0.0000 
     29 OD1       -22.6500  -22.7000  -29.4800 O.co2     3 ASP3        0.0000 
     30 OD1       -21.3800  -21.9400  -31.0100 O.co2     3 ASP3        0.0000 
     31 OD1       -23.5400  -19.8500  -27.3500 O.co2     3 ASP3        0.0000 
     32 OD1       -22.6700  -21.7700  -27.5800 O.co2     3 ASP3        0.0000 
     33 OD1       -21.6100  -22.3500  -28.4600 O.co2     3 ASP3        0.0000 
     34 OD1       -20.3500  -21.6000  -29.9900 O.co2     3 ASP3        0.0000 
     35 OD1       -19.2800  -22.1800  -30.8700 O.co2     3 ASP3        0.0000 
     36 OD1       -22.5000  -19.5000  -26.3200 O.co2     3 ASP3        0.0000 
     37 OD1       -21.6400  -21.4200  -26.5500 O.co2     3 ASP3        0.0000 
     38 OD1       -19.3100  -21.2600  -28.9600 O.co2     3 ASP3        0.0000 
     39 OD1       -17.3800  -23.7600  -30.0700 O.co2     3 ASP3        0.0000 
     40 OD1       -13.9800  -24.1800  -33.3600 O.co2     3 ASP3        0.0000 
     41 OD1       -15.0800  -22.6600  -30.5700 O.co2     3 ASP3        0.0000 
     42 OD1       -13.6100  -20.5700  -32.7500 O.co2     3 ASP3        0.0000 
     43 OD1       -13.8100  -21.9100  -32.1000 O.co2     3 ASP3        0.0000 
     44 OD1       -14.0100  -23.2500  -31.4500 O.co2     3 ASP3        0.0000 
     45 OD1       -13.6400  -19.6400  -30.8400 O.co2     3 ASP3        0.0000 
     46 OD1       -13.8400  -20.9800  -30.1900 O.co2     3 ASP3        0.0000 
     47 OD1       -12.7700  -21.5700  -31.0700 O.co2     3 ASP3        0.0000 
     48 NZ        -20.5700  -22.0100  -27.4300 N.4       4 LYS4        0.0000 
     49 NZ        -19.5100  -22.5900  -28.3100 N.4       4 LYS4        0.0000 
     50 NZ        -19.5300  -21.6600  -26.4000 N.4       4 LYS4        0.0000 
     51 CA        -21.5800  -23.2800  -30.3600 C.3       5 GLY6        0.0000 
     52 CA        -21.7800  -24.6200  -29.7100 C.3       5 GLY6        0.0000 
     53 CA        -20.5400  -22.9400  -29.3400 C.3       5 GLY6        0.0000 
     54 CA        -20.7400  -24.2800  -28.6900 C.3       5 GLY6        0.0000 
     55 CA        -20.9400  -25.6100  -28.0400 C.3       5 GLY6        0.0000 
     56 CA        -19.4800  -23.5200  -30.2200 C.3       5 GLY6        0.0000 
     57 CA        -19.6800  -24.8600  -29.5700 C.3       5 GLY6        0.0000 
     58 CA        -18.4700  -22.2500  -27.2800 C.3       5 GLY6        0.0000 
     59 CA        -18.6700  -23.5900  -26.6300 C.3       5 GLY6        0.0000 
     60 CA        -12.9500  -23.8300  -32.3300 C.3       5 GLY6        0.0000 
     61 CA        -11.8800  -24.4200  -33.2100 C.3       5 GLY6        0.0000 
     62 CA        -13.1700  -24.2400  -29.7800 C.3       5 GLY6        0.0000 
     63 CA        -12.1100  -24.8300  -30.6500 C.3       5 GLY6        0.0000 
     64 CA        -12.1300  -23.9000  -28.7500 C.3       5 GLY6        0.0000 
     65 CA        -11.1000  -23.5500  -27.7200 C.3       5 GLY6        0.0000 
     66 DU        -22.8400  -24.0400  -28.8300 H         6 CUB7        0.0000 
     67 DU        -22.8700  -23.1100  -26.9300 H         6 CUB7        0.0000 
     68 DU        -12.7500  -22.5000  -32.9800 H         6 CUB7        0.0000 
     69 DU        -11.7400  -21.2200  -30.0500 H         6 CUB7        0.0000 
@<TRIPOS>BOND
@<TRIPOS>SUBSTRUCTURE
     1 SER1        1 GROUP   
     2 ALA2       26 GROUP   
     3 ASP3       28 GROUP   
     4 LYS4       48 GROUP   
     5 GLY6       51 GROUP   
     6 CUB7       66 GROUP   
@<TRIPOS>SET

