#    Name: 6ojz_2_ADP
#    Modification time : Fri May 22 19:32:51 2020

@<TRIPOS>MOLECULE
6ojz_2_ADP
   27    29     1     0     1
SMALL
NO_CHARGES


@<TRIPOS>ATOM
      1 PB         40.8970  -19.0190  -73.6850 P.3       1 ADP401      0.0000 
      2 O1B        39.6520  -18.2420  -74.1790 O.co2     1 ADP401      0.0000 
      3 O2B        41.3660  -18.3700  -72.3830 O.co2     1 ADP401      0.0000 
      4 O3B        40.5760  -20.4740  -73.4700 O.co2     1 ADP401      0.0000 
      5 PA         42.6040  -17.4740  -75.4450 P.3       1 ADP401      0.0000 
      6 O1A        41.7380  -17.0860  -76.6390 O.co2     1 ADP401      0.0000 
      7 O2A        42.4490  -16.4140  -74.3360 O.co2     1 ADP401      0.0000 
      8 O3A        42.0930  -18.9250  -74.8090 O.3       1 ADP401      0.0000 
      9 O5'        44.2090  -17.6120  -75.8990 O.3       1 ADP401      0.0000 
     10 C5'        45.2560  -17.2810  -74.9630 C.3       1 ADP401      0.0000 
     11 C4'        46.3070  -16.3930  -75.6460 C.3       1 ADP401      0.0000 
     12 O4'        47.3440  -17.1020  -76.0980 O.3       1 ADP401      0.0000 
     13 C3'        45.6720  -15.6660  -76.8730 C.3       1 ADP401      0.0000 
     14 O3'        45.5000  -14.3290  -76.6340 O.3       1 ADP401      0.0000 
     15 C2'        46.6500  -15.9180  -78.0590 C.3       1 ADP401      0.0000 
     16 O2'        47.4450  -14.7490  -78.3030 O.3       1 ADP401      0.0000 
     17 C1'        47.4330  -16.9460  -77.7160 C.3       1 ADP401      0.0000 
     18 N9         47.0100  -18.1790  -78.3160 N.pl3     1 ADP401      0.0000 
     19 C8         45.8100  -18.7240  -78.1330 C.2       1 ADP401      0.0000 
     20 N7         45.7580  -19.8680  -78.8110 N.2       1 ADP401      0.0000 
     21 C5         46.9330  -20.0530  -79.4190 C.ar      1 ADP401      0.0000 
     22 C6         47.3640  -21.0910  -80.2310 C.ar      1 ADP401      0.0000 
     23 N6         46.6510  -22.3080  -80.6740 N.pl3     1 ADP401      0.0000 
     24 N1         48.5920  -21.0420  -80.7230 N.ar      1 ADP401      0.0000 
     25 C2         49.4160  -19.9780  -80.4240 C.ar      1 ADP401      0.0000 
     26 N3         48.9780  -18.9750  -79.6250 N.ar      1 ADP401      0.0000 
     27 C4         47.7180  -19.0150  -79.1190 C.ar      1 ADP401      0.0000 
@<TRIPOS>BOND
     1    1    2 ar   
     2    1    3 ar   
     3    1    4 ar   
     4    1    8 1    
     5    5    6 ar   
     6    5    7 ar   
     7    5    8 1    
     8    5    9 1    
     9    9   10 1    
    10   10   11 1    
    11   11   12 1    
    12   11   13 1    
    13   12   17 1    
    14   13   14 1    
    15   13   15 1    
    16   15   16 1    
    17   15   17 1    
    18   17   18 1    
    19   18   19 1    
    20   18   27 1    
    21   19   20 2    
    22   20   21 1    
    23   21   22 ar   
    24   21   27 ar   
    25   22   23 1    
    26   22   24 ar   
    27   24   25 ar   
    28   25   26 ar   
    29   26   27 ar   
@<TRIPOS>SUBSTRUCTURE
     1 ADP401      1 GROUP   
@<TRIPOS>SET
ATOM$ORANGE STATIC     ATOMS   COLORGROUP SYSTEM 
20 10 10 11 11 13 13 15 15 17 17 19 19 21 21 22 22 25 \
25 27 27 

