#    Name: 6ojz_4_ADP
#    Modification time : Fri May 22 19:33:13 2020

@<TRIPOS>MOLECULE
6ojz_4_ADP
   27    29     1     0     1
SMALL
NO_CHARGES


@<TRIPOS>ATOM
      1 PB        -24.1970  -22.5700  -64.9540 P.3       1 ADP401      0.0000 
      2 O1B       -23.0290  -22.1340  -65.8560 O.co2     1 ADP401      0.0000 
      3 O2B       -24.2160  -21.6690  -63.6900 O.co2     1 ADP401      0.0000 
      4 O3B       -23.9690  -24.0120  -64.5860 O.co2     1 ADP401      0.0000 
      5 PA        -26.2990  -21.0010  -66.2820 P.3       1 ADP401      0.0000 
      6 O1A       -25.2000  -19.9140  -66.2800 O.co2     1 ADP401      0.0000 
      7 O2A       -27.4200  -20.6200  -65.3300 O.co2     1 ADP401      0.0000 
      8 O3A       -25.6350  -22.4330  -65.7540 O.3       1 ADP401      0.0000 
      9 O5'       -26.9420  -21.2210  -67.8190 O.3       1 ADP401      0.0000 
     10 C5'       -26.6920  -20.2610  -68.8770 C.3       1 ADP401      0.0000 
     11 C4'       -27.9500  -19.9620  -69.7050 C.3       1 ADP401      0.0000 
     12 O4'       -28.6630  -21.0650  -69.9000 O.3       1 ADP401      0.0000 
     13 C3'       -28.8930  -18.9550  -68.9720 C.3       1 ADP401      0.0000 
     14 O3'       -28.8100  -17.7070  -69.5100 O.3       1 ADP401      0.0000 
     15 C2'       -30.3320  -19.4870  -69.1860 C.3       1 ADP401      0.0000 
     16 O2'       -31.0190  -18.6290  -70.1050 O.3       1 ADP401      0.0000 
     17 C1'       -30.2400  -20.7350  -69.6580 C.3       1 ADP401      0.0000 
     18 N9        -30.7410  -21.6580  -68.6830 N.pl3     1 ADP401      0.0000 
     19 C8        -30.2290  -21.7960  -67.4600 C.2       1 ADP401      0.0000 
     20 N7        -30.9250  -22.7360  -66.8210 N.2       1 ADP401      0.0000 
     21 C5        -31.8790  -23.1980  -67.6430 C.ar      1 ADP401      0.0000 
     22 C6        -32.8520  -24.1790  -67.4510 C.ar      1 ADP401      0.0000 
     23 N6        -33.1550  -25.0310  -66.2800 N.pl3     1 ADP401      0.0000 
     24 N1        -33.6880  -24.4480  -68.4370 N.ar      1 ADP401      0.0000 
     25 C2        -33.5850  -23.7640  -69.6280 C.ar      1 ADP401      0.0000 
     26 N3        -32.6350  -22.8190  -69.8090 N.ar      1 ADP401      0.0000 
     27 C4        -31.7710  -22.5330  -68.7990 C.ar      1 ADP401      0.0000 
@<TRIPOS>BOND
     1    1    2 ar   
     2    1    3 ar   
     3    1    4 ar   
     4    1    8 1    
     5    5    6 ar   
     6    5    7 ar   
     7    5    8 1    
     8    5    9 1    
     9    9   10 1    
    10   10   11 1    
    11   11   12 1    
    12   11   13 1    
    13   12   17 1    
    14   13   14 1    
    15   13   15 1    
    16   15   16 1    
    17   15   17 1    
    18   17   18 1    
    19   18   19 1    
    20   18   27 1    
    21   19   20 2    
    22   20   21 1    
    23   21   22 ar   
    24   21   27 ar   
    25   22   23 1    
    26   22   24 ar   
    27   24   25 ar   
    28   25   26 ar   
    29   26   27 ar   
@<TRIPOS>SUBSTRUCTURE
     1 ADP401      1 GROUP   
@<TRIPOS>SET
ATOM$ORANGE STATIC     ATOMS   COLORGROUP SYSTEM 
20 10 10 11 11 13 13 15 15 17 17 19 19 21 21 22 22 25 \
25 27 27 

