#    Name: 6na6_1_NDP
#    Modification time : Fri May 22 19:39:16 2020

@<TRIPOS>MOLECULE
6na6_1_NDP
   48    52     1     0     1
SMALL
NO_CHARGES


@<TRIPOS>ATOM
      1 PA         -6.2930   17.0690   23.2060 P.3       1 NDP501      0.0000 
      2 O1A        -5.7430   18.4600   23.2980 O.co2     1 NDP501      0.0000 
      3 O2A        -7.7610   17.1980   23.1180 O.co2     1 NDP501      0.0000 
      4 O5B        -5.7160   16.2580   21.8730 O.3       1 NDP501      0.0000 
      5 C5B        -5.7480   16.8840   20.6030 C.3       1 NDP501      0.0000 
      6 C4B        -4.3580   16.7540   19.9290 C.3       1 NDP501      0.0000 
      7 O4B        -4.2780   15.6780   19.2530 O.3       1 NDP501      0.0000 
      8 C3B        -4.2270   17.9480   18.8930 C.3       1 NDP501      0.0000 
      9 O3B        -3.4130   18.9810   19.3540 O.3       1 NDP501      0.0000 
     10 C2B        -3.7280   17.3010   17.6260 C.3       1 NDP501      0.0000 
     11 O2B        -2.4750   18.0080   17.1600 O.3       1 NDP501      0.0000 
     12 C1B        -3.4700   16.0280   17.8790 C.3       1 NDP501      0.0000 
     13 N9A        -3.9470   15.2970   16.7590 N.pl3     1 NDP501      0.0000 
     14 C8A        -5.1820   14.8700   16.5910 C.2       1 NDP501      0.0000 
     15 N7A        -5.2900   14.2510   15.4340 N.2       1 NDP501      0.0000 
     16 C5A        -4.1050   14.2780   14.8220 C.ar      1 NDP501      0.0000 
     17 C6A        -3.6080   13.8000   13.5980 C.ar      1 NDP501      0.0000 
     18 N6A        -4.4690   13.0860   12.6550 N.pl3     1 NDP501      0.0000 
     19 N1A        -2.3250   14.0130   13.2960 N.ar      1 NDP501      0.0000 
     20 C2A        -1.5240   14.6650   14.1320 C.ar      1 NDP501      0.0000 
     21 N3A        -1.9620   15.1220   15.2870 N.ar      1 NDP501      0.0000 
     22 C4A        -3.2460   14.9490   15.6660 C.ar      1 NDP501      0.0000 
     23 O3         -5.8670   16.1770   24.5910 O.3       1 NDP501      0.0000 
     24 PN         -5.5710   14.5360   24.5410 P.3       1 NDP501      0.0000 
     25 O1N        -5.7590   13.9670   25.9710 O.co2     1 NDP501      0.0000 
     26 O2N        -4.1880   14.2960   24.1070 O.co2     1 NDP501      0.0000 
     27 O5D        -6.6230   13.8280   23.3910 O.3       1 NDP501      0.0000 
     28 C5D        -6.6530   12.4340   23.1810 C.3       1 NDP501      0.0000 
     29 C4D        -7.3220   11.8060   24.4620 C.3       1 NDP501      0.0000 
     30 O4D        -6.4160   11.4510   25.2820 O.3       1 NDP501      0.0000 
     31 C3D        -8.1190   10.4950   24.1390 C.3       1 NDP501      0.0000 
     32 O3D        -9.4250   10.7690   24.2570 O.3       1 NDP501      0.0000 
     33 C2D        -7.6490    9.5530   25.2210 C.3       1 NDP501      0.0000 
     34 O2D        -8.2410    9.9630   26.5490 O.3       1 NDP501      0.0000 
     35 C1D        -6.3760    9.8360   25.1900 C.3       1 NDP501      0.0000 
     36 N1N        -5.6500    9.3580   26.3110 N.pl3     1 NDP501      0.0000 
     37 C2N        -5.4110   10.2380   27.2710 C.2       1 NDP501      0.0000 
     38 C3N        -4.7160    9.8320   28.3650 C.2       1 NDP501      0.0000 
     39 C7N        -4.4830   10.8950   29.4440 C.2       1 NDP501      0.0000 
     40 O7N        -4.2360   10.5750   30.5400 O.2       1 NDP501      0.0000 
     41 N7N        -4.5930   12.2620   29.0530 N.am      1 NDP501      0.0000 
     42 C4N        -4.2310    8.5430   28.4930 C.3       1 NDP501      0.0000 
     43 C5N        -4.5040    7.6580   27.4590 C.2       1 NDP501      0.0000 
     44 C6N        -5.2270    8.1170   26.3710 C.2       1 NDP501      0.0000 
     45 P2B        -2.5820   19.2200   15.9550 P.3       1 NDP501      0.0000 
     46 O1X        -3.7970   19.0640   15.1180 O.co2     1 NDP501      0.0000 
     47 O2X        -1.3220   19.0630   15.1040 O.co2     1 NDP501      0.0000 
     48 O3X        -2.5570   20.5630   16.6350 O.co2     1 NDP501      0.0000 
@<TRIPOS>BOND
     1    1    2 ar   
     2    1    3 ar   
     3    1    4 1    
     4    1   23 1    
     5    4    5 1    
     6    5    6 1    
     7    6    7 1    
     8    6    8 1    
     9    7   12 1    
    10    8    9 1    
    11    8   10 1    
    12   10   11 1    
    13   10   12 1    
    14   11   45 1    
    15   12   13 1    
    16   13   14 1    
    17   13   22 1    
    18   14   15 2    
    19   15   16 1    
    20   16   17 ar   
    21   16   22 ar   
    22   17   18 1    
    23   17   19 ar   
    24   19   20 ar   
    25   20   21 ar   
    26   21   22 ar   
    27   23   24 1    
    28   24   25 ar   
    29   24   26 ar   
    30   24   27 1    
    31   27   28 1    
    32   28   29 1    
    33   29   30 1    
    34   29   31 1    
    35   30   35 1    
    36   31   32 1    
    37   31   33 1    
    38   33   34 1    
    39   33   35 1    
    40   35   36 1    
    41   36   37 1    
    42   36   44 1    
    43   37   38 2    
    44   38   39 1    
    45   38   42 1    
    46   39   40 2    
    47   39   41 am   
    48   42   43 1    
    49   43   44 2    
    50   45   46 ar   
    51   45   47 ar   
    52   45   48 ar   
@<TRIPOS>SUBSTRUCTURE
     1 NDP501      1 GROUP   
@<TRIPOS>SET
ATOM$ORANGE STATIC     ATOMS   COLORGROUP SYSTEM 
42 5 5 6 6 8 8 10 10 12 12 14 14 16 16 17 17 20 \
20 22 22 28 28 29 29 31 31 33 33 35 35 37 37 38 38 39 \
39 42 42 43 43 44 44 

