#    Name: 6na6_2_NDP
#    Modification time : Fri May 22 19:39:24 2020

@<TRIPOS>MOLECULE
6na6_2_NDP
   48    52     1     0     1
SMALL
NO_CHARGES


@<TRIPOS>ATOM
      1 PA         39.4430   18.6470   42.4940 P.3       1 NDP501      0.0000 
      2 O1A        38.9570   19.4620   41.3320 O.co2     1 NDP501      0.0000 
      3 O2A        40.8350   18.9870   42.8720 O.co2     1 NDP501      0.0000 
      4 O5B        38.4610   18.8990   43.7850 O.3       1 NDP501      0.0000 
      5 C5B        37.8490   17.7240   44.3080 C.3       1 NDP501      0.0000 
      6 C4B        36.9480   18.1310   45.4940 C.3       1 NDP501      0.0000 
      7 O4B        36.8610   17.1440   46.2520 O.3       1 NDP501      0.0000 
      8 C3B        37.6630   19.1610   46.4440 C.3       1 NDP501      0.0000 
      9 O3B        37.5580   20.4220   45.9200 O.3       1 NDP501      0.0000 
     10 C2B        36.8560   19.0150   47.7070 C.3       1 NDP501      0.0000 
     11 O2B        35.7240   20.0580   47.7840 O.3       1 NDP501      0.0000 
     12 C1B        36.3760   17.7770   47.6510 C.3       1 NDP501      0.0000 
     13 N9A        36.9350   17.1010   48.7320 N.pl3     1 NDP501      0.0000 
     14 C8A        38.2070   16.8830   48.9560 C.2       1 NDP501      0.0000 
     15 N7A        38.3370   16.2730   50.1060 N.2       1 NDP501      0.0000 
     16 C5A        37.1230   16.0850   50.6280 C.ar      1 NDP501      0.0000 
     17 C6A        36.6200   15.5050   51.7900 C.ar      1 NDP501      0.0000 
     18 N6A        37.5030   14.9100   52.7820 N.pl3     1 NDP501      0.0000 
     19 N1A        35.3130   15.5170   51.9750 N.ar      1 NDP501      0.0000 
     20 C2A        34.4950   16.0560   51.0920 C.ar      1 NDP501      0.0000 
     21 N3A        34.9250   16.6070   49.9950 N.ar      1 NDP501      0.0000 
     22 C4A        36.2320   16.6230   49.7410 C.ar      1 NDP501      0.0000 
     23 O3         39.3170   17.0050   42.1100 O.3       1 NDP501      0.0000 
     24 PN         38.2270   16.4070   40.9830 P.3       1 NDP501      0.0000 
     25 O1N        38.6740   16.8430   39.5660 O.co2     1 NDP501      0.0000 
     26 O2N        36.8440   16.8740   41.2300 O.co2     1 NDP501      0.0000 
     27 O5D        38.2240   14.7030   41.0750 O.3       1 NDP501      0.0000 
     28 C5D        38.3950   13.9750   42.2740 C.3       1 NDP501      0.0000 
     29 C4D        38.8180   12.5510   41.7270 C.3       1 NDP501      0.0000 
     30 O4D        39.1650   11.7620   42.6640 O.3       1 NDP501      0.0000 
     31 C3D        40.0890   12.7300   40.8300 C.3       1 NDP501      0.0000 
     32 O3D        39.7720   12.4300   39.5580 O.3       1 NDP501      0.0000 
     33 C2D        41.1070   11.7610   41.3950 C.3       1 NDP501      0.0000 
     34 O2D        40.9650   10.4330   40.6870 O.3       1 NDP501      0.0000 
     35 C1D        40.7840   11.7210   42.6730 C.3       1 NDP501      0.0000 
     36 N1N        41.2780   10.5780   43.3710 N.pl3     1 NDP501      0.0000 
     37 C2N        42.5150   10.6480   43.8540 C.2       1 NDP501      0.0000 
     38 C3N        43.0390    9.5760   44.5320 C.2       1 NDP501      0.0000 
     39 C7N        44.4890    9.7050   45.0760 C.2       1 NDP501      0.0000 
     40 O7N        44.7290   10.5260   45.8880 O.2       1 NDP501      0.0000 
     41 N7N        45.5140    8.8380   44.5820 N.am      1 NDP501      0.0000 
     42 C4N        42.2840    8.4250   44.7300 C.3       1 NDP501      0.0000 
     43 C5N        40.9830    8.3900   44.2080 C.2       1 NDP501      0.0000 
     44 C6N        40.5330    9.5080   43.5350 C.2       1 NDP501      0.0000 
     45 P2B        35.6300   21.2470   49.0180 P.3       1 NDP501      0.0000 
     46 O1X        36.9190   21.3980   49.7180 O.co2     1 NDP501      0.0000 
     47 O2X        34.5350   20.8180   49.9770 O.co2     1 NDP501      0.0000 
     48 O3X        35.2780   22.6270   48.4940 O.co2     1 NDP501      0.0000 
@<TRIPOS>BOND
     1    1    2 ar   
     2    1    3 ar   
     3    1    4 1    
     4    1   23 1    
     5    4    5 1    
     6    5    6 1    
     7    6    7 1    
     8    6    8 1    
     9    7   12 1    
    10    8    9 1    
    11    8   10 1    
    12   10   11 1    
    13   10   12 1    
    14   11   45 1    
    15   12   13 1    
    16   13   14 1    
    17   13   22 1    
    18   14   15 2    
    19   15   16 1    
    20   16   17 ar   
    21   16   22 ar   
    22   17   18 1    
    23   17   19 ar   
    24   19   20 ar   
    25   20   21 ar   
    26   21   22 ar   
    27   23   24 1    
    28   24   25 ar   
    29   24   26 ar   
    30   24   27 1    
    31   27   28 1    
    32   28   29 1    
    33   29   30 1    
    34   29   31 1    
    35   30   35 1    
    36   31   32 1    
    37   31   33 1    
    38   33   34 1    
    39   33   35 1    
    40   35   36 1    
    41   36   37 1    
    42   36   44 1    
    43   37   38 2    
    44   38   39 1    
    45   38   42 1    
    46   39   40 2    
    47   39   41 am   
    48   42   43 1    
    49   43   44 2    
    50   45   46 ar   
    51   45   47 ar   
    52   45   48 ar   
@<TRIPOS>SUBSTRUCTURE
     1 NDP501      1 GROUP   
@<TRIPOS>SET
ATOM$ORANGE STATIC     ATOMS   COLORGROUP SYSTEM 
42 5 5 6 6 8 8 10 10 12 12 14 14 16 16 17 17 20 \
20 22 22 28 28 29 29 31 31 33 33 35 35 37 37 38 38 39 \
39 42 42 43 43 44 44 

