#    Name: 6na6_1_NDP_CAVITY_N1_4
#    Modification time : Fri May 22 19:39:17 2020

@<TRIPOS>MOLECULE
6na6_1_NDP_CAVITY_N1_4
   84     0     5     0     0
SMALL
NO_CHARGES


@<TRIPOS>ATOM
      1 OG         -8.2100    9.3200   21.3300 O.3       1 SER1        0.0000 
      2 OG         -8.2100   11.8700   21.8000 O.3       1 SER1        0.0000 
      3 OG         -8.3600   10.8000   22.8400 O.3       1 SER1        0.0000 
      4 OG         -7.0800   13.6600   21.6400 O.3       1 SER1        0.0000 
      5 OG         -7.2400   12.5900   22.6800 O.3       1 SER1        0.0000 
      6 OG         -6.2600   10.7600   23.1000 O.3       1 SER1        0.0000 
      7 OG         -5.1300   12.5500   22.9400 O.3       1 SER1        0.0000 
      8 OG         -4.0000   14.3400   22.7900 O.3       1 SER1        0.0000 
      9 OG         -4.9200   10.4700   29.4900 O.3       1 SER1        0.0000 
     10 O          -7.2300    7.4800   21.7400 O.2       2 ALA2        0.0000 
     11 O          -6.5600    6.0600   24.7100 O.2       2 ALA2        0.0000 
     12 O          -6.7100    4.9900   25.7500 O.2       2 ALA2        0.0000 
     13 O         -10.2600    8.7700   29.1200 O.2       2 ALA2        0.0000 
     14 O          -9.1300    8.0000   28.5000 O.2       2 ALA2        0.0000 
     15 N          -5.5900    6.7800   25.5900 N.am      2 ALA2        0.0000 
     16 N          -5.7400    5.7100   26.6300 N.am      2 ALA2        0.0000 
     17 N          -5.7400    8.2600   27.1000 N.am      2 ALA2        0.0000 
     18 N          -4.7600    6.4300   27.5100 N.am      2 ALA2        0.0000 
     19 N          -3.4800    9.2900   26.3200 N.am      2 ALA2        0.0000 
     20 N          -3.6400    8.2200   27.3600 N.am      2 ALA2        0.0000 
     21 N          -3.7900    7.1400   28.4000 N.am      2 ALA2        0.0000 
     22 O          -4.1600   15.8200   24.3000 O.2       2 ALA2        0.0000 
     23 O          -4.3100   14.7500   25.3400 O.2       2 ALA2        0.0000 
     24 CZ        -10.6200    7.2200   23.1500 C.ar      3 PHE5        0.0000 
     25 CZ         -9.6400    7.9400   24.0300 C.ar      3 PHE5        0.0000 
     26 CZ         -9.7900    6.8700   25.0700 C.ar      3 PHE5        0.0000 
     27 CZ         -7.3800    6.4100   22.7800 C.ar      3 PHE5        0.0000 
     28 CZ        -11.2300    8.0500   28.2400 C.ar      3 PHE5        0.0000 
     29 CZ         -9.4900   11.5700   23.4600 C.ar      3 PHE5        0.0000 
     30 CZ         -9.9500    8.3500   26.5800 C.ar      3 PHE5        0.0000 
     31 CZ        -10.1000    7.2800   27.6200 C.ar      3 PHE5        0.0000 
     32 CZ         -8.6700    8.6600   24.9100 C.ar      3 PHE5        0.0000 
     33 CZ         -8.8200    7.5900   25.9500 C.ar      3 PHE5        0.0000 
     34 CZ         -8.5200   12.2900   24.3400 C.ar      3 PHE5        0.0000 
     35 CZ         -8.9700    9.0700   27.4600 C.ar      3 PHE5        0.0000 
     36 CZ         -8.0000    7.2400   27.8800 C.ar      3 PHE5        0.0000 
     37 CZ         -6.8700    6.4700   27.2500 C.ar      3 PHE5        0.0000 
     38 CZ         -7.0200    5.4000   28.2900 C.ar      3 PHE5        0.0000 
     39 CZ         -7.2400   15.1500   23.1500 C.ar      3 PHE5        0.0000 
     40 CZ         -7.3900   14.0800   24.1900 C.ar      3 PHE5        0.0000 
     41 CZ         -8.1500    8.7200   29.3800 C.ar      3 PHE5        0.0000 
     42 CZ         -6.8700    9.0300   27.7200 C.ar      3 PHE5        0.0000 
     43 CZ         -5.8900    7.1900   28.1400 C.ar      3 PHE5        0.0000 
     44 CZ         -5.8900    9.7500   28.6100 C.ar      3 PHE5        0.0000 
     45 CZ         -4.7600    8.9800   27.9800 C.ar      3 PHE5        0.0000 
     46 CA         -7.3900    8.9700   23.2500 C.3       4 GLY6        0.0000 
     47 CA         -6.2600    8.2000   22.6300 C.3       4 GLY6        0.0000 
     48 CA         -6.4100    7.1300   23.6700 C.3       4 GLY6        0.0000 
     49 CA         -6.4100    9.6900   24.1400 C.3       4 GLY6        0.0000 
     50 CA         -6.5600    8.6100   25.1800 C.3       4 GLY6        0.0000 
     51 CA         -5.2800   11.4800   23.9800 C.3       4 GLY6        0.0000 
     52 CA         -5.4400   10.4000   25.0200 C.3       4 GLY6        0.0000 
     53 CA         -5.5900    9.3300   26.0600 C.3       4 GLY6        0.0000 
     54 CA         -4.1500   10.7100   23.3600 C.3       4 GLY6        0.0000 
     55 CA         -4.4600    8.5700   25.4400 C.3       4 GLY6        0.0000 
     56 CA         -7.0200   10.5100   29.2300 C.3       4 GLY6        0.0000 
     57 CA         -5.4400   12.9600   25.4900 C.3       4 GLY6        0.0000 
     58 CA         -4.1600   13.2700   23.8300 C.3       4 GLY6        0.0000 
     59 CA         -4.3100   12.1900   24.8700 C.3       4 GLY6        0.0000 
     60 CA         -4.4600   11.1200   25.9100 C.3       4 GLY6        0.0000 
     61 CA         -3.3300   10.3600   25.2800 C.3       4 GLY6        0.0000 
     62 CA         -6.0500   11.2300   30.1100 C.3       4 GLY6        0.0000 
     63 CA         -4.7700   11.5400   28.4500 C.3       4 GLY6        0.0000 
     64 CA         -3.6400   10.7700   27.8300 C.3       4 GLY6        0.0000 
     65 CA         -3.7900    9.7000   28.8700 C.3       4 GLY6        0.0000 
     66 DU         -8.3600    8.2500   22.3700 H         5 CUB7        0.0000 
     67 DU         -8.5100    7.1800   23.4100 H         5 CUB7        0.0000 
     68 DU         -8.6700    6.1000   24.4500 H         5 CUB7        0.0000 
     69 DU         -8.9700    6.5200   26.9900 H         5 CUB7        0.0000 
     70 DU         -7.5400    7.9000   24.2900 H         5 CUB7        0.0000 
     71 DU         -7.6900    6.8200   25.3300 H         5 CUB7        0.0000 
     72 DU         -7.8400    5.7500   26.3700 H         5 CUB7        0.0000 
     73 DU         -7.3900   11.5200   23.7200 H         5 CUB7        0.0000 
     74 DU         -7.5400   10.4500   24.7600 H         5 CUB7        0.0000 
     75 DU         -7.6900    9.3800   25.8000 H         5 CUB7        0.0000 
     76 DU         -7.8400    8.3100   26.8400 H         5 CUB7        0.0000 
     77 DU         -6.7200    7.5400   26.2100 H         5 CUB7        0.0000 
     78 DU         -6.1100   14.3800   22.5300 H         5 CUB7        0.0000 
     79 DU         -6.2600   13.3100   23.5700 H         5 CUB7        0.0000 
     80 DU         -6.4100   12.2400   24.6100 H         5 CUB7        0.0000 
     81 DU         -6.4100   14.8000   25.0700 H         5 CUB7        0.0000 
     82 DU         -5.1300   15.1000   23.4100 H         5 CUB7        0.0000 
     83 DU         -5.2900   14.0300   24.4500 H         5 CUB7        0.0000 
     84 DU         -4.6100   10.0500   26.9400 H         5 CUB7        0.0000 
@<TRIPOS>BOND
@<TRIPOS>SUBSTRUCTURE
     1 SER1        1 GROUP   
     2 ALA2       10 GROUP   
     3 PHE5       24 GROUP   
     4 GLY6       46 GROUP   
     5 CUB7       66 GROUP   
@<TRIPOS>SET

