#    Name: 6na6_4_NDP
#    Modification time : Fri May 22 19:39:41 2020

@<TRIPOS>MOLECULE
6na6_4_NDP
   48    52     1     0     1
SMALL
NO_CHARGES


@<TRIPOS>ATOM
      1 PA         20.9620  -18.6210   57.9650 P.3       1 NDP501      0.0000 
      2 O1A        21.1650  -19.8600   58.7470 O.co2     1 NDP501      0.0000 
      3 O2A        21.3160  -17.4980   58.8610 O.co2     1 NDP501      0.0000 
      4 O5B        22.0650  -18.6160   56.7180 O.3       1 NDP501      0.0000 
      5 C5B        23.1950  -17.7520   56.8540 C.3       1 NDP501      0.0000 
      6 C4B        24.4300  -18.3970   56.1880 C.3       1 NDP501      0.0000 
      7 O4B        25.4050  -17.5860   56.1210 O.3       1 NDP501      0.0000 
      8 C3B        24.9190  -19.5550   57.1330 C.3       1 NDP501      0.0000 
      9 O3B        24.5870  -20.7700   56.5710 O.3       1 NDP501      0.0000 
     10 C2B        26.4050  -19.3270   57.2770 C.3       1 NDP501      0.0000 
     11 O2B        27.1410  -20.6850   57.3920 O.3       1 NDP501      0.0000 
     12 C1B        26.7240  -18.5160   56.2770 C.3       1 NDP501      0.0000 
     13 N9A        27.9120  -17.7360   56.4530 N.pl3     1 NDP501      0.0000 
     14 C8A        28.8530  -17.6070   55.5290 C.2       1 NDP501      0.0000 
     15 N7A        29.8390  -16.8390   55.9460 N.2       1 NDP501      0.0000 
     16 C5A        29.5580  -16.4650   57.1760 C.ar      1 NDP501      0.0000 
     17 C6A        30.2360  -15.6710   58.0980 C.ar      1 NDP501      0.0000 
     18 N6A        31.5210  -15.0790   57.7330 N.pl3     1 NDP501      0.0000 
     19 N1A        29.6810  -15.4620   59.2820 N.ar      1 NDP501      0.0000 
     20 C2A        28.5010  -16.0060   59.5640 C.ar      1 NDP501      0.0000 
     21 N3A        27.8330  -16.7670   58.7120 N.ar      1 NDP501      0.0000 
     22 C4A        28.3310  -17.0200   57.5060 C.ar      1 NDP501      0.0000 
     23 O3         19.3500  -18.4040   57.4730 O.3       1 NDP501      0.0000 
     24 PN         18.9670  -17.0000   56.6490 P.3       1 NDP501      0.0000 
     25 O1N        17.9000  -16.1150   57.3320 O.co2     1 NDP501      0.0000 
     26 O2N        18.6290  -17.3140   55.2540 O.co2     1 NDP501      0.0000 
     27 O5D        20.4750  -16.2880   56.7090 O.3       1 NDP501      0.0000 
     28 C5D        20.8410  -15.3980   55.7190 C.3       1 NDP501      0.0000 
     29 C4D        20.5530  -14.2050   56.6450 C.3       1 NDP501      0.0000 
     30 O4D        19.2870  -14.0320   56.6080 O.3       1 NDP501      0.0000 
     31 C3D        21.2070  -12.9410   56.0400 C.3       1 NDP501      0.0000 
     32 O3D        22.0360  -12.4100   56.9600 O.3       1 NDP501      0.0000 
     33 C2D        19.9660  -12.1180   55.7940 C.3       1 NDP501      0.0000 
     34 O2D        19.3750  -11.6000   57.0720 O.3       1 NDP501      0.0000 
     35 C1D        19.1360  -12.9840   55.3890 C.3       1 NDP501      0.0000 
     36 N1N        17.8410  -12.4420   55.1880 N.pl3     1 NDP501      0.0000 
     37 C2N        17.6380  -11.1470   54.9020 C.2       1 NDP501      0.0000 
     38 C3N        16.3520  -10.7330   54.6740 C.2       1 NDP501      0.0000 
     39 C7N        15.9950   -9.2560   54.3570 C.2       1 NDP501      0.0000 
     40 O7N        14.8610   -8.9450   54.3680 O.2       1 NDP501      0.0000 
     41 N7N        17.0150   -8.3040   54.0340 N.am      1 NDP501      0.0000 
     42 C4N        15.3170  -11.6420   54.6980 C.3       1 NDP501      0.0000 
     43 C5N        15.6160  -12.9650   54.9690 C.2       1 NDP501      0.0000 
     44 C6N        16.9000  -13.3290   55.2080 C.2       1 NDP501      0.0000 
     45 P2B        27.9010  -21.5200   56.0900 P.3       1 NDP501      0.0000 
     46 O1X        27.2010  -21.2230   54.8310 O.co2     1 NDP501      0.0000 
     47 O2X        27.8400  -23.0060   56.2930 O.co2     1 NDP501      0.0000 
     48 O3X        29.3550  -21.1130   56.0100 O.co2     1 NDP501      0.0000 
@<TRIPOS>BOND
     1    1    2 ar   
     2    1    3 ar   
     3    1    4 1    
     4    1   23 1    
     5    4    5 1    
     6    5    6 1    
     7    6    7 1    
     8    6    8 1    
     9    7   12 1    
    10    8    9 1    
    11    8   10 1    
    12   10   11 1    
    13   10   12 1    
    14   11   45 1    
    15   12   13 1    
    16   13   14 1    
    17   13   22 1    
    18   14   15 2    
    19   15   16 1    
    20   16   17 ar   
    21   16   22 ar   
    22   17   18 1    
    23   17   19 ar   
    24   19   20 ar   
    25   20   21 ar   
    26   21   22 ar   
    27   23   24 1    
    28   24   25 ar   
    29   24   26 ar   
    30   24   27 1    
    31   27   28 1    
    32   28   29 1    
    33   29   30 1    
    34   29   31 1    
    35   30   35 1    
    36   31   32 1    
    37   31   33 1    
    38   33   34 1    
    39   33   35 1    
    40   35   36 1    
    41   36   37 1    
    42   36   44 1    
    43   37   38 2    
    44   38   39 1    
    45   38   42 1    
    46   39   40 2    
    47   39   41 am   
    48   42   43 1    
    49   43   44 2    
    50   45   46 ar   
    51   45   47 ar   
    52   45   48 ar   
@<TRIPOS>SUBSTRUCTURE
     1 NDP501      1 GROUP   
@<TRIPOS>SET
ATOM$ORANGE STATIC     ATOMS   COLORGROUP SYSTEM 
42 5 5 6 6 8 8 10 10 12 12 14 14 16 16 17 17 20 \
20 22 22 28 28 29 29 31 31 33 33 35 35 37 37 38 38 39 \
39 42 42 43 43 44 44 

