#    Name: 6na6_3_NDP
#    Modification time : Fri May 22 19:39:32 2020

@<TRIPOS>MOLECULE
6na6_3_NDP
   48    52     1     0     1
SMALL
NO_CHARGES


@<TRIPOS>ATOM
      1 PA         14.2220  -20.6680    9.2980 P.3       1 NDP501      0.0000 
      2 O1A        14.4500  -22.1430    9.1760 O.co2     1 NDP501      0.0000 
      3 O2A        13.9670  -20.0960    7.9740 O.co2     1 NDP501      0.0000 
      4 O5B        12.9580  -20.3200   10.3120 O.3       1 NDP501      0.0000 
      5 C5B        11.9550  -19.3630   10.0340 C.3       1 NDP501      0.0000 
      6 C4B        10.7150  -19.9790   10.7230 C.3       1 NDP501      0.0000 
      7 O4B         9.7240  -19.2080   10.8510 O.3       1 NDP501      0.0000 
      8 C3B        10.2790  -21.1130    9.7470 C.3       1 NDP501      0.0000 
      9 O3B        10.9140  -22.2550   10.1910 O.3       1 NDP501      0.0000 
     10 C2B         8.8090  -21.2200    9.9520 C.3       1 NDP501      0.0000 
     11 O2B         8.6970  -22.4330   10.8730 O.3       1 NDP501      0.0000 
     12 C1B         8.4040  -20.0880   10.5190 C.3       1 NDP501      0.0000 
     13 N9A         7.5670  -19.3550    9.6470 N.pl3     1 NDP501      0.0000 
     14 C8A         7.8170  -19.1020    8.3890 C.2       1 NDP501      0.0000 
     15 N7A         6.8330  -18.4050    7.8720 N.2       1 NDP501      0.0000 
     16 C5A         5.9150  -18.1990    8.8080 C.ar      1 NDP501      0.0000 
     17 C6A         4.6790  -17.5500    8.8420 C.ar      1 NDP501      0.0000 
     18 N6A         4.1470  -16.8960    7.6440 N.pl3     1 NDP501      0.0000 
     19 N1A         4.0070  -17.5360    9.9830 N.ar      1 NDP501      0.0000 
     20 C2A         4.4800  -18.1180   11.0690 C.ar      1 NDP501      0.0000 
     21 N3A         5.6390  -18.7310   11.0710 N.ar      1 NDP501      0.0000 
     22 C4A         6.3850  -18.7980    9.9490 C.ar      1 NDP501      0.0000 
     23 O3         15.5430  -20.0250   10.0930 O.3       1 NDP501      0.0000 
     24 PN         15.6260  -18.4010   10.4050 P.3       1 NDP501      0.0000 
     25 O1N        17.0420  -18.0900    9.8410 O.co2     1 NDP501      0.0000 
     26 O2N        15.4920  -18.2010   11.8610 O.co2     1 NDP501      0.0000 
     27 O5D        14.3740  -17.5830    9.5990 O.3       1 NDP501      0.0000 
     28 C5D        13.7300  -16.4590   10.1580 C.3       1 NDP501      0.0000 
     29 C4D        14.6880  -15.2860    9.8110 C.3       1 NDP501      0.0000 
     30 O4D        15.1600  -14.9000   10.9170 O.3       1 NDP501      0.0000 
     31 C3D        14.0230  -13.9640    9.3070 C.3       1 NDP501      0.0000 
     32 O3D        13.4910  -13.9550    8.0680 O.3       1 NDP501      0.0000 
     33 C2D        15.2520  -13.0800    9.3900 C.3       1 NDP501      0.0000 
     34 O2D        16.1710  -13.3990    8.2510 O.3       1 NDP501      0.0000 
     35 C1D        15.6340  -13.3730   10.6250 C.3       1 NDP501      0.0000 
     36 N1N        16.9590  -13.1590   11.1040 N.pl3     1 NDP501      0.0000 
     37 C2N        17.2870  -11.9300   11.5110 C.2       1 NDP501      0.0000 
     38 C3N        18.5340  -11.6710   12.0430 C.2       1 NDP501      0.0000 
     39 C7N        18.8650  -10.2160   12.4880 C.2       1 NDP501      0.0000 
     40 O7N        19.9150   -9.9340   12.9390 O.2       1 NDP501      0.0000 
     41 N7N        17.8390   -9.2300   12.3910 N.am      1 NDP501      0.0000 
     42 C4N        19.4470  -12.7050   12.2000 C.3       1 NDP501      0.0000 
     43 C5N        19.0280  -13.9820   11.7960 C.2       1 NDP501      0.0000 
     44 C6N        17.7650  -14.1770   11.2700 C.2       1 NDP501      0.0000 
     45 P2B         7.2870  -23.4290   10.7650 P.3       1 NDP501      0.0000 
     46 O1X         7.6310  -24.8460   11.0450 O.co2     1 NDP501      0.0000 
     47 O2X         6.7470  -23.2390    9.3470 O.co2     1 NDP501      0.0000 
     48 O3X         6.2770  -23.0360   11.8420 O.co2     1 NDP501      0.0000 
@<TRIPOS>BOND
     1    1    2 ar   
     2    1    3 ar   
     3    1    4 1    
     4    1   23 1    
     5    4    5 1    
     6    5    6 1    
     7    6    7 1    
     8    6    8 1    
     9    7   12 1    
    10    8    9 1    
    11    8   10 1    
    12   10   11 1    
    13   10   12 1    
    14   11   45 1    
    15   12   13 1    
    16   13   14 1    
    17   13   22 1    
    18   14   15 2    
    19   15   16 1    
    20   16   17 ar   
    21   16   22 ar   
    22   17   18 1    
    23   17   19 ar   
    24   19   20 ar   
    25   20   21 ar   
    26   21   22 ar   
    27   23   24 1    
    28   24   25 ar   
    29   24   26 ar   
    30   24   27 1    
    31   27   28 1    
    32   28   29 1    
    33   29   30 1    
    34   29   31 1    
    35   30   35 1    
    36   31   32 1    
    37   31   33 1    
    38   33   34 1    
    39   33   35 1    
    40   35   36 1    
    41   36   37 1    
    42   36   44 1    
    43   37   38 2    
    44   38   39 1    
    45   38   42 1    
    46   39   40 2    
    47   39   41 am   
    48   42   43 1    
    49   43   44 2    
    50   45   46 ar   
    51   45   47 ar   
    52   45   48 ar   
@<TRIPOS>SUBSTRUCTURE
     1 NDP501      1 GROUP   
@<TRIPOS>SET
ATOM$ORANGE STATIC     ATOMS   COLORGROUP SYSTEM 
42 5 5 6 6 8 8 10 10 12 12 14 14 16 16 17 17 20 \
20 22 22 28 28 29 29 31 31 33 33 35 35 37 37 38 38 39 \
39 42 42 43 43 44 44 

