#    Name: 5xdx_5_CHD_CAVITY_N1_12
#    Modification time : Fri May 22 19:13:02 2020

@<TRIPOS>MOLECULE
5xdx_5_CHD_CAVITY_N1_12
   72     0     7     0     0
SMALL
NO_CHARGES


@<TRIPOS>ATOM
      1 OG        114.7100  335.5600  200.9400 O.3       1 SER1        0.0000 
      2 OG        115.4300  334.7300  199.9100 O.3       1 SER1        0.0000 
      3 OG        115.9000  334.6900  202.4700 O.3       1 SER1        0.0000 
      4 N         110.5300  335.3400  202.5800 N.am      2 ALA2        0.0000 
      5 N         111.8400  335.6800  203.2300 N.am      2 ALA2        0.0000 
      6 N         111.7100  334.4700  204.1100 N.am      2 ALA2        0.0000 
      7 N         111.5900  333.2700  205.0000 N.am      2 ALA2        0.0000 
      8 O         111.4600  332.0600  205.8800 O.2       2 ALA2        0.0000 
      9 N         112.5600  334.8500  202.2000 N.am      2 ALA2        0.0000 
     10 N         112.4300  333.6400  203.0900 N.am      2 ALA2        0.0000 
     11 O         112.0600  336.4300  209.3600 O.2       2 ALA2        0.0000 
     12 N         114.6700  330.7100  207.0400 N.am      2 ALA2        0.0000 
     13 O         115.3900  333.0800  207.8200 O.2       2 ALA2        0.0000 
     14 O         116.7100  333.4100  208.4700 O.2       2 ALA2        0.0000 
     15 OD1       111.0900  331.6500  210.3500 O.co2     3 ASP3        0.0000 
     16 OD1       111.8100  334.0200  211.1300 O.co2     3 ASP3        0.0000 
     17 OD1       112.4000  331.9900  210.9900 O.co2     3 ASP3        0.0000 
     18 NZ        116.3600  334.6600  205.0200 N.4       4 LYS4        0.0000 
     19 NZ        116.2400  333.4500  205.9100 N.4       4 LYS4        0.0000 
     20 NZ        117.2100  335.0300  203.1100 N.4       4 LYS4        0.0000 
     21 NZ        116.8300  334.6200  207.5800 N.4       4 LYS4        0.0000 
     22 CZ        113.2700  334.0200  201.1800 C.ar      5 PHE5        0.0000 
     23 CZ        113.1500  332.8200  202.0600 C.ar      5 PHE5        0.0000 
     24 CZ        111.8000  330.8200  209.3200 C.ar      5 PHE5        0.0000 
     25 CZ        112.6500  331.2000  207.4100 C.ar      5 PHE5        0.0000 
     26 CZ        113.6200  332.7800  204.6200 C.ar      5 PHE5        0.0000 
     27 CZ        113.4900  331.5700  205.5000 C.ar      5 PHE5        0.0000 
     28 CZ        114.5800  334.3600  201.8200 C.ar      5 PHE5        0.0000 
     29 CZ        114.4600  333.1500  202.7100 C.ar      5 PHE5        0.0000 
     30 CZ        114.3300  331.9500  203.5900 C.ar      5 PHE5        0.0000 
     31 CZ        115.7700  333.4900  203.3500 C.ar      5 PHE5        0.0000 
     32 CZ        115.6400  332.2900  204.2400 C.ar      5 PHE5        0.0000 
     33 CZ        116.6100  333.8700  201.4500 C.ar      5 PHE5        0.0000 
     34 CA        110.1500  334.9200  207.0500 C.3       6 GLY6        0.0000 
     35 CA        111.0000  335.3000  205.1400 C.3       6 GLY6        0.0000 
     36 CA        110.8700  334.1000  206.0200 C.3       6 GLY6        0.0000 
     37 CA        110.6200  331.6900  207.7900 C.3       6 GLY6        0.0000 
     38 CA        112.3000  332.4400  203.9700 C.3       6 GLY6        0.0000 
     39 CA        112.1800  331.2400  204.8600 C.3       6 GLY6        0.0000 
     40 CA        113.1100  331.1600  209.9700 C.3       6 GLY6        0.0000 
     41 CA        113.9600  331.5300  208.0600 C.3       6 GLY6        0.0000 
     42 CA        113.8300  330.3300  208.9500 C.3       6 GLY6        0.0000 
     43 CA        114.8000  331.9100  206.1500 C.3       6 GLY6        0.0000 
     44 CA        114.5500  332.7000  209.7300 C.3       6 GLY6        0.0000 
     45 CA        115.2700  331.8700  208.7100 C.3       6 GLY6        0.0000 
     46 CA        116.1100  332.2500  206.8000 C.3       6 GLY6        0.0000 
     47 CA        116.9600  332.6200  204.8900 C.3       6 GLY6        0.0000 
     48 CA        115.4000  336.2700  209.6300 C.3       6 GLY6        0.0000 
     49 CA        115.9900  334.2400  209.4900 C.3       6 GLY6        0.0000 
     50 DU        112.6800  336.0500  201.3200 H         7 CUB7        0.0000 
     51 DU        111.3400  334.0600  208.5800 H         7 CUB7        0.0000 
     52 DU        111.2100  332.8500  209.4600 H         7 CUB7        0.0000 
     53 DU        112.1800  334.4300  206.6700 H         7 CUB7        0.0000 
     54 DU        112.0500  333.2300  207.5500 H         7 CUB7        0.0000 
     55 DU        111.9300  332.0200  208.4400 H         7 CUB7        0.0000 
     56 DU        113.0200  334.8100  204.7600 H         7 CUB7        0.0000 
     57 DU        112.9000  333.6100  205.6400 H         7 CUB7        0.0000 
     58 DU        112.7700  332.4000  206.5300 H         7 CUB7        0.0000 
     59 DU        113.8700  335.1900  202.8500 H         7 CUB7        0.0000 
     60 DU        113.7400  333.9800  203.7300 H         7 CUB7        0.0000 
     61 DU        111.9300  335.2200  210.2500 H         7 CUB7        0.0000 
     62 DU        112.7700  335.6000  208.3400 H         7 CUB7        0.0000 
     63 DU        112.5200  333.1900  210.1100 H         7 CUB7        0.0000 
     64 DU        113.2400  332.3600  209.0800 H         7 CUB7        0.0000 
     65 DU        114.0800  332.7400  207.1700 H         7 CUB7        0.0000 
     66 DU        115.1800  335.5200  203.4900 H         7 CUB7        0.0000 
     67 DU        115.0500  334.3200  204.3800 H         7 CUB7        0.0000 
     68 DU        114.9300  333.1100  205.2600 H         7 CUB7        0.0000 
     69 DU        113.2400  335.5600  210.8900 H         7 CUB7        0.0000 
     70 DU        113.8300  333.5300  210.7500 H         7 CUB7        0.0000 
     71 DU        114.6800  333.9000  208.8400 H         7 CUB7        0.0000 
     72 DU        115.2700  335.0700  210.5100 H         7 CUB7        0.0000 
@<TRIPOS>BOND
@<TRIPOS>SUBSTRUCTURE
     1 SER1        1 GROUP   
     2 ALA2        4 GROUP   
     3 ASP3       15 GROUP   
     4 LYS4       18 GROUP   
     5 PHE5       22 GROUP   
     6 GLY6       34 GROUP   
     7 CUB7       50 GROUP   
@<TRIPOS>SET

