#    Name: 5xdx_5_CHD
#    Modification time : Fri May 22 19:13:00 2020

@<TRIPOS>MOLECULE
5xdx_5_CHD
   29    32     1     0     0
SMALL
NO_CHARGES


@<TRIPOS>ATOM
      1 C1        112.3380  336.3120  202.2600 C.3       1 CHD301      0.0000 
      2 C2        112.8300  337.6120  202.9110 C.3       1 CHD301      0.0000 
      3 C3        114.2030  337.9750  202.3560 C.3       1 CHD301      0.0000 
      4 O3        114.6990  339.1640  202.9760 O.3       1 CHD301      0.0000 
      5 C4        115.1770  336.8260  202.6340 C.3       1 CHD301      0.0000 
      6 C5        114.6930  335.4510  202.1260 C.3       1 CHD301      0.0000 
      7 C6        115.7430  334.4020  202.5370 C.3       1 CHD301      0.0000 
      8 C7        115.6710  333.9300  203.9990 C.3       1 CHD301      0.0000 
      9 O7        116.3800  334.8270  204.8570 O.3       1 CHD301      0.0000 
     10 C8        114.2270  333.6500  204.4570 C.3       1 CHD301      0.0000 
     11 C9        113.2440  334.7790  204.0690 C.3       1 CHD301      0.0000 
     12 C10       113.2590  335.1170  202.5630 C.3       1 CHD301      0.0000 
     13 C11       111.8140  334.6010  204.6320 C.3       1 CHD301      0.0000 
     14 C12       111.7890  334.1850  206.1160 C.3       1 CHD301      0.0000 
     15 O12       112.2420  335.2720  206.9190 O.3       1 CHD301      0.0000 
     16 C13       112.6700  332.9580  206.3770 C.3       1 CHD301      0.0000 
     17 C14       114.0940  333.3270  205.9570 C.3       1 CHD301      0.0000 
     18 C15       115.0060  332.2790  206.5910 C.3       1 CHD301      0.0000 
     19 C16       114.2370  331.8330  207.8410 C.3       1 CHD301      0.0000 
     20 C17       112.8870  332.5690  207.8440 C.3       1 CHD301      0.0000 
     21 C18       112.1330  331.7400  205.6050 C.3       1 CHD301      0.0000 
     22 C19       112.7260  333.9440  201.7240 C.3       1 CHD301      0.0000 
     23 C20       111.7480  331.7730  208.5270 C.3       1 CHD301      0.0000 
     24 C21       110.4310  332.5550  208.6270 C.3       1 CHD301      0.0000 
     25 C22       112.1390  331.2050  209.9020 C.3       1 CHD301      0.0000 
     26 C23       112.4710  332.2680  210.9540 C.3       1 CHD301      0.0000 
     27 O25       111.5530  331.0990  212.8440 O.co2     1 CHD301      0.0000 
     28 C24       112.5470  331.6600  212.3380 C.2       1 CHD301      0.0000 
     29 O26       113.5880  331.8200  212.9840 O.co2     1 CHD301      0.0000 
@<TRIPOS>BOND
     1    1    2 1    
     2    1   12 1    
     3    2    3 1    
     4    3    4 1    
     5    3    5 1    
     6    5    6 1    
     7    6    7 1    
     8    6   12 1    
     9    7    8 1    
    10    8    9 1    
    11    8   10 1    
    12   10   11 1    
    13   10   17 1    
    14   11   12 1    
    15   11   13 1    
    16   12   22 1    
    17   13   14 1    
    18   14   15 1    
    19   14   16 1    
    20   16   17 1    
    21   16   20 1    
    22   16   21 1    
    23   17   18 1    
    24   18   19 1    
    25   19   20 1    
    26   20   23 1    
    27   23   24 1    
    28   23   25 1    
    29   25   26 1    
    30   26   28 1    
    31   27   28 ar   
    32   28   29 ar   
@<TRIPOS>SUBSTRUCTURE
     1 CHD301      1 GROUP   
@<TRIPOS>SET

