#    Name: 5xdx_1_CHD
#    Modification time : Fri May 22 19:12:46 2020

@<TRIPOS>MOLECULE
5xdx_1_CHD
   29    32     1     0     0
SMALL
NO_CHARGES


@<TRIPOS>ATOM
      1 C1         76.6450  286.0150  203.4650 C.3       1 CHD302      0.0000 
      2 C2         76.2110  284.6590  204.0270 C.3       1 CHD302      0.0000 
      3 C3         74.7570  284.3510  203.7070 C.3       1 CHD302      0.0000 
      4 O3         74.4080  283.1460  204.3910 O.3       1 CHD302      0.0000 
      5 C4         73.8460  285.5070  204.1590 C.3       1 CHD302      0.0000 
      6 C5         74.2990  286.8930  203.6490 C.3       1 CHD302      0.0000 
      7 C6         73.3400  287.9760  204.1950 C.3       1 CHD302      0.0000 
      8 C7         73.5800  288.3660  205.6680 C.3       1 CHD302      0.0000 
      9 O7         72.9990  287.4000  206.5350 O.3       1 CHD302      0.0000 
     10 C8         75.0670  288.5850  205.9850 C.3       1 CHD302      0.0000 
     11 C9         75.9810  287.4560  205.4550 C.3       1 CHD302      0.0000 
     12 C10        75.7790  287.1910  203.9460 C.3       1 CHD302      0.0000 
     13 C11        77.4690  287.6670  205.8490 C.3       1 CHD302      0.0000 
     14 C12        77.6860  288.0110  207.3350 C.3       1 CHD302      0.0000 
     15 O12        77.3440  286.8890  208.1390 O.3       1 CHD302      0.0000 
     16 C13        76.8430  289.2280  207.7350 C.3       1 CHD302      0.0000 
     17 C14        75.3770  288.8680  207.4660 C.3       1 CHD302      0.0000 
     18 C15        74.5230  289.8820  208.2230 C.3       1 CHD302      0.0000 
     19 C16        75.4090  290.2860  209.4040 C.3       1 CHD302      0.0000 
     20 C17        76.7730  289.5980  209.2250 C.3       1 CHD302      0.0000 
     21 C18        77.3610  290.4250  206.9170 C.3       1 CHD302      0.0000 
     22 C19        76.2480  288.4040  203.1160 C.3       1 CHD302      0.0000 
     23 C20        77.9350  290.4240  209.8220 C.3       1 CHD302      0.0000 
     24 C21        79.2880  289.6930  209.7910 C.3       1 CHD302      0.0000 
     25 C22        77.6460  290.9190  211.2540 C.3       1 CHD302      0.0000 
     26 C23        77.5160  289.8020  212.2980 C.3       1 CHD302      0.0000 
     27 O25        78.6180  290.9890  214.0560 O.co2     1 CHD302      0.0000 
     28 C24        77.5930  290.3790  213.6980 C.2       1 CHD302      0.0000 
     29 O26        76.6540  290.1670  214.4840 O.co2     1 CHD302      0.0000 
@<TRIPOS>BOND
     1    1    2 1    
     2    1   12 1    
     3    2    3 1    
     4    3    4 1    
     5    3    5 1    
     6    5    6 1    
     7    6    7 1    
     8    6   12 1    
     9    7    8 1    
    10    8    9 1    
    11    8   10 1    
    12   10   11 1    
    13   10   17 1    
    14   11   12 1    
    15   11   13 1    
    16   12   22 1    
    17   13   14 1    
    18   14   15 1    
    19   14   16 1    
    20   16   17 1    
    21   16   20 1    
    22   16   21 1    
    23   17   18 1    
    24   18   19 1    
    25   19   20 1    
    26   20   23 1    
    27   23   24 1    
    28   23   25 1    
    29   25   26 1    
    30   26   28 1    
    31   27   28 ar   
    32   28   29 ar   
@<TRIPOS>SUBSTRUCTURE
     1 CHD302      1 GROUP   
@<TRIPOS>SET

