#    Name: 5zdq_4_RNB
#    Modification time : Fri May 22 19:27:15 2020

@<TRIPOS>MOLECULE
5zdq_4_RNB
   22    22     1     0     0
SMALL
NO_CHARGES


@<TRIPOS>ATOM
      1 CAA         5.4210  -12.4270   16.5790 C.3       1 RNB504      0.0000 
      2 CAO         6.4140  -11.6400   17.3860 C.2       1 RNB504      0.0000 
      3 CAB         6.3260  -11.7320   18.8920 C.3       1 RNB504      0.0000 
      4 CAJ         7.3510  -10.8920   16.7570 C.2       1 RNB504      0.0000 
      5 CAL         8.3900  -10.0640   17.5040 C.3       1 RNB504      0.0000 
      6 CAN         9.4950   -9.6040   16.5440 C.3       1 RNB504      0.0000 
      7 CAP        10.1260   -8.3080   17.0340 C.2       1 RNB504      0.0000 
      8 CAC        10.7150   -8.2890   18.4280 C.3       1 RNB504      0.0000 
      9 CAK        10.1410   -7.2300   16.2200 C.2       1 RNB504      0.0000 
     10 CAM        10.7290   -5.8670   16.6080 C.3       1 RNB504      0.0000 
     11 CAV         9.5600   -4.9150   16.5270 C.ar      1 RNB504      0.0000 
     12 CAS         8.6630   -4.8090   17.5800 C.ar      1 RNB504      0.0000 
     13 OAG         8.9220   -5.5460   18.6850 O.3       1 RNB504      0.0000 
     14 CAU         7.5410   -3.9800   17.5080 C.ar      1 RNB504      0.0000 
     15 CAI         6.6180   -3.8820   18.6620 C.2       1 RNB504      0.0000 
     16 OAE         6.8290   -4.5590   19.6560 O.2       1 RNB504      0.0000 
     17 CAQ         7.3210   -3.2430   16.3590 C.ar      1 RNB504      0.0000 
     18 CAD         6.1490   -2.2960   16.1670 C.3       1 RNB504      0.0000 
     19 CAT         8.2250   -3.3790   15.3190 C.ar      1 RNB504      0.0000 
     20 CL          7.9520   -2.4710   13.8190 Cl        1 RNB504      0.0000 
     21 CAR         9.3250   -4.2030   15.3880 C.ar      1 RNB504      0.0000 
     22 OAF        10.1730   -4.2980   14.3480 O.3       1 RNB504      0.0000 
@<TRIPOS>BOND
     1    1    2 1    
     2    2    3 1    
     3    2    4 2    
     4    4    5 1    
     5    5    6 1    
     6    6    7 1    
     7    7    8 1    
     8    7    9 2    
     9    9   10 1    
    10   10   11 1    
    11   11   12 ar   
    12   11   21 ar   
    13   12   13 1    
    14   12   14 ar   
    15   14   15 1    
    16   14   17 ar   
    17   15   16 2    
    18   17   18 1    
    19   17   19 ar   
    20   19   20 1    
    21   19   21 ar   
    22   21   22 1    
@<TRIPOS>SUBSTRUCTURE
     1 RNB504      1 GROUP   
@<TRIPOS>SET

