#    Name: 5zdq_3_RNB
#    Modification time : Fri May 22 19:27:09 2020

@<TRIPOS>MOLECULE
5zdq_3_RNB
   22    22     1     0     0
SMALL
NO_CHARGES


@<TRIPOS>ATOM
      1 CAA        37.6870    1.4000    6.7820 C.3       1 RNB504      0.0000 
      2 CAO        37.7000    1.9130    8.1990 C.2       1 RNB504      0.0000 
      3 CAB        38.7910    2.8810    8.5660 C.3       1 RNB504      0.0000 
      4 CAJ        36.7920    1.5390    9.1320 C.2       1 RNB504      0.0000 
      5 CAL        35.6680    0.5700    8.8290 C.3       1 RNB504      0.0000 
      6 CAN        34.7330    0.3980   10.0270 C.3       1 RNB504      0.0000 
      7 CAP        33.8860    1.6230   10.3270 C.2       1 RNB504      0.0000 
      8 CAC        33.9300    2.8330    9.4290 C.3       1 RNB504      0.0000 
      9 CAK        33.0690    1.6670   11.4020 C.2       1 RNB504      0.0000 
     10 CAM        32.8960    0.5340   12.4020 C.3       1 RNB504      0.0000 
     11 CAV        33.8230    0.5970   13.6050 C.ar      1 RNB504      0.0000 
     12 CAS        34.5340    1.7480   13.9830 C.ar      1 RNB504      0.0000 
     13 OAG        34.4130    2.8990   13.2550 O.3       1 RNB504      0.0000 
     14 CAU        35.3710    1.7370   15.1110 C.ar      1 RNB504      0.0000 
     15 CAI        36.1270    2.9710   15.4920 C.2       1 RNB504      0.0000 
     16 OAE        36.0370    3.9820   14.8150 O.2       1 RNB504      0.0000 
     17 CAQ        35.4930    0.5570   15.8610 C.ar      1 RNB504      0.0000 
     18 CAD        36.3760    0.4690   17.0790 C.3       1 RNB504      0.0000 
     19 CAT        34.7790   -0.5770   15.4750 C.ar      1 RNB504      0.0000 
     20 CL         34.9060   -2.1220   16.3760 Cl        1 RNB504      0.0000 
     21 CAR        33.9500   -0.5540   14.3700 C.ar      1 RNB504      0.0000 
     22 OAF        33.2770   -1.6940   14.0440 O.3       1 RNB504      0.0000 
@<TRIPOS>BOND
     1    1    2 1    
     2    2    3 1    
     3    2    4 2    
     4    4    5 1    
     5    5    6 1    
     6    6    7 1    
     7    7    8 1    
     8    7    9 2    
     9    9   10 1    
    10   10   11 1    
    11   11   12 ar   
    12   11   21 ar   
    13   12   13 1    
    14   12   14 ar   
    15   14   15 1    
    16   14   17 ar   
    17   15   16 2    
    18   17   18 1    
    19   17   19 ar   
    20   19   20 1    
    21   19   21 ar   
    22   21   22 1    
@<TRIPOS>SUBSTRUCTURE
     1 RNB504      1 GROUP   
@<TRIPOS>SET

