#    Name: 5zdq_1_RNB
#    Modification time : Fri May 22 19:27:00 2020

@<TRIPOS>MOLECULE
5zdq_1_RNB
   22    22     1     0     0
SMALL
NO_CHARGES


@<TRIPOS>ATOM
      1 CAA        89.9300   38.9190   43.6010 C.3       1 RNB504      0.0000 
      2 CAO        90.3950   39.3450   42.2330 C.2       1 RNB504      0.0000 
      3 CAB        91.2430   40.5850   42.1330 C.3       1 RNB504      0.0000 
      4 CAJ        90.0680   38.6570   41.1110 C.2       1 RNB504      0.0000 
      5 CAL        89.2280   37.3940   41.1400 C.3       1 RNB504      0.0000 
      6 CAN        88.7820   36.9750   39.7240 C.3       1 RNB504      0.0000 
      7 CAP        87.3510   36.4870   39.7630 C.2       1 RNB504      0.0000 
      8 CAC        86.3260   37.3480   40.4370 C.3       1 RNB504      0.0000 
      9 CAK        86.8990   35.3170   39.2690 C.2       1 RNB504      0.0000 
     10 CAM        87.6960   34.2790   38.5200 C.3       1 RNB504      0.0000 
     11 CAV        88.6040   33.3230   39.2730 C.ar      1 RNB504      0.0000 
     12 CAS        88.7290   33.2070   40.6520 C.ar      1 RNB504      0.0000 
     13 OAG        87.9660   33.9930   41.4460 O.3       1 RNB504      0.0000 
     14 CAU        89.6350   32.2880   41.2140 C.ar      1 RNB504      0.0000 
     15 CAI        89.7630   32.1430   42.6970 C.2       1 RNB504      0.0000 
     16 OAE        89.0770   32.7970   43.4570 O.2       1 RNB504      0.0000 
     17 CAQ        90.4230   31.4860   40.3720 C.ar      1 RNB504      0.0000 
     18 CAD        91.4160   30.4770   40.9130 C.3       1 RNB504      0.0000 
     19 CAT        90.2800   31.6140   39.0010 C.ar      1 RNB504      0.0000 
     20 CL         91.2620   30.6630   37.8340 Cl        1 RNB504      0.0000 
     21 CAR        89.3870   32.5220   38.4740 C.ar      1 RNB504      0.0000 
     22 OAF        89.2890   32.6190   37.1310 O.3       1 RNB504      0.0000 
@<TRIPOS>BOND
     1    1    2 1    
     2    2    3 1    
     3    2    4 2    
     4    4    5 1    
     5    5    6 1    
     6    6    7 1    
     7    7    8 1    
     8    7    9 2    
     9    9   10 1    
    10   10   11 1    
    11   11   12 ar   
    12   11   21 ar   
    13   12   13 1    
    14   12   14 ar   
    15   14   15 1    
    16   14   17 ar   
    17   15   16 2    
    18   17   18 1    
    19   17   19 ar   
    20   19   20 1    
    21   19   21 ar   
    22   21   22 1    
@<TRIPOS>SUBSTRUCTURE
     1 RNB504      1 GROUP   
@<TRIPOS>SET

