#    Name: 5zdq_2_RNB
#    Modification time : Fri May 22 19:27:05 2020

@<TRIPOS>MOLECULE
5zdq_2_RNB
   22    22     1     0     0
SMALL
NO_CHARGES


@<TRIPOS>ATOM
      1 CAA        68.3580   25.0950   16.6000 C.3       1 RNB504      0.0000 
      2 CAO        68.3830   26.5950   16.7530 C.2       1 RNB504      0.0000 
      3 CAB        67.5650   27.4210   15.7990 C.3       1 RNB504      0.0000 
      4 CAJ        69.0990   27.2290   17.7090 C.2       1 RNB504      0.0000 
      5 CAL        69.9530   26.5140   18.7380 C.3       1 RNB504      0.0000 
      6 CAN        70.8950   27.4990   19.4400 C.3       1 RNB504      0.0000 
      7 CAP        71.1460   27.0460   20.8630 C.2       1 RNB504      0.0000 
      8 CAC        71.7890   25.7050   21.0710 C.3       1 RNB504      0.0000 
      9 CAK        70.7880   27.8400   21.8920 C.2       1 RNB504      0.0000 
     10 CAM        70.9580   27.4670   23.3560 C.3       1 RNB504      0.0000 
     11 CAV        69.5360   27.5060   23.8790 C.ar      1 RNB504      0.0000 
     12 CAS        68.6780   26.4290   23.6520 C.ar      1 RNB504      0.0000 
     13 OAG        69.1430   25.3190   23.0070 O.3       1 RNB504      0.0000 
     14 CAU        67.3520   26.4610   24.0920 C.ar      1 RNB504      0.0000 
     15 CAI        66.4820   25.2680   23.8410 C.2       1 RNB504      0.0000 
     16 OAE        66.9370   24.2930   23.2570 O.2       1 RNB504      0.0000 
     17 CAQ        66.8810   27.6040   24.7640 C.ar      1 RNB504      0.0000 
     18 CAD        65.4660   27.7190   25.2760 C.3       1 RNB504      0.0000 
     19 CAT        67.7500   28.6770   24.9800 C.ar      1 RNB504      0.0000 
     20 CL         67.1700   30.1570   25.8130 Cl        1 RNB504      0.0000 
     21 CAR        69.0680   28.6350   24.5330 C.ar      1 RNB504      0.0000 
     22 OAF        69.8950   29.7030   24.7420 O.3       1 RNB504      0.0000 
@<TRIPOS>BOND
     1    1    2 1    
     2    2    3 1    
     3    2    4 2    
     4    4    5 1    
     5    5    6 1    
     6    6    7 1    
     7    7    8 1    
     8    7    9 2    
     9    9   10 1    
    10   10   11 1    
    11   11   12 ar   
    12   11   21 ar   
    13   12   13 1    
    14   12   14 ar   
    15   14   15 1    
    16   14   17 ar   
    17   15   16 2    
    18   17   18 1    
    19   17   19 ar   
    20   19   20 1    
    21   19   21 ar   
    22   21   22 1    
@<TRIPOS>SUBSTRUCTURE
     1 RNB504      1 GROUP   
@<TRIPOS>SET

