#    Name: 5zct_3_ANP
#    Modification time : Fri May 22 19:25:25 2020

@<TRIPOS>MOLECULE
5zct_3_ANP
   31    33     1     0     1
SMALL
NO_CHARGES


@<TRIPOS>ATOM
      1 PG        177.9860   30.8630   10.8600 P.3       1 ANP401      0.0000 
      2 O1G       176.6190   31.1270   10.3070 O.co2     1 ANP401      0.0000 
      3 O2G       178.2360   29.3040   10.8400 O.co2     1 ANP401      0.0000 
      4 O3G       178.0610   31.3840   12.3570 O.co2     1 ANP401      0.0000 
      5 PB        180.7040   31.1530   10.3000 P.3       1 ANP401      0.0000 
      6 O1B       181.5180   32.2870   10.8460 O.co2     1 ANP401      0.0000 
      7 O2B       180.6970   30.0550   11.4210 O.co2     1 ANP401      0.0000 
      8 N3B       179.1500   31.6450    9.8960 N.3       1 ANP401      0.0000 
      9 PA        181.4810   29.0780    8.5900 P.3       1 ANP401      0.0000 
     10 O1A       182.9830   28.8450    8.3700 O.co2     1 ANP401      0.0000 
     11 O2A       180.8240   28.1610    9.5520 O.co2     1 ANP401      0.0000 
     12 O3A       181.3620   30.6210    8.9880 O.3       1 ANP401      0.0000 
     13 O5'       180.6680   28.8980    7.2430 O.3       1 ANP401      0.0000 
     14 C5'       179.2400   28.7800    7.1860 C.3       1 ANP401      0.0000 
     15 C4'       178.8930   27.7570    6.1310 C.3       1 ANP401      0.0000 
     16 O4'       179.6510   28.0030    4.9270 O.3       1 ANP401      0.0000 
     17 C3'       179.2140   26.3140    6.4940 C.3       1 ANP401      0.0000 
     18 O3'       178.1980   25.7560    7.3200 O.3       1 ANP401      0.0000 
     19 C2'       179.3160   25.6530    5.1160 C.3       1 ANP401      0.0000 
     20 O2'       178.0580   25.2020    4.6230 O.3       1 ANP401      0.0000 
     21 C1'       179.9130   26.7800    4.2560 C.3       1 ANP401      0.0000 
     22 N9        181.3550   26.6410    4.0920 N.pl3     1 ANP401      0.0000 
     23 C8        182.3240   27.1380    4.9270 C.2       1 ANP401      0.0000 
     24 N7        183.5460   26.8220    4.5760 N.2       1 ANP401      0.0000 
     25 C5        183.3740   26.0510    3.4350 C.ar      1 ANP401      0.0000 
     26 C6        184.2860   25.4160    2.5750 C.ar      1 ANP401      0.0000 
     27 N6        185.6120   25.4570    2.7400 N.pl3     1 ANP401      0.0000 
     28 N1        183.7810   24.7250    1.5240 N.ar      1 ANP401      0.0000 
     29 C2        182.4560   24.6880    1.3570 C.ar      1 ANP401      0.0000 
     30 N3        181.5000   25.2480    2.1040 N.ar      1 ANP401      0.0000 
     31 C4        182.0270   25.9260    3.1330 C.ar      1 ANP401      0.0000 
@<TRIPOS>BOND
     1    1    2 ar   
     2    1    3 ar   
     3    1    4 ar   
     4    1    8 1    
     5    5    6 ar   
     6    5    7 ar   
     7    5    8 1    
     8    5   12 1    
     9    9   10 ar   
    10    9   11 ar   
    11    9   12 1    
    12    9   13 1    
    13   13   14 1    
    14   14   15 1    
    15   15   16 1    
    16   15   17 1    
    17   16   21 1    
    18   17   18 1    
    19   17   19 1    
    20   19   20 1    
    21   19   21 1    
    22   21   22 1    
    23   22   23 1    
    24   22   31 1    
    25   23   24 2    
    26   24   25 1    
    27   25   26 ar   
    28   25   31 ar   
    29   26   27 1    
    30   26   28 ar   
    31   28   29 ar   
    32   29   30 ar   
    33   30   31 ar   
@<TRIPOS>SUBSTRUCTURE
     1 ANP401      1 GROUP   
@<TRIPOS>SET
ATOM$ORANGE STATIC     ATOMS   COLORGROUP SYSTEM 
20 14 14 15 15 17 17 19 19 21 21 23 23 25 25 26 26 29 \
29 31 31 

