#    Name: 5zct_2_ANP
#    Modification time : Fri May 22 19:25:20 2020

@<TRIPOS>MOLECULE
5zct_2_ANP
   31    33     1     0     1
SMALL
NO_CHARGES


@<TRIPOS>ATOM
      1 PG        205.5940   98.6960   55.9890 P.3       1 ANP401      0.0000 
      2 O1G       206.6700   99.8380   55.8380 O.co2     1 ANP401      0.0000 
      3 O2G       206.3160   97.3870   56.0980 O.co2     1 ANP401      0.0000 
      4 O3G       204.6990   98.9420   57.2740 O.co2     1 ANP401      0.0000 
      5 PB        203.2110   97.7800   55.0510 P.3       1 ANP401      0.0000 
      6 O1B       202.3490   97.4360   53.7850 O.co2     1 ANP401      0.0000 
      7 O2B       202.3530   98.6180   55.9430 O.co2     1 ANP401      0.0000 
      8 N3B       204.5580   98.6860   54.6520 N.3       1 ANP401      0.0000 
      9 PA        203.2590   95.8040   57.1340 P.3       1 ANP401      0.0000 
     10 O1A       204.3770   94.9280   57.7000 O.co2     1 ANP401      0.0000 
     11 O2A       202.7950   96.8160   58.1100 O.co2     1 ANP401      0.0000 
     12 O3A       203.7690   96.4730   55.7460 O.3       1 ANP401      0.0000 
     13 O5'       202.0430   94.8650   56.7810 O.3       1 ANP401      0.0000 
     14 C5'       200.9340   95.1630   55.9280 C.3       1 ANP401      0.0000 
     15 C4'       199.8010   94.3170   56.4450 C.3       1 ANP401      0.0000 
     16 O4'       200.0260   92.9280   56.1200 O.3       1 ANP401      0.0000 
     17 C3'       199.6380   94.3280   57.9570 C.3       1 ANP401      0.0000 
     18 O3'       198.9020   95.4510   58.4330 O.3       1 ANP401      0.0000 
     19 C2'       198.8930   93.0190   58.2080 C.3       1 ANP401      0.0000 
     20 O2'       197.4940   93.1830   58.0180 O.3       1 ANP401      0.0000 
     21 C1'       199.5170   92.0970   57.1520 C.3       1 ANP401      0.0000 
     22 N9        200.6060   91.2740   57.6800 N.pl3     1 ANP401      0.0000 
     23 C8        201.9110   91.6480   57.8460 C.2       1 ANP401      0.0000 
     24 N7        202.6730   90.7160   58.3690 N.2       1 ANP401      0.0000 
     25 C5        201.8020   89.6620   58.5720 C.ar      1 ANP401      0.0000 
     26 C6        201.9890   88.3610   59.0980 C.ar      1 ANP401      0.0000 
     27 N6        203.1600   87.9020   59.5420 N.pl3     1 ANP401      0.0000 
     28 N1        200.9090   87.5500   59.1660 N.ar      1 ANP401      0.0000 
     29 C2        199.7310   88.0110   58.7280 C.ar      1 ANP401      0.0000 
     30 N3        199.4370   89.2090   58.2140 N.ar      1 ANP401      0.0000 
     31 C4        200.5190   89.9850   58.1570 C.ar      1 ANP401      0.0000 
@<TRIPOS>BOND
     1    1    2 ar   
     2    1    3 ar   
     3    1    4 ar   
     4    1    8 1    
     5    5    6 ar   
     6    5    7 ar   
     7    5    8 1    
     8    5   12 1    
     9    9   10 ar   
    10    9   11 ar   
    11    9   12 1    
    12    9   13 1    
    13   13   14 1    
    14   14   15 1    
    15   15   16 1    
    16   15   17 1    
    17   16   21 1    
    18   17   18 1    
    19   17   19 1    
    20   19   20 1    
    21   19   21 1    
    22   21   22 1    
    23   22   23 1    
    24   22   31 1    
    25   23   24 2    
    26   24   25 1    
    27   25   26 ar   
    28   25   31 ar   
    29   26   27 1    
    30   26   28 ar   
    31   28   29 ar   
    32   29   30 ar   
    33   30   31 ar   
@<TRIPOS>SUBSTRUCTURE
     1 ANP401      1 GROUP   
@<TRIPOS>SET
ATOM$ORANGE STATIC     ATOMS   COLORGROUP SYSTEM 
20 14 14 15 15 17 17 19 19 21 21 23 23 25 25 26 26 29 \
29 31 31 

