#    Name: 5zw6_1_GLY_MET_PRO_ARG_GLY_ALA
#    Modification time : Fri May 22 19:26:31 2020

@<TRIPOS>MOLECULE
5zw6_1_GLY_MET_PRO_ARG_GLY_ALA
   40    40     6     0     0
SMALL
NO_CHARGES


@<TRIPOS>ATOM
      1 N         112.5090   47.5170  -12.7870 N.4       1 GLY82       0.0000 
      2 CA        112.9160   46.6490  -11.6980 C.3       1 GLY82       0.0000 
      3 C         114.1270   47.1370  -10.9170 C.2       1 GLY82       0.0000 
      4 O         114.6700   48.2280  -11.1720 O.2       1 GLY82       0.0000 
      5 N         114.5460   46.3160   -9.9520 N.am      2 MET83       0.0000 
      6 CA        115.7250   46.5870   -9.1450 C.3       2 MET83       0.0000 
      7 C         116.8940   45.8360   -9.7460 C.2       2 MET83       0.0000 
      8 O         116.7900   44.6110   -9.9110 O.2       2 MET83       0.0000 
      9 CB        115.5020   46.1330   -7.6990 C.3       2 MET83       0.0000 
     10 CG        116.7200   46.2770   -6.7990 C.3       2 MET83       0.0000 
     11 SD        116.4710   45.4760   -5.1940 S.3       2 MET83       0.0000 
     12 CE        116.7320   43.7500   -5.6400 C.3       2 MET83       0.0000 
     13 N         118.0080   46.4880  -10.0870 N.am      3 PRO84       0.0000 
     14 CA        119.1550   45.7310  -10.6100 C.3       3 PRO84       0.0000 
     15 C         119.7880   44.8420   -9.5330 C.2       3 PRO84       0.0000 
     16 O         119.9630   45.2330   -8.3820 O.2       3 PRO84       0.0000 
     17 CB        120.1260   46.8250  -11.0920 C.3       3 PRO84       0.0000 
     18 CG        119.7560   48.0490  -10.3020 C.3       3 PRO84       0.0000 
     19 CD        118.2670   47.9430  -10.0260 C.3       3 PRO84       0.0000 
     20 N         120.1400   43.6340   -9.9280 N.am      4 ARG85       0.0000 
     21 CA        120.8010   42.6790   -9.0590 C.3       4 ARG85       0.0000 
     22 C         122.0460   42.1830   -9.7620 C.2       4 ARG85       0.0000 
     23 O         122.0680   42.0570  -10.9860 O.2       4 ARG85       0.0000 
     24 CB        119.9160   41.4700   -8.7440 C.3       4 ARG85       0.0000 
     25 CG        118.8650   41.6910   -7.6880 C.3       4 ARG85       0.0000 
     26 CD        118.0300   40.3970   -7.5690 C.3       4 ARG85       0.0000 
     27 NE        117.2690   40.3300   -6.3280 N.pl3     4 ARG85       0.0000 
     28 CZ        115.9630   40.5670   -6.2390 C.cat     4 ARG85       0.0000 
     29 NH1       115.2670   40.9170   -7.3190 N.pl3     4 ARG85       0.0000 
     30 NH2       115.3580   40.4750   -5.0590 N.pl3     4 ARG85       0.0000 
     31 N         123.0770   41.8740   -8.9930 N.am      5 GLY86       0.0000 
     32 CA        124.2350   41.2690   -9.6130 C.3       5 GLY86       0.0000 
     33 C         125.1940   40.7020   -8.5980 C.2       5 GLY86       0.0000 
     34 O         125.1740   41.0630   -7.4110 O.2       5 GLY86       0.0000 
     35 N         126.0660   39.8370   -9.1010 N.am      6 ALA87       0.0000 
     36 CA        127.1410   39.2460   -8.3250 C.3       6 ALA87       0.0000 
     37 C         128.3550   38.9270   -9.2220 C.2       6 ALA87       0.0000 
     38 O         128.2360   38.7710  -10.4530 O.2       6 ALA87       0.0000 
     39 CB        126.6540   37.9890   -7.6220 C.3       6 ALA87       0.0000 
     40 OXT       129.4860   38.8090   -8.7330 O.2       6 ALA87       0.0000 
@<TRIPOS>BOND
     1    1    2 1    
     2    2    3 1    
     3    3    4 2    
     4    3    5 am   
     5    5    6 1    
     6    6    7 1    
     7    6    9 1    
     8    7    8 2    
     9    7   13 am   
    10    9   10 1    
    11   10   11 1    
    12   11   12 1    
    13   13   14 1    
    14   13   19 1    
    15   14   15 1    
    16   14   17 1    
    17   15   16 2    
    18   15   20 am   
    19   17   18 1    
    20   18   19 1    
    21   20   21 1    
    22   21   22 1    
    23   21   24 1    
    24   22   23 2    
    25   22   31 am   
    26   24   25 1    
    27   25   26 1    
    28   26   27 1    
    29   27   28 ar   
    30   28   29 ar   
    31   28   30 ar   
    32   31   32 1    
    33   32   33 1    
    34   33   34 2    
    35   33   35 am   
    36   35   36 1    
    37   36   37 1    
    38   36   39 1    
    39   37   38 2    
    40   37   40 2    
@<TRIPOS>SUBSTRUCTURE
     1 GLY82       1 RESIDUE 
     2 MET83       5 RESIDUE 
     3 PRO84      13 RESIDUE 
     4 ARG85      20 RESIDUE 
     5 GLY86      31 RESIDUE 
     6 ALA87      35 RESIDUE 
@<TRIPOS>SET

