#    Name: 5zw6_2_GLY_MET_PRO_ARG_GLY_ALA
#    Modification time : Fri May 22 19:26:38 2020

@<TRIPOS>MOLECULE
5zw6_2_GLY_MET_PRO_ARG_GLY_ALA
   40    40     6     0     0
SMALL
NO_CHARGES


@<TRIPOS>ATOM
      1 N          85.4960   16.6640   14.7660 N.4       1 GLY82       0.0000 
      2 CA         86.4200   16.4170   13.6720 C.3       1 GLY82       0.0000 
      3 C          86.1270   15.1750   12.8400 C.2       1 GLY82       0.0000 
      4 O          85.1260   14.4700   13.0430 O.2       1 GLY82       0.0000 
      5 N          87.0140   14.9090   11.8830 N.am      2 MET83       0.0000 
      6 CA         86.9060   13.7270   11.0440 C.3       2 MET83       0.0000 
      7 C          87.8050   12.6580   11.6270 C.2       2 MET83       0.0000 
      8 O          89.0050   12.9170   11.7790 O.2       2 MET83       0.0000 
      9 CB         87.3390   14.0450    9.6160 C.3       2 MET83       0.0000 
     10 CG         87.3060   12.8590    8.6880 C.3       2 MET83       0.0000 
     11 SD         88.0550   13.2370    7.0970 S.3       2 MET83       0.0000 
     12 CE         89.7920   13.0380    7.5250 C.3       2 MET83       0.0000 
     13 N          87.3120   11.4690   11.9630 N.am      3 PRO84       0.0000 
     14 CA         88.2170   10.4500   12.4910 C.3       3 PRO84       0.0000 
     15 C          89.1520    9.9620   11.4000 C.2       3 PRO84       0.0000 
     16 O          88.7670    9.8020   10.2420 O.2       3 PRO84       0.0000 
     17 CB         87.2780    9.3350   12.9690 C.3       3 PRO84       0.0000 
     18 CG         86.0600    9.5190   12.1520 C.3       3 PRO84       0.0000 
     19 CD         85.9290   10.9710   11.8480 C.3       3 PRO84       0.0000 
     20 N          90.3940    9.7480   11.7810 N.am      4 ARG85       0.0000 
     21 CA         91.4200    9.2360   10.8910 C.3       4 ARG85       0.0000 
     22 C          92.1130    8.0790   11.5800 C.2       4 ARG85       0.0000 
     23 O          92.3010    8.0990   12.7980 O.2       4 ARG85       0.0000 
     24 CB         92.4790   10.2980   10.5810 C.3       4 ARG85       0.0000 
     25 CG         92.1220   11.3390    9.5470 C.3       4 ARG85       0.0000 
     26 CD         93.2710   12.3370    9.4790 C.3       4 ARG85       0.0000 
     27 NE         93.2520   13.1440    8.2600 N.pl3     4 ARG85       0.0000 
     28 CZ         92.8520   14.4090    8.2000 C.cat     4 ARG85       0.0000 
     29 NH1        92.4120   15.0240    9.2900 N.pl3     4 ARG85       0.0000 
     30 NH2        92.8740   15.0530    7.0400 N.pl3     4 ARG85       0.0000 
     31 N          92.5650    7.1090   10.8010 N.am      5 GLY86       0.0000 
     32 CA         93.3590    6.0570   11.3960 C.3       5 GLY86       0.0000 
     33 C          94.0600    5.2190   10.3550 C.2       5 GLY86       0.0000 
     34 O          93.7190    5.2510    9.1670 O.2       5 GLY86       0.0000 
     35 N          95.0320    4.4470   10.8340 N.am      6 ALA87       0.0000 
     36 CA         95.7370    3.4640   10.0170 C.3       6 ALA87       0.0000 
     37 C          96.1840    2.2820   10.8760 C.2       6 ALA87       0.0000 
     38 O          96.4700    1.2040   10.3470 O.2       6 ALA87       0.0000 
     39 CB         96.9510    4.0890    9.3180 C.3       6 ALA87       0.0000 
     40 OXT        96.3010    2.3940   12.1070 O.2       6 ALA87       0.0000 
@<TRIPOS>BOND
     1    1    2 1    
     2    2    3 1    
     3    3    4 2    
     4    3    5 am   
     5    5    6 1    
     6    6    7 1    
     7    6    9 1    
     8    7    8 2    
     9    7   13 am   
    10    9   10 1    
    11   10   11 1    
    12   11   12 1    
    13   13   14 1    
    14   13   19 1    
    15   14   15 1    
    16   14   17 1    
    17   15   16 2    
    18   15   20 am   
    19   17   18 1    
    20   18   19 1    
    21   20   21 1    
    22   21   22 1    
    23   21   24 1    
    24   22   23 2    
    25   22   31 am   
    26   24   25 1    
    27   25   26 1    
    28   26   27 1    
    29   27   28 ar   
    30   28   29 ar   
    31   28   30 ar   
    32   31   32 1    
    33   32   33 1    
    34   33   34 2    
    35   33   35 am   
    36   35   36 1    
    37   36   37 1    
    38   36   39 1    
    39   37   38 2    
    40   37   40 2    
@<TRIPOS>SUBSTRUCTURE
     1 GLY82       1 RESIDUE 
     2 MET83       5 RESIDUE 
     3 PRO84      13 RESIDUE 
     4 ARG85      20 RESIDUE 
     5 GLY86      31 RESIDUE 
     6 ALA87      35 RESIDUE 
@<TRIPOS>SET

