#    Name: 6c9g_3_AMP
#    Modification time : Fri May 22 19:26:04 2020

@<TRIPOS>MOLECULE
6c9g_3_AMP
   23    25     1     0     1
SMALL
NO_CHARGES


@<TRIPOS>ATOM
      1 P         -37.7400   61.4410   21.4570 P.3       1 AMP1102     0.0000 
      2 O1P       -38.8900   61.8090   20.5490 O.co2     1 AMP1102     0.0000 
      3 O2P       -37.4390   62.4640   22.5230 O.co2     1 AMP1102     0.0000 
      4 O3P       -36.5460   60.8850   20.7120 O.co2     1 AMP1102     0.0000 
      5 O5'       -38.2800   60.2300   22.3380 O.3       1 AMP1102     0.0000 
      6 C5'       -39.6340   60.1910   22.7630 C.3       1 AMP1102     0.0000 
      7 C4'       -39.8680   59.1070   23.7850 C.3       1 AMP1102     0.0000 
      8 O4'       -38.6730   58.9610   24.5920 O.3       1 AMP1102     0.0000 
      9 C3'       -41.0080   59.3720   24.7620 C.3       1 AMP1102     0.0000 
     10 O3'       -41.5740   58.1350   25.1920 O.3       1 AMP1102     0.0000 
     11 C2'       -40.2920   60.0390   25.9290 C.3       1 AMP1102     0.0000 
     12 O2'       -40.9670   59.9380   27.1660 O.3       1 AMP1102     0.0000 
     13 C1'       -38.9530   59.3000   25.9400 C.3       1 AMP1102     0.0000 
     14 N9        -37.8410   60.1250   26.4130 N.pl3     1 AMP1102     0.0000 
     15 C8        -37.2190   61.0720   25.6830 C.2       1 AMP1102     0.0000 
     16 N7        -36.2300   61.6680   26.3940 N.2       1 AMP1102     0.0000 
     17 C5        -36.2080   61.0900   27.6070 C.ar      1 AMP1102     0.0000 
     18 C6        -35.4060   61.2420   28.8390 C.ar      1 AMP1102     0.0000 
     19 N6        -34.4070   62.1540   28.9060 N.pl3     1 AMP1102     0.0000 
     20 N1        -35.7070   60.4420   29.8850 N.ar      1 AMP1102     0.0000 
     21 C2        -36.6980   59.5340   29.8220 C.ar      1 AMP1102     0.0000 
     22 N3        -37.4690   59.3430   28.7360 N.ar      1 AMP1102     0.0000 
     23 C4        -37.2760   60.0780   27.6180 C.ar      1 AMP1102     0.0000 
@<TRIPOS>BOND
     1    1    2 ar   
     2    1    3 ar   
     3    1    4 ar   
     4    1    5 1    
     5    5    6 1    
     6    6    7 1    
     7    7    8 1    
     8    7    9 1    
     9    8   13 1    
    10    9   10 1    
    11    9   11 1    
    12   11   12 1    
    13   11   13 1    
    14   13   14 1    
    15   14   15 1    
    16   14   23 1    
    17   15   16 2    
    18   16   17 1    
    19   17   18 ar   
    20   17   23 ar   
    21   18   19 1    
    22   18   20 ar   
    23   20   21 ar   
    24   21   22 ar   
    25   22   23 ar   
@<TRIPOS>SUBSTRUCTURE
     1 AMP1102     1 GROUP   
@<TRIPOS>SET
ATOM$ORANGE STATIC     ATOMS   COLORGROUP SYSTEM 
20 6 6 7 7 9 9 11 11 13 13 15 15 17 17 18 18 21 \
21 23 23 

