#    Name: 6c9g_1_STU
#    Modification time : Fri May 22 19:25:53 2020

@<TRIPOS>MOLECULE
6c9g_1_STU
   35    42     1     0     0
SMALL
NO_CHARGES


@<TRIPOS>ATOM
      1 O4        -19.4490   21.0860  -26.9560 O.3       1 STU602      0.0000 
      2 C25       -18.8470   20.0630  -26.1070 C.3       1 STU602      0.0000 
      3 C24       -19.9090   19.5070  -25.1190 C.3       1 STU602      0.0000 
      4 C23       -21.2640   20.0360  -25.5100 C.3       1 STU602      0.0000 
      5 C22       -21.1960   21.5210  -25.3890 C.3       1 STU602      0.0000 
      6 C21       -20.3720   22.0830  -26.4830 C.3       1 STU602      0.0000 
      7 C26       -21.2770   22.3960  -27.6870 C.3       1 STU602      0.0000 
      8 N2        -19.7170   23.3060  -26.0040 N.pl3     1 STU602      0.0000 
      9 C18       -18.4210   23.1270  -25.4130 C.ar      1 STU602      0.0000 
     10 C19       -17.6000   22.0300  -25.1950 C.ar      1 STU602      0.0000 
     11 C6        -16.3360   22.1990  -24.5670 C.ar      1 STU602      0.0000 
     12 C7        -15.9070   23.4870  -24.1430 C.ar      1 STU602      0.0000 
     13 C10       -16.7150   24.5640  -24.3630 C.ar      1 STU602      0.0000 
     14 C11       -17.9670   24.3920  -24.9880 C.ar      1 STU602      0.0000 
     15 C12       -19.0420   25.4140  -25.3380 C.ar      1 STU602      0.0000 
     16 C17       -20.0780   24.7050  -25.9400 C.ar      1 STU602      0.0000 
     17 C16       -21.2090   25.3960  -26.3690 C.ar      1 STU602      0.0000 
     18 C15       -21.3130   26.7600  -26.2050 C.ar      1 STU602      0.0000 
     19 C14       -20.2980   27.4660  -25.6050 C.ar      1 STU602      0.0000 
     20 C13       -19.1510   26.8090  -25.1650 C.ar      1 STU602      0.0000 
     21 C9        -16.0860   25.8610  -23.8530 C.3       1 STU602      0.0000 
     22 N1        -14.8090   25.4210  -23.2850 N.am      1 STU602      0.0000 
     23 C8        -14.6760   24.0030  -23.4580 C.2       1 STU602      0.0000 
     24 O5        -13.5750   23.2530  -23.0340 O.2       1 STU602      0.0000 
     25 C5        -15.7070   20.8100  -24.4740 C.ar      1 STU602      0.0000 
     26 C20       -16.6170   19.9270  -25.0480 C.ar      1 STU602      0.0000 
     27 C1        -16.3540   18.5690  -25.1200 C.ar      1 STU602      0.0000 
     28 C2        -15.1700   18.0730  -24.6130 C.ar      1 STU602      0.0000 
     29 C3        -14.2350   18.9210  -24.0440 C.ar      1 STU602      0.0000 
     30 C4        -14.4900   20.3000  -23.9600 C.ar      1 STU602      0.0000 
     31 N3        -17.7810   20.6510  -25.4800 N.pl3     1 STU602      0.0000 
     32 O6        -20.6150   21.8390  -24.0890 O.3       1 STU602      0.0000 
     33 C27       -21.3550   22.8050  -23.3160 C.3       1 STU602      0.0000 
     34 N4        -22.2440   19.4570  -24.6010 N.4       1 STU602      0.0000 
     35 C28       -23.5790   19.9420  -24.8650 C.3       1 STU602      0.0000 
@<TRIPOS>BOND
     1    1    2 1    
     2    1    6 1    
     3    2    3 1    
     4    2   31 1    
     5    3    4 1    
     6    4    5 1    
     7    4   34 1    
     8    5    6 1    
     9    5   32 1    
    10    6    7 1    
    11    6    8 1    
    12    8    9 1    
    13    8   16 1    
    14    9   10 ar   
    15    9   14 ar   
    16   10   11 ar   
    17   10   31 1    
    18   11   12 ar   
    19   11   25 1    
    20   12   13 ar   
    21   12   23 1    
    22   13   14 ar   
    23   13   21 1    
    24   14   15 1    
    25   15   16 ar   
    26   15   20 ar   
    27   16   17 ar   
    28   17   18 ar   
    29   18   19 ar   
    30   19   20 ar   
    31   21   22 1    
    32   22   23 am   
    33   23   24 2    
    34   25   26 ar   
    35   25   30 ar   
    36   26   27 ar   
    37   26   31 1    
    38   27   28 ar   
    39   28   29 ar   
    40   29   30 ar   
    41   32   33 1    
    42   34   35 1    
@<TRIPOS>SUBSTRUCTURE
     1 STU602      1 GROUP   
@<TRIPOS>SET

