#    Name: 6c9g_4_AMP
#    Modification time : Fri May 22 19:26:10 2020

@<TRIPOS>MOLECULE
6c9g_4_AMP
   23    25     1     0     1
SMALL
NO_CHARGES


@<TRIPOS>ATOM
      1 P         -34.2450   70.0910   20.1850 P.3       1 AMP1103     0.0000 
      2 O1P       -33.7040   69.7400   18.8150 O.co2     1 AMP1103     0.0000 
      3 O2P       -34.0800   69.0130   21.2310 O.co2     1 AMP1103     0.0000 
      4 O3P       -35.5920   70.7810   20.1640 O.co2     1 AMP1103     0.0000 
      5 O5'       -33.2460   71.2080   20.7090 O.3       1 AMP1103     0.0000 
      6 C5'       -33.0390   72.4050   19.9710 C.3       1 AMP1103     0.0000 
      7 C4'       -32.4010   73.4590   20.8330 C.3       1 AMP1103     0.0000 
      8 O4'       -33.2920   73.7350   21.9430 O.3       1 AMP1103     0.0000 
      9 C3'       -31.0590   73.0670   21.4480 C.3       1 AMP1103     0.0000 
     10 O3'       -30.2300   74.2230   21.5570 O.3       1 AMP1103     0.0000 
     11 C2'       -31.4480   72.5820   22.8410 C.3       1 AMP1103     0.0000 
     12 O2'       -30.4270   72.6920   23.8090 O.3       1 AMP1103     0.0000 
     13 C1'       -32.6310   73.4860   23.1680 C.3       1 AMP1103     0.0000 
     14 N9        -33.5980   72.8790   24.0840 N.pl3     1 AMP1103     0.0000 
     15 C8        -34.0740   71.6200   24.0180 C.2       1 AMP1103     0.0000 
     16 N7        -34.9580   71.3760   25.0210 N.2       1 AMP1103     0.0000 
     17 C5        -35.0520   72.5030   25.7540 C.ar      1 AMP1103     0.0000 
     18 C6        -35.8030   72.9440   26.9550 C.ar      1 AMP1103     0.0000 
     19 N6        -36.6540   72.1100   27.6030 N.pl3     1 AMP1103     0.0000 
     20 N1        -35.6070   74.2100   27.3890 N.ar      1 AMP1103     0.0000 
     21 C2        -34.7650   75.0520   26.7640 C.ar      1 AMP1103     0.0000 
     22 N3        -34.0550   74.7260   25.6700 N.ar      1 AMP1103     0.0000 
     23 C4        -34.1510   73.4870   25.1320 C.ar      1 AMP1103     0.0000 
@<TRIPOS>BOND
     1    1    2 ar   
     2    1    3 ar   
     3    1    4 ar   
     4    1    5 1    
     5    5    6 1    
     6    6    7 1    
     7    7    8 1    
     8    7    9 1    
     9    8   13 1    
    10    9   10 1    
    11    9   11 1    
    12   11   12 1    
    13   11   13 1    
    14   13   14 1    
    15   14   15 1    
    16   14   23 1    
    17   15   16 2    
    18   16   17 1    
    19   17   18 ar   
    20   17   23 ar   
    21   18   19 1    
    22   18   20 ar   
    23   20   21 ar   
    24   21   22 ar   
    25   22   23 ar   
@<TRIPOS>SUBSTRUCTURE
     1 AMP1103     1 GROUP   
@<TRIPOS>SET
ATOM$ORANGE STATIC     ATOMS   COLORGROUP SYSTEM 
20 6 6 7 7 9 9 11 11 13 13 15 15 17 17 18 18 21 \
21 23 23 

