#    Name: 6c9g_2_AMP
#    Modification time : Fri May 22 19:25:59 2020

@<TRIPOS>MOLECULE
6c9g_2_AMP
   23    25     1     0     1
SMALL
NO_CHARGES


@<TRIPOS>ATOM
      1 P         -39.8170   69.6360   13.3950 P.3       1 AMP1101     0.0000 
      2 O1P       -38.6530   69.3330   12.4860 O.co2     1 AMP1101     0.0000 
      3 O2P       -39.4280   70.4130   14.6250 O.co2     1 AMP1101     0.0000 
      4 O3P       -40.7300   68.4590   13.6440 O.co2     1 AMP1101     0.0000 
      5 O5'       -40.7360   70.6280   12.5500 O.3       1 AMP1101     0.0000 
      6 C5'       -40.7270   72.0300   12.7950 C.3       1 AMP1101     0.0000 
      7 C4'       -41.4850   72.7970   11.7340 C.3       1 AMP1101     0.0000 
      8 O4'       -40.6670   72.9100   10.5460 O.3       1 AMP1101     0.0000 
      9 C3'       -42.8250   72.2020   11.3040 C.3       1 AMP1101     0.0000 
     10 O3'       -43.7980   73.2410   11.1820 O.3       1 AMP1101     0.0000 
     11 C2'       -42.5420   71.5890    9.9300 C.3       1 AMP1101     0.0000 
     12 O2'       -43.6290   71.6720    9.0320 O.3       1 AMP1101     0.0000 
     13 C1'       -41.3390   72.3870    9.4180 C.3       1 AMP1101     0.0000 
     14 N9        -40.3640   71.5700    8.6890 N.pl3     1 AMP1101     0.0000 
     15 C8        -39.7300   70.4990    9.2050 C.2       1 AMP1101     0.0000 
     16 N7        -38.8760   69.9480    8.3070 N.2       1 AMP1101     0.0000 
     17 C5        -38.9540   70.6800    7.1820 C.ar      1 AMP1101     0.0000 
     18 C6        -38.3160   70.6460    5.8470 C.ar      1 AMP1101     0.0000 
     19 N6        -37.4070   69.6930    5.5330 N.pl3     1 AMP1101     0.0000 
     20 N1        -38.6760   71.5950    4.9570 N.ar      1 AMP1101     0.0000 
     21 C2        -39.5800   72.5440    5.2590 C.ar      1 AMP1101     0.0000 
     22 N3        -40.1980   72.6350    6.4480 N.ar      1 AMP1101     0.0000 
     23 C4        -39.9350   71.7480    7.4360 C.ar      1 AMP1101     0.0000 
@<TRIPOS>BOND
     1    1    2 ar   
     2    1    3 ar   
     3    1    4 ar   
     4    1    5 1    
     5    5    6 1    
     6    6    7 1    
     7    7    8 1    
     8    7    9 1    
     9    8   13 1    
    10    9   10 1    
    11    9   11 1    
    12   11   12 1    
    13   11   13 1    
    14   13   14 1    
    15   14   15 1    
    16   14   23 1    
    17   15   16 2    
    18   16   17 1    
    19   17   18 ar   
    20   17   23 ar   
    21   18   19 1    
    22   18   20 ar   
    23   20   21 ar   
    24   21   22 ar   
    25   22   23 ar   
@<TRIPOS>SUBSTRUCTURE
     1 AMP1101     1 GROUP   
@<TRIPOS>SET
ATOM$ORANGE STATIC     ATOMS   COLORGROUP SYSTEM 
20 6 6 7 7 9 9 11 11 13 13 15 15 17 17 18 18 21 \
21 23 23 

