#    Name: 6ud8_2_ZK1
#    Modification time : Fri May 22 19:30:24 2020

@<TRIPOS>MOLECULE
6ud8_2_ZK1
   40    42     1     0     0
SMALL
NO_CHARGES


@<TRIPOS>ATOM
      1 OAA       158.7170  184.2860  240.4590 O.2       1 ZK1902      0.0000 
      2 OAB       156.8090  183.0460  238.7410 O.2       1 ZK1902      0.0000 
      3 OAC       158.1720  181.9650  233.6670 O.co2     1 ZK1902      0.0000 
      4 OAD       156.0290  182.8790  234.4670 O.co2     1 ZK1902      0.0000 
      5 OAE       158.1390  184.0520  234.9840 O.co2     1 ZK1902      0.0000 
      6 FAF       165.0650  182.2660  237.0010 F         1 ZK1902      0.0000 
      7 FAG       164.6230  183.2010  235.0290 F         1 ZK1902      0.0000 
      8 FAH       164.6030  180.9840  235.2340 F         1 ZK1902      0.0000 
      9 CAI       160.5240  181.6290  235.6750 C.ar      1 ZK1902      0.0000 
     10 CAJ       162.4210  182.8610  237.3840 C.ar      1 ZK1902      0.0000 
     11 CAK       162.2600  180.8540  231.7360 C.3       1 ZK1902      0.0000 
     12 CAL       162.3950  178.8370  232.9110 C.3       1 ZK1902      0.0000 
     13 CAM       161.6180  181.4170  232.9980 C.3       1 ZK1902      0.0000 
     14 CAN       162.1270  179.4900  234.2630 C.3       1 ZK1902      0.0000 
     15 CAO       157.6520  181.7150  236.3600 C.3       1 ZK1902      0.0000 
     16 NAP       160.5170  183.5980  238.9730 N.am      1 ZK1902      0.0000 
     17 OAQ       163.0470  179.7500  232.0750 O.3       1 ZK1902      0.0000 
     18 CAR       161.8900  181.5900  235.3570 C.ar      1 ZK1902      0.0000 
     19 CAS       162.8410  182.2100  236.2140 C.ar      1 ZK1902      0.0000 
     20 CAT       159.1410  183.6390  239.2970 C.2       1 ZK1902      0.0000 
     21 CAU       158.1680  183.0060  238.4190 C.2       1 ZK1902      0.0000 
     22 CAV       160.9570  182.9070  237.7340 C.ar      1 ZK1902      0.0000 
     23 CAW       160.0570  182.3230  236.9220 C.ar      1 ZK1902      0.0000 
     24 NAX       162.3410  180.9180  234.1520 N.3       1 ZK1902      0.0000 
     25 NAY       158.6080  182.3540  237.2460 N.am      1 ZK1902      0.0000 
     26 CAZ       164.3230  182.1630  235.8610 C.3       1 ZK1902      0.0000 
     27 PBA       157.4910  182.7020  234.7940 P.3       1 ZK1902      0.0000 
     28 HAI       159.9050  181.2230  235.1130 H         1 ZK1902      0.0000 
     29 HAJ       163.0460  183.2650  237.9420 H         1 ZK1902      0.0000 
     30 HAK       162.8180  181.5340  231.3280 H         1 ZK1902      0.0000 
     31 HAKA      161.5660  180.5780  231.1180 H         1 ZK1902      0.0000 
     32 HAL       162.9520  178.0540  233.0350 H         1 ZK1902      0.0000 
     33 HALA      161.5510  178.5800  232.5090 H         1 ZK1902      0.0000 
     34 HAM       161.6580  182.3860  232.9820 H         1 ZK1902      0.0000 
     35 HAMA      160.6950  181.1250  233.0400 H         1 ZK1902      0.0000 
     36 HAN       162.7340  179.1240  234.9240 H         1 ZK1902      0.0000 
     37 HANA      161.2110  179.3130  234.5240 H         1 ZK1902      0.0000 
     38 HAO       156.7890  181.6630  236.7950 H         1 ZK1902      0.0000 
     39 HAOA      157.9570  180.8210  236.1450 H         1 ZK1902      0.0000 
     40 HNAP      161.0950  183.9710  239.4880 H         1 ZK1902      0.0000 
@<TRIPOS>BOND
     1    1   20 2    
     2    2   21 2    
     3    3   27 ar   
     4    4   27 ar   
     5    5   27 ar   
     6    6   26 1    
     7    7   26 1    
     8    8   26 1    
     9    9   18 ar   
    10    9   23 ar   
    11   10   19 ar   
    12    9   28 1    
    13   10   22 ar   
    14   11   13 1    
    15   10   29 1    
    16   11   17 1    
    17   11   30 1    
    18   11   31 1    
    19   12   14 1    
    20   12   17 1    
    21   12   32 1    
    22   12   33 1    
    23   13   24 1    
    24   13   34 1    
    25   13   35 1    
    26   14   24 1    
    27   14   36 1    
    28   14   37 1    
    29   15   25 1    
    30   15   27 1    
    31   15   38 1    
    32   15   39 1    
    33   16   20 am   
    34   16   22 1    
    35   18   19 ar   
    36   16   40 1    
    37   18   24 1    
    38   19   26 1    
    39   20   21 1    
    40   21   25 am   
    41   22   23 ar   
    42   23   25 1    
@<TRIPOS>SUBSTRUCTURE
     1 ZK1902      1 GROUP   
@<TRIPOS>SET

