#    Name: 6ud8_4_ZK1
#    Modification time : Fri May 22 19:30:32 2020

@<TRIPOS>MOLECULE
6ud8_4_ZK1
   40    42     1     0     0
SMALL
NO_CHARGES


@<TRIPOS>ATOM
      1 OAA       225.0620  199.4060  240.4480 O.2       1 ZK1902      0.0000 
      2 OAB       226.9790  200.5980  238.7060 O.2       1 ZK1902      0.0000 
      3 OAC       225.2830  201.0250  233.8700 O.co2     1 ZK1902      0.0000 
      4 OAD       227.7200  201.1810  234.1960 O.co2     1 ZK1902      0.0000 
      5 OAE       226.4390  199.3930  235.3110 O.co2     1 ZK1902      0.0000 
      6 FAF       218.7210  201.4890  237.0310 F         1 ZK1902      0.0000 
      7 FAG       219.1420  200.6320  235.0190 F         1 ZK1902      0.0000 
      8 FAH       219.1910  202.8380  235.3160 F         1 ZK1902      0.0000 
      9 CAI       223.2650  202.0810  235.6710 C.ar      1 ZK1902      0.0000 
     10 CAJ       221.3590  200.8960  237.4030 C.ar      1 ZK1902      0.0000 
     11 CAK       221.5760  202.9930  231.7490 C.3       1 ZK1902      0.0000 
     12 CAL       221.2670  204.9420  233.0020 C.3       1 ZK1902      0.0000 
     13 CAM       222.0320  202.2160  232.9800 C.3       1 ZK1902      0.0000 
     14 CAN       221.8400  204.2190  234.2140 C.3       1 ZK1902      0.0000 
     15 CAO       226.1480  201.9330  236.3300 C.3       1 ZK1902      0.0000 
     16 NAP       223.2620  200.1260  238.9770 N.am      1 ZK1902      0.0000 
     17 OAQ       220.6930  204.0050  232.1370 O.3       1 ZK1902      0.0000 
     18 CAR       221.8970  202.1460  235.3640 C.ar      1 ZK1902      0.0000 
     19 CAS       220.9420  201.5520  236.2340 C.ar      1 ZK1902      0.0000 
     20 CAT       224.6410  200.0570  239.2880 C.2       1 ZK1902      0.0000 
     21 CAU       225.6180  200.6650  238.3980 C.2       1 ZK1902      0.0000 
     22 CAV       222.8250  200.8200  237.7390 C.ar      1 ZK1902      0.0000 
     23 CAW       223.7300  201.3820  236.9160 C.ar      1 ZK1902      0.0000 
     24 NAX       221.4510  202.8250  234.1610 N.3       1 ZK1902      0.0000 
     25 NAY       225.1820  201.3230  237.2260 N.am      1 ZK1902      0.0000 
     26 CAZ       219.4580  201.6310  235.8920 C.3       1 ZK1902      0.0000 
     27 PBA       226.4090  200.8320  234.8560 P.3       1 ZK1902      0.0000 
     28 HAI       223.8870  202.4700  235.1010 H         1 ZK1902      0.0000 
     29 HAJ       220.7310  200.5090  237.9680 H         1 ZK1902      0.0000 
     30 HAK       221.1270  202.3910  231.1360 H         1 ZK1902      0.0000 
     31 HAKA      222.3490  203.3890  231.3180 H         1 ZK1902      0.0000 
     32 HAL       220.5910  205.5720  233.2930 H         1 ZK1902      0.0000 
     33 HALA      221.9800  205.4120  232.5430 H         1 ZK1902      0.0000 
     34 HAM       221.7360  201.2950  232.9110 H         1 ZK1902      0.0000 
     35 HAMA      222.9990  202.2480  233.0320 H         1 ZK1902      0.0000 
     36 HAN       221.4950  204.6200  235.0260 H         1 ZK1902      0.0000 
     37 HANA      222.8070  204.2900  234.1960 H         1 ZK1902      0.0000 
     38 HAO       226.9900  202.0520  236.7940 H         1 ZK1902      0.0000 
     39 HAOA      225.8220  202.7970  236.0350 H         1 ZK1902      0.0000 
     40 HNAP      222.6820  199.7670  239.5000 H         1 ZK1902      0.0000 
@<TRIPOS>BOND
     1    1   20 2    
     2    2   21 2    
     3    3   27 ar   
     4    4   27 ar   
     5    5   27 ar   
     6    6   26 1    
     7    7   26 1    
     8    8   26 1    
     9    9   18 ar   
    10    9   23 ar   
    11   10   19 ar   
    12    9   28 1    
    13   10   22 ar   
    14   11   13 1    
    15   10   29 1    
    16   11   17 1    
    17   11   30 1    
    18   11   31 1    
    19   12   14 1    
    20   12   17 1    
    21   12   32 1    
    22   12   33 1    
    23   13   24 1    
    24   13   34 1    
    25   13   35 1    
    26   14   24 1    
    27   14   36 1    
    28   14   37 1    
    29   15   25 1    
    30   15   27 1    
    31   15   38 1    
    32   15   39 1    
    33   16   20 am   
    34   16   22 1    
    35   18   19 ar   
    36   16   40 1    
    37   18   24 1    
    38   19   26 1    
    39   20   21 1    
    40   21   25 am   
    41   22   23 ar   
    42   23   25 1    
@<TRIPOS>SUBSTRUCTURE
     1 ZK1902      1 GROUP   
@<TRIPOS>SET

