#    Name: 6ud8_2_ZK1_CAVITY_N1_8
#    Modification time : Fri May 22 19:30:25 2020

@<TRIPOS>MOLECULE
6ud8_2_ZK1_CAVITY_N1_8
  128     0     7     0     0
SMALL
NO_CHARGES


@<TRIPOS>ATOM
      1 OG        158.7500  180.9900  228.5400 O.3       1 SER1        0.0000 
      2 OG        157.9200  182.2400  228.6200 O.3       1 SER1        0.0000 
      3 OG        160.1900  180.0700  229.8000 O.3       1 SER1        0.0000 
      4 OG        157.4300  181.7900  230.6400 O.3       1 SER1        0.0000 
      5 OG        158.5200  182.5600  229.9600 O.3       1 SER1        0.0000 
      6 OG        159.6200  183.3300  229.2800 O.3       1 SER1        0.0000 
      7 OG        160.5300  178.3700  231.7300 O.3       1 SER1        0.0000 
      8 OG        162.7100  179.9100  230.3700 O.3       1 SER1        0.0000 
      9 OG        160.7900  180.3800  231.1300 O.3       1 SER1        0.0000 
     10 OG        161.8800  181.1600  230.4500 O.3       1 SER1        0.0000 
     11 OG        158.0400  182.1100  231.9700 O.3       1 SER1        0.0000 
     12 OG        159.1300  182.8800  231.2900 O.3       1 SER1        0.0000 
     13 OG        160.2200  183.6500  230.6100 O.3       1 SER1        0.0000 
     14 OG        161.9700  177.4400  232.9900 O.3       1 SER1        0.0000 
     15 OG        163.0600  178.2100  232.3100 O.3       1 SER1        0.0000 
     16 OG        164.1500  178.9800  231.6300 O.3       1 SER1        0.0000 
     17 OG        162.2300  179.4600  232.3900 O.3       1 SER1        0.0000 
     18 OG        163.3200  180.2300  231.7100 O.3       1 SER1        0.0000 
     19 OG        156.7200  182.9000  234.0700 O.3       1 SER1        0.0000 
     20 OG        158.9100  184.4400  232.7000 O.3       1 SER1        0.0000 
     21 OG        160.0000  185.2100  232.0200 O.3       1 SER1        0.0000 
     22 OG        156.2400  182.4500  236.0800 O.3       1 SER1        0.0000 
     23 OG        157.3300  183.2200  235.4000 O.3       1 SER1        0.0000 
     24 OG        158.4200  183.9900  234.7200 O.3       1 SER1        0.0000 
     25 OG        154.3100  182.9300  236.8400 O.3       1 SER1        0.0000 
     26 OG        162.3500  179.3300  235.7400 O.3       1 SER1        0.0000 
     27 OG        163.4400  180.1000  235.0600 O.3       1 SER1        0.0000 
     28 OG        162.6100  181.3400  235.1400 O.3       1 SER1        0.0000 
     29 OG        161.7800  182.5900  235.2100 O.3       1 SER1        0.0000 
     30 OG        162.8700  183.3600  234.5300 O.3       1 SER1        0.0000 
     31 OG        160.9500  183.8400  235.2900 O.3       1 SER1        0.0000 
     32 OG        156.8400  182.7700  237.4200 O.3       1 SER1        0.0000 
     33 OG        157.9400  183.5400  236.7300 O.3       1 SER1        0.0000 
     34 OG        159.0300  184.3100  236.0500 O.3       1 SER1        0.0000 
     35 OG        160.1200  185.0800  235.3700 O.3       1 SER1        0.0000 
     36 OG        156.0100  184.0200  237.4900 O.3       1 SER1        0.0000 
     37 OG        157.1000  184.7900  236.8100 O.3       1 SER1        0.0000 
     38 OG        158.2000  185.5600  236.1300 O.3       1 SER1        0.0000 
     39 OG        165.1400  181.1900  235.7100 O.3       1 SER1        0.0000 
     40 OG        163.2200  181.6600  236.4700 O.3       1 SER1        0.0000 
     41 OG        164.3100  182.4300  235.7900 O.3       1 SER1        0.0000 
     42 OG        165.4000  183.2100  235.1100 O.3       1 SER1        0.0000 
     43 OG        162.3900  182.9100  236.5500 O.3       1 SER1        0.0000 
     44 OG        160.4600  183.3900  237.3100 O.3       1 SER1        0.0000 
     45 OG        161.5600  184.1600  236.6300 O.3       1 SER1        0.0000 
     46 OG        158.5400  183.8600  238.0700 O.3       1 SER1        0.0000 
     47 OG        159.1500  184.1800  239.4000 O.3       1 SER1        0.0000 
     48 N         159.8400  181.7600  227.8600 N.am      2 ALA2        0.0000 
     49 O         161.0500  182.4000  230.5300 O.2       2 ALA2        0.0000 
     50 O         157.2100  183.3500  232.0500 O.2       2 ALA2        0.0000 
     51 O         157.5500  181.6600  233.9900 O.2       2 ALA2        0.0000 
     52 O         161.0900  185.9900  231.3400 O.2       2 ALA2        0.0000 
     53 N         162.9900  183.2300  237.8800 N.am      2 ALA2        0.0000 
     54 N         161.0700  183.7000  238.6400 N.am      2 ALA2        0.0000 
     55 OD1       159.5100  184.7600  234.0400 O.co2     3 ASP3        0.0000 
     56 OD1       160.6000  185.5300  233.3600 O.co2     3 ASP3        0.0000 
     57 OD1       155.7500  182.0000  238.1000 O.co2     3 ASP3        0.0000 
     58 OD1       154.9200  183.2500  238.1800 O.co2     3 ASP3        0.0000 
     59 OD1       157.4500  183.0900  238.7500 O.co2     3 ASP3        0.0000 
     60 NZ        163.6700  178.5300  233.6400 N.4       4 LYS4        0.0000 
     61 NZ        164.2700  178.8500  234.9800 N.4       4 LYS4        0.0000 
     62 CZ        161.5200  180.5700  235.8200 C.ar      5 PHE5        0.0000 
     63 CZ        158.5100  180.2800  237.2600 C.ar      5 PHE5        0.0000 
     64 CZ        159.6000  181.0500  236.5800 C.ar      5 PHE5        0.0000 
     65 CZ        160.6900  181.8200  235.9000 C.ar      5 PHE5        0.0000 
     66 CZ        157.6700  181.5200  237.3400 C.ar      5 PHE5        0.0000 
     67 CZ        158.7700  182.2900  236.6600 C.ar      5 PHE5        0.0000 
     68 CZ        166.2300  181.9600  235.0300 C.ar      5 PHE5        0.0000 
     69 CZ        161.3000  182.1400  237.2300 C.ar      5 PHE5        0.0000 
     70 CZ        158.2800  181.8400  238.6700 C.ar      5 PHE5        0.0000 
     71 CZ        159.3700  182.6100  237.9900 C.ar      5 PHE5        0.0000 
     72 CZ        165.7500  181.5100  237.0400 C.ar      5 PHE5        0.0000 
     73 CZ        161.9000  182.4600  238.5600 C.ar      5 PHE5        0.0000 
     74 CZ        159.9800  182.9300  239.3200 C.ar      5 PHE5        0.0000 
     75 CA        161.2800  180.8400  229.1200 C.3       6 GLY6        0.0000 
     76 CA        158.2600  180.5400  230.5600 C.3       6 GLY6        0.0000 
     77 CA        160.4500  182.0800  229.2000 C.3       6 GLY6        0.0000 
     78 CA        163.8100  180.6800  229.6900 C.3       6 GLY6        0.0000 
     79 CA        159.7000  179.6100  231.8100 C.3       6 GLY6        0.0000 
     80 CA        162.9800  181.9300  229.7700 C.3       6 GLY6        0.0000 
     81 CA        157.7800  180.0900  232.5700 C.3       6 GLY6        0.0000 
     82 CA        158.8700  180.8600  231.8900 C.3       6 GLY6        0.0000 
     83 CA        156.9500  181.3400  232.6500 C.3       6 GLY6        0.0000 
     84 CA        164.4100  181.0000  231.0300 C.3       6 GLY6        0.0000 
     85 CA        163.5800  182.2500  231.1000 C.3       6 GLY6        0.0000 
     86 CA        161.6600  182.7200  231.8600 C.3       6 GLY6        0.0000 
     87 CA        160.8300  183.9700  231.9400 C.3       6 GLY6        0.0000 
     88 CA        157.8100  183.6700  233.3800 C.3       6 GLY6        0.0000 
     89 CA        164.7600  179.3000  232.9600 C.3       6 GLY6        0.0000 
     90 CA        163.9300  180.5500  233.0400 C.3       6 GLY6        0.0000 
     91 CA        165.0200  181.3200  232.3600 C.3       6 GLY6        0.0000 
     92 CA        164.1900  182.5700  232.4400 C.3       6 GLY6        0.0000 
     93 CA        162.2700  183.0400  233.2000 C.3       6 GLY6        0.0000 
     94 CA        161.4400  184.2900  233.2800 C.3       6 GLY6        0.0000 
     95 CA        165.3600  179.6200  234.3000 C.3       6 GLY6        0.0000 
     96 CA        165.6300  181.6400  233.6900 C.3       6 GLY6        0.0000 
     97 CA        164.7900  182.8900  233.7700 C.3       6 GLY6        0.0000 
     98 CA        163.9600  184.1300  233.8500 C.3       6 GLY6        0.0000 
     99 CA        165.9700  179.9400  235.6300 C.3       6 GLY6        0.0000 
    100 CA        167.0600  180.7100  234.9500 C.3       6 GLY6        0.0000 
    101 CA        157.7100  185.1100  238.1500 C.3       6 GLY6        0.0000 
    102 CA        164.9200  182.7500  237.1200 C.3       6 GLY6        0.0000 
    103 DU        159.3500  181.3100  229.8800 H         7 CUB7        0.0000 
    104 DU        159.9600  181.6300  231.2100 H         7 CUB7        0.0000 
    105 DU        161.1400  178.6900  233.0700 H         7 CUB7        0.0000 
    106 DU        159.2200  179.1600  233.8300 H         7 CUB7        0.0000 
    107 DU        160.3100  179.9300  233.1500 H         7 CUB7        0.0000 
    108 DU        161.4000  180.7000  232.4700 H         7 CUB7        0.0000 
    109 DU        162.4900  181.4800  231.7900 H         7 CUB7        0.0000 
    110 DU        158.3800  180.4100  233.9100 H         7 CUB7        0.0000 
    111 DU        159.4800  181.1800  233.2300 H         7 CUB7        0.0000 
    112 DU        160.5700  181.9500  232.5500 H         7 CUB7        0.0000 
    113 DU        158.6500  182.4300  233.3100 H         7 CUB7        0.0000 
    114 DU        159.7400  183.2000  232.6200 H         7 CUB7        0.0000 
    115 DU        161.7400  179.0100  234.4000 H         7 CUB7        0.0000 
    116 DU        162.8400  179.7800  233.7200 H         7 CUB7        0.0000 
    117 DU        160.9100  180.2500  234.4800 H         7 CUB7        0.0000 
    118 DU        162.0000  181.0200  233.8000 H         7 CUB7        0.0000 
    119 DU        163.1000  181.7900  233.1200 H         7 CUB7        0.0000 
    120 DU        158.9900  180.7300  235.2400 H         7 CUB7        0.0000 
    121 DU        160.0800  181.5000  234.5600 H         7 CUB7        0.0000 
    122 DU        161.1700  182.2700  233.8800 H         7 CUB7        0.0000 
    123 DU        158.1600  181.9700  235.3200 H         7 CUB7        0.0000 
    124 DU        159.2500  182.7500  234.6400 H         7 CUB7        0.0000 
    125 DU        160.3400  183.5200  233.9600 H         7 CUB7        0.0000 
    126 DU        164.5300  180.8700  234.3800 H         7 CUB7        0.0000 
    127 DU        163.7000  182.1100  234.4500 H         7 CUB7        0.0000 
    128 DU        159.8600  183.0700  235.9700 H         7 CUB7        0.0000 
@<TRIPOS>BOND
@<TRIPOS>SUBSTRUCTURE
     1 SER1        1 GROUP   
     2 ALA2       48 GROUP   
     3 ASP3       55 GROUP   
     4 LYS4       60 GROUP   
     5 PHE5       62 GROUP   
     6 GLY6       75 GROUP   
     7 CUB7      103 GROUP   
@<TRIPOS>SET

