#    Name: 6ud8_1_ZK1
#    Modification time : Fri May 22 19:30:20 2020

@<TRIPOS>MOLECULE
6ud8_1_ZK1
   40    42     1     0     0
SMALL
NO_CHARGES


@<TRIPOS>ATOM
      1 OAA       214.0410  172.2170  242.4870 O.2       1 ZK1902      0.0000 
      2 OAB       211.3490  171.3220  242.1390 O.2       1 ZK1902      0.0000 
      3 OAC       208.0140  171.7090  239.0070 O.co2     1 ZK1902      0.0000 
      4 OAD       209.9570  173.1900  239.3310 O.co2     1 ZK1902      0.0000 
      5 OAE       208.8930  172.1120  241.2740 O.co2     1 ZK1902      0.0000 
      6 FAF       216.7120  171.2540  235.5950 F         1 ZK1902      0.0000 
      7 FAG       215.0720  172.0500  234.3120 F         1 ZK1902      0.0000 
      8 FAH       215.3740  169.8520  234.4970 F         1 ZK1902      0.0000 
      9 CAI       212.2660  170.5350  237.2560 C.ar      1 ZK1902      0.0000 
     10 CAJ       214.9290  171.4260  237.6140 C.ar      1 ZK1902      0.0000 
     11 CAK       211.0450  170.3480  233.1040 C.3       1 ZK1902      0.0000 
     12 CAL       212.0760  168.2740  233.4570 C.3       1 ZK1902      0.0000 
     13 CAM       211.4190  170.7340  234.5310 C.3       1 ZK1902      0.0000 
     14 CAN       212.5740  168.7050  234.8320 C.3       1 ZK1902      0.0000 
     15 CAO       210.4020  170.4880  239.6380 C.3       1 ZK1902      0.0000 
     16 NAP       214.4730  171.8330  240.1210 N.am      1 ZK1902      0.0000 
     17 OAQ       211.9550  169.3980  232.6300 O.3       1 ZK1902      0.0000 
     18 CAR       213.1500  170.5700  236.1680 C.ar      1 ZK1902      0.0000 
     19 CAS       214.4870  171.0150  236.3480 C.ar      1 ZK1902      0.0000 
     20 CAT       213.5950  171.8070  241.2280 C.2       1 ZK1902      0.0000 
     21 CAU       212.2250  171.3520  241.0510 C.2       1 ZK1902      0.0000 
     22 CAV       213.9860  171.3970  238.7870 C.ar      1 ZK1902      0.0000 
     23 CAW       212.7180  170.9720  238.6230 C.ar      1 ZK1902      0.0000 
     24 NAX       212.7050  170.1450  234.8540 N.3       1 ZK1902      0.0000 
     25 NAY       211.7780  170.9360  239.7770 N.am      1 ZK1902      0.0000 
     26 CAZ       215.4380  171.0440  235.1570 C.3       1 ZK1902      0.0000 
     27 PBA       209.2630  171.9430  239.8210 P.3       1 ZK1902      0.0000 
     28 HAI       211.3940  170.2430  237.1290 H         1 ZK1902      0.0000 
     29 HAJ       215.8030  171.7160  237.7310 H         1 ZK1902      0.0000 
     30 HAK       211.0730  171.1350  232.5400 H         1 ZK1902      0.0000 
     31 HAKA      210.1530  169.9700  233.0980 H         1 ZK1902      0.0000 
     32 HAL       212.7080  167.6520  233.0660 H         1 ZK1902      0.0000 
     33 HALA      211.2090  167.8490  233.5490 H         1 ZK1902      0.0000 
     34 HAM       211.4750  171.6980  234.6060 H         1 ZK1902      0.0000 
     35 HAMA      210.7400  170.3920  235.1310 H         1 ZK1902      0.0000 
     36 HAN       213.4370  168.3000  235.0080 H         1 ZK1902      0.0000 
     37 HANA      211.9350  168.4290  235.5070 H         1 ZK1902      0.0000 
     38 HAO       210.2090  169.8470  240.3380 H         1 ZK1902      0.0000 
     39 HAOA      210.2550  170.0710  238.7790 H         1 ZK1902      0.0000 
     40 HNAP      215.2830  172.1010  240.2180 H         1 ZK1902      0.0000 
@<TRIPOS>BOND
     1    1   20 2    
     2    2   21 2    
     3    3   27 ar   
     4    4   27 ar   
     5    5   27 ar   
     6    6   26 1    
     7    7   26 1    
     8    8   26 1    
     9    9   18 ar   
    10    9   23 ar   
    11   10   19 ar   
    12    9   28 1    
    13   10   22 ar   
    14   11   13 1    
    15   10   29 1    
    16   11   17 1    
    17   11   30 1    
    18   11   31 1    
    19   12   14 1    
    20   12   17 1    
    21   12   32 1    
    22   12   33 1    
    23   13   24 1    
    24   13   34 1    
    25   13   35 1    
    26   14   24 1    
    27   14   36 1    
    28   14   37 1    
    29   15   25 1    
    30   15   27 1    
    31   15   38 1    
    32   15   39 1    
    33   16   20 am   
    34   16   22 1    
    35   18   19 ar   
    36   16   40 1    
    37   18   24 1    
    38   19   26 1    
    39   20   21 1    
    40   21   25 am   
    41   22   23 ar   
    42   23   25 1    
@<TRIPOS>SUBSTRUCTURE
     1 ZK1902      1 GROUP   
@<TRIPOS>SET

