#    Name: 6ud8_1_ZK1_CAVITY_N1_6
#    Modification time : Fri May 22 19:30:21 2020

@<TRIPOS>MOLECULE
6ud8_1_ZK1_CAVITY_N1_6
  120     0     7     0     0
SMALL
NO_CHARGES


@<TRIPOS>ATOM
      1 OG        207.9200  170.2000  232.3900 O.3       1 SER1        0.0000 
      2 OG        207.0900  171.4500  232.4700 O.3       1 SER1        0.0000 
      3 OG        212.1100  167.5500  232.8000 O.3       1 SER1        0.0000 
      4 OG        211.2800  168.8000  232.8800 O.3       1 SER1        0.0000 
      5 OG        209.3600  169.2800  233.6400 O.3       1 SER1        0.0000 
      6 OG        210.4500  170.0500  232.9600 O.3       1 SER1        0.0000 
      7 OG        207.7000  171.7700  233.8000 O.3       1 SER1        0.0000 
      8 OG        207.2100  171.3200  235.8100 O.3       1 SER1        0.0000 
      9 OG        208.3000  172.0900  235.1300 O.3       1 SER1        0.0000 
     10 OG        214.4200  168.9600  234.7900 O.3       1 SER1        0.0000 
     11 OG        213.5900  170.2100  234.8700 O.3       1 SER1        0.0000 
     12 OG        213.8500  172.2300  234.2700 O.3       1 SER1        0.0000 
     13 OG        208.9100  172.4100  236.4700 O.3       1 SER1        0.0000 
     14 OG        216.1200  170.0600  235.4400 O.3       1 SER1        0.0000 
     15 OG        213.1000  169.7600  236.8800 O.3       1 SER1        0.0000 
     16 OG        214.1900  170.5300  236.2000 O.3       1 SER1        0.0000 
     17 OG        215.2900  171.3000  235.5200 O.3       1 SER1        0.0000 
     18 OG        216.3800  172.0700  234.8400 O.3       1 SER1        0.0000 
     19 OG        213.3600  171.7800  236.2800 O.3       1 SER1        0.0000 
     20 OG        208.4300  171.9600  238.4800 O.3       1 SER1        0.0000 
     21 OG        209.5200  172.7300  237.8000 O.3       1 SER1        0.0000 
     22 OG        214.8000  170.8500  237.5400 O.3       1 SER1        0.0000 
     23 OG        215.8900  171.6200  236.8600 O.3       1 SER1        0.0000 
     24 OG        213.9700  172.1000  237.6200 O.3       1 SER1        0.0000 
     25 OG        210.9500  171.8000  239.0600 O.3       1 SER1        0.0000 
     26 OG        212.0500  172.5700  238.3800 O.3       1 SER1        0.0000 
     27 OG        213.1400  173.3400  237.7000 O.3       1 SER1        0.0000 
     28 OG        209.0300  172.2800  239.8200 O.3       1 SER1        0.0000 
     29 OG        211.2200  173.8200  238.4600 O.3       1 SER1        0.0000 
     30 OG        213.4800  171.6500  239.6300 O.3       1 SER1        0.0000 
     31 OG        214.5800  172.4200  238.9500 O.3       1 SER1        0.0000 
     32 OG        211.5600  172.1200  240.3900 O.3       1 SER1        0.0000 
     33 OG        212.6500  172.8900  239.7100 O.3       1 SER1        0.0000 
     34 OG        209.6400  172.6000  241.1500 O.3       1 SER1        0.0000 
     35 OG        210.7300  173.3700  240.4700 O.3       1 SER1        0.0000 
     36 OG        211.3400  173.6900  241.8000 O.3       1 SER1        0.0000 
     37 O         210.7100  172.0600  232.3600 O.2       2 ALA2        0.0000 
     38 N         207.5600  169.6200  237.7500 N.am      2 ALA2        0.0000 
     39 O         207.9400  171.5100  240.5000 O.2       2 ALA2        0.0000 
     40 O         208.5500  171.8300  241.8300 O.2       2 ALA2        0.0000 
     41 O         206.6200  172.3000  242.5900 O.2       2 ALA2        0.0000 
     42 N         210.3300  169.2000  245.0200 N.am      2 ALA2        0.0000 
     43 OD1       210.8100  169.6500  243.0100 O.co2     3 ASP3        0.0000 
     44 OD1       211.9100  170.4200  242.3300 O.co2     3 ASP3        0.0000 
     45 OD1       209.9800  170.9000  243.0900 O.co2     3 ASP3        0.0000 
     46 OD1       211.0800  171.6700  242.4100 O.co2     3 ASP3        0.0000 
     47 OD1       212.1700  172.4400  241.7300 O.co2     3 ASP3        0.0000 
     48 OD1       209.1500  172.1400  243.1700 O.co2     3 ASP3        0.0000 
     49 OD1       210.2400  172.9200  242.4900 O.co2     3 ASP3        0.0000 
     50 OD1       209.5000  170.4500  245.1000 O.co2     3 ASP3        0.0000 
     51 OD1       209.7600  172.4600  244.5000 O.co2     3 ASP3        0.0000 
     52 OD1       211.9400  174.0100  243.1400 O.co2     3 ASP3        0.0000 
     53 OD1       208.9300  173.7100  244.5800 O.co2     3 ASP3        0.0000 
     54 OD1       209.2700  172.0100  246.5200 O.co2     3 ASP3        0.0000 
     55 OD1       209.5400  174.0300  245.9100 O.co2     3 ASP3        0.0000 
     56 NZ        212.7200  167.8700  234.1400 N.4       4 LYS4        0.0000 
     57 NZ        210.2300  171.6100  234.3700 N.4       4 LYS4        0.0000 
     58 NZ        209.4000  172.8600  234.4500 N.4       4 LYS4        0.0000 
     59 NZ        213.3300  168.1900  235.4700 N.4       4 LYS4        0.0000 
     60 NZ        210.8300  171.9300  235.7100 N.4       4 LYS4        0.0000 
     61 NZ        211.9300  172.7000  235.0300 N.4       4 LYS4        0.0000 
     62 NZ        210.0000  173.1800  235.7900 N.4       4 LYS4        0.0000 
     63 NZ        211.4400  172.2500  237.0400 N.4       4 LYS4        0.0000 
     64 NZ        212.5300  173.0200  236.3600 N.4       4 LYS4        0.0000 
     65 NZ        210.6100  173.5000  237.1200 N.4       4 LYS4        0.0000 
     66 NZ        212.3100  174.5900  237.7700 N.4       4 LYS4        0.0000 
     67 NZ        207.2300  172.6200  243.9300 N.4       4 LYS4        0.0000 
     68 CZ        217.2100  170.8300  234.7600 C.ar      5 PHE5        0.0000 
     69 CZ        212.0100  168.9900  237.5600 C.ar      5 PHE5        0.0000 
     70 CZ        211.7900  170.5500  238.9800 C.ar      5 PHE5        0.0000 
     71 CZ        212.8800  171.3300  238.3000 C.ar      5 PHE5        0.0000 
     72 CZ        211.3000  170.1000  240.9900 C.ar      5 PHE5        0.0000 
     73 CZ        212.3900  170.8700  240.3100 C.ar      5 PHE5        0.0000 
     74 CZ        213.0000  171.1900  241.6500 C.ar      5 PHE5        0.0000 
     75 CA        209.0100  170.9700  231.7100 C.3       6 GLY6        0.0000 
     76 CA        213.2000  168.3300  232.1200 C.3       6 GLY6        0.0000 
     77 CA        212.3700  169.5700  232.2000 C.3       6 GLY6        0.0000 
     78 CA        211.5400  170.8200  232.2800 C.3       6 GLY6        0.0000 
     79 CA        208.5300  170.5200  233.7200 C.3       6 GLY6        0.0000 
     80 CA        209.6200  171.2900  233.0400 C.3       6 GLY6        0.0000 
     81 CA        206.6100  171.0000  234.4800 C.3       6 GLY6        0.0000 
     82 CA        208.7900  172.5400  233.1200 C.3       6 GLY6        0.0000 
     83 CA        213.8100  168.6400  233.4600 C.3       6 GLY6        0.0000 
     84 CA        212.9800  169.8900  233.5300 C.3       6 GLY6        0.0000 
     85 CA        208.8700  168.8200  235.6600 C.3       6 GLY6        0.0000 
     86 CA        212.1500  171.1400  233.6100 C.3       6 GLY6        0.0000 
     87 CA        208.0400  170.0700  235.7400 C.3       6 GLY6        0.0000 
     88 CA        211.3200  172.3800  233.6900 C.3       6 GLY6        0.0000 
     89 CA        215.5100  169.7400  234.1100 C.3       6 GLY6        0.0000 
     90 CA        216.6000  170.5100  233.4300 C.3       6 GLY6        0.0000 
     91 CA        214.6800  170.9800  234.1900 C.3       6 GLY6        0.0000 
     92 CA        215.7700  171.7500  233.5100 C.3       6 GLY6        0.0000 
     93 CA        208.6500  170.3900  237.0700 C.3       6 GLY6        0.0000 
     94 CA        207.8200  171.6400  237.1500 C.3       6 GLY6        0.0000 
     95 CA        207.7200  173.0700  241.9100 C.3       6 GLY6        0.0000 
     96 CA        209.4100  174.1600  242.5600 C.3       6 GLY6        0.0000 
     97 CA        210.5100  174.9300  241.8800 C.3       6 GLY6        0.0000 
     98 CA        209.6700  176.1800  241.9600 C.3       6 GLY6        0.0000 
     99 CA        210.0200  174.4800  243.9000 C.3       6 GLY6        0.0000 
    100 CA        211.1100  175.2500  243.2200 C.3       6 GLY6        0.0000 
    101 CA        210.6300  174.8000  245.2300 C.3       6 GLY6        0.0000 
    102 DU        211.8900  169.1200  234.2200 H         7 CUB7        0.0000 
    103 DU        209.9700  169.6000  234.9800 H         7 CUB7        0.0000 
    104 DU        211.0600  170.3700  234.2900 H         7 CUB7        0.0000 
    105 DU        209.1400  170.8400  235.0500 H         7 CUB7        0.0000 
    106 DU        212.5000  169.4400  235.5500 H         7 CUB7        0.0000 
    107 DU        210.5700  169.9200  236.3100 H         7 CUB7        0.0000 
    108 DU        211.6600  170.6900  235.6300 H         7 CUB7        0.0000 
    109 DU        212.7600  171.4600  234.9500 H         7 CUB7        0.0000 
    110 DU        209.7400  171.1600  236.3900 H         7 CUB7        0.0000 
    111 DU        211.1800  170.2300  237.6400 H         7 CUB7        0.0000 
    112 DU        212.2700  171.0100  236.9600 H         7 CUB7        0.0000 
    113 DU        209.2600  170.7100  238.4000 H         7 CUB7        0.0000 
    114 DU        210.3500  171.4800  237.7200 H         7 CUB7        0.0000 
    115 DU        209.8600  171.0300  239.7400 H         7 CUB7        0.0000 
    116 DU        209.3800  170.5800  241.7500 H         7 CUB7        0.0000 
    117 DU        210.4700  171.3500  241.0700 H         7 CUB7        0.0000 
    118 DU        208.8900  170.1300  243.7700 H         7 CUB7        0.0000 
    119 DU        208.0600  171.3700  243.8500 H         7 CUB7        0.0000 
    120 DU        207.8400  172.9400  245.2600 H         7 CUB7        0.0000 
@<TRIPOS>BOND
@<TRIPOS>SUBSTRUCTURE
     1 SER1        1 GROUP   
     2 ALA2       37 GROUP   
     3 ASP3       43 GROUP   
     4 LYS4       56 GROUP   
     5 PHE5       68 GROUP   
     6 GLY6       75 GROUP   
     7 CUB7      102 GROUP   
@<TRIPOS>SET

