#    Name: 6ud8_3_ZK1
#    Modification time : Fri May 22 19:30:28 2020

@<TRIPOS>MOLECULE
6ud8_3_ZK1
   40    42     1     0     0
SMALL
NO_CHARGES


@<TRIPOS>ATOM
      1 OAA       169.6790  211.5890  242.4610 O.2       1 ZK1902      0.0000 
      2 OAB       172.3780  212.4550  242.1150 O.2       1 ZK1902      0.0000 
      3 OAC       175.6380  211.8660  239.0490 O.co2     1 ZK1902      0.0000 
      4 OAD       174.9770  211.9950  241.4190 O.co2     1 ZK1902      0.0000 
      5 OAE       173.7150  210.5550  239.8670 O.co2     1 ZK1902      0.0000 
      6 FAF       167.0200  212.5540  235.5670 F         1 ZK1902      0.0000 
      7 FAG       168.6530  211.7420  234.2860 F         1 ZK1902      0.0000 
      8 FAH       168.3690  213.9430  234.4660 F         1 ZK1902      0.0000 
      9 CAI       171.4720  213.2370  237.2260 C.ar      1 ZK1902      0.0000 
     10 CAJ       168.8020  212.3750  237.5870 C.ar      1 ZK1902      0.0000 
     11 CAK       172.7040  213.4060  233.0800 C.3       1 ZK1902      0.0000 
     12 CAL       171.6900  215.4890  233.4250 C.3       1 ZK1902      0.0000 
     13 CAM       172.3220  213.0250  234.5050 C.3       1 ZK1902      0.0000 
     14 CAN       171.1840  215.0640  234.8000 C.3       1 ZK1902      0.0000 
     15 CAO       173.3380  213.2740  239.6100 C.3       1 ZK1902      0.0000 
     16 NAP       169.2530  211.9700  240.0950 N.am      1 ZK1902      0.0000 
     17 OAQ       171.8040  214.3630  232.6010 O.3       1 ZK1902      0.0000 
     18 CAR       170.5890  213.2080  236.1380 C.ar      1 ZK1902      0.0000 
     19 CAS       169.2470  212.7770  236.3190 C.ar      1 ZK1902      0.0000 
     20 CAT       170.1310  211.9900  241.2020 C.2       1 ZK1902      0.0000 
     21 CAU       171.5050  212.4310  241.0240 C.2       1 ZK1902      0.0000 
     22 CAV       169.7450  212.3980  238.7600 C.ar      1 ZK1902      0.0000 
     23 CAW       171.0170  212.8090  238.5950 C.ar      1 ZK1902      0.0000 
     24 NAX       171.0400  213.6260  234.8240 N.3       1 ZK1902      0.0000 
     25 NAY       171.9580  212.8390  239.7500 N.am      1 ZK1902      0.0000 
     26 CAZ       168.2960  212.7540  235.1290 C.3       1 ZK1902      0.0000 
     27 PBA       174.4690  211.8550  240.0050 P.3       1 ZK1902      0.0000 
     28 HAI       172.3470  213.5210  237.0980 H         1 ZK1902      0.0000 
     29 HAJ       167.9250  212.0930  237.7050 H         1 ZK1902      0.0000 
     30 HAK       172.6720  212.6190  232.5160 H         1 ZK1902      0.0000 
     31 HAKA      173.6000  213.7770  233.0760 H         1 ZK1902      0.0000 
     32 HAL       171.0640  216.1160  233.0310 H         1 ZK1902      0.0000 
     33 HALA      172.5590  215.9070  233.5200 H         1 ZK1902      0.0000 
     34 HAM       172.2570  212.0610  234.5810 H         1 ZK1902      0.0000 
     35 HAMA      173.0020  213.3610  235.1070 H         1 ZK1902      0.0000 
     36 HAN       170.3250  215.4770  234.9730 H         1 ZK1902      0.0000 
     37 HANA      171.8240  215.3360  235.4760 H         1 ZK1902      0.0000 
     38 HAO       173.5060  213.9940  240.2350 H         1 ZK1902      0.0000 
     39 HAOA      173.5210  213.5840  238.7140 H         1 ZK1902      0.0000 
     40 HNAP      168.4400  211.7110  240.1920 H         1 ZK1902      0.0000 
@<TRIPOS>BOND
     1    1   20 2    
     2    2   21 2    
     3    3   27 ar   
     4    4   27 ar   
     5    5   27 ar   
     6    6   26 1    
     7    7   26 1    
     8    8   26 1    
     9    9   18 ar   
    10    9   23 ar   
    11   10   19 ar   
    12    9   28 1    
    13   10   22 ar   
    14   11   13 1    
    15   10   29 1    
    16   11   17 1    
    17   11   30 1    
    18   11   31 1    
    19   12   14 1    
    20   12   17 1    
    21   12   32 1    
    22   12   33 1    
    23   13   24 1    
    24   13   34 1    
    25   13   35 1    
    26   14   24 1    
    27   14   36 1    
    28   14   37 1    
    29   15   25 1    
    30   15   27 1    
    31   15   38 1    
    32   15   39 1    
    33   16   20 am   
    34   16   22 1    
    35   18   19 ar   
    36   16   40 1    
    37   18   24 1    
    38   19   26 1    
    39   20   21 1    
    40   21   25 am   
    41   22   23 ar   
    42   23   25 1    
@<TRIPOS>SUBSTRUCTURE
     1 ZK1902      1 GROUP   
@<TRIPOS>SET

