#    Name: 6ud8_3_ZK1_CAVITY_N1_ALL
#    Modification time : Fri May 22 19:30:29 2020

@<TRIPOS>MOLECULE
6ud8_3_ZK1_CAVITY_N1_ALL
  103     0     6     0     0
SMALL
NO_CHARGES


@<TRIPOS>ATOM
      1 OG        175.1000  213.3400  231.9100 O.3       1 SER1        0.0000 
      2 OG        169.9000  211.5000  234.7100 O.3       1 SER1        0.0000 
      3 OG        173.1800  213.8200  232.6700 O.3       1 SER1        0.0000 
      4 OG        167.9800  211.9800  235.4700 O.3       1 SER1        0.0000 
      5 OG        172.3500  215.0600  232.7500 O.3       1 SER1        0.0000 
      6 OG        167.1500  213.2300  235.5500 O.3       1 SER1        0.0000 
      7 OG        168.2400  214.0000  234.8700 O.3       1 SER1        0.0000 
      8 OG        172.6100  217.0800  232.1500 O.3       1 SER1        0.0000 
      9 OG        177.3700  211.1700  233.0900 O.3       1 SER1        0.0000 
     10 OG        175.4500  211.6400  233.8500 O.3       1 SER1        0.0000 
     11 OG        176.5400  212.4200  233.1700 O.3       1 SER1        0.0000 
     12 OG        175.7100  213.6600  233.2400 O.3       1 SER1        0.0000 
     13 OG        170.5100  211.8200  236.0500 O.3       1 SER1        0.0000 
     14 OG        173.7800  214.1400  234.0000 O.3       1 SER1        0.0000 
     15 OG        174.8800  214.9100  233.3200 O.3       1 SER1        0.0000 
     16 OG        168.5900  212.3000  236.8100 O.3       1 SER1        0.0000 
     17 OG        169.6800  213.0700  236.1300 O.3       1 SER1        0.0000 
     18 OG        170.7700  213.8400  235.4500 O.3       1 SER1        0.0000 
     19 OG        172.9500  215.3800  234.0800 O.3       1 SER1        0.0000 
     20 OG        174.0400  216.1500  233.4000 O.3       1 SER1        0.0000 
     21 OG        169.9400  215.0900  235.5200 O.3       1 SER1        0.0000 
     22 OG        177.9700  211.4900  234.4200 O.3       1 SER1        0.0000 
     23 OG        174.9600  211.1900  235.8600 O.3       1 SER1        0.0000 
     24 OG        176.0500  211.9600  235.1800 O.3       1 SER1        0.0000 
     25 OG        170.8500  210.1300  237.9800 O.3       1 SER1        0.0000 
     26 OG        170.0200  211.3700  238.0600 O.3       1 SER1        0.0000 
     27 OG        170.2800  213.3900  237.4600 O.3       1 SER1        0.0000 
     28 OG        171.3800  214.1600  236.7800 O.3       1 SER1        0.0000 
     29 OG        175.5700  211.5100  237.2000 O.3       1 SER1        0.0000 
     30 OG        171.4600  210.4500  239.3200 O.3       1 SER1        0.0000 
     31 OG        172.5500  211.2200  238.6400 O.3       1 SER1        0.0000 
     32 OG        173.6400  211.9900  237.9600 O.3       1 SER1        0.0000 
     33 OG        170.6300  211.6900  239.4000 O.3       1 SER1        0.0000 
     34 OG        172.0700  210.7700  240.6500 O.3       1 SER1        0.0000 
     35 OG        173.1600  211.5400  239.9700 O.3       1 SER1        0.0000 
     36 OG        174.2500  212.3100  239.2900 O.3       1 SER1        0.0000 
     37 OG        171.2400  212.0100  240.7300 O.3       1 SER1        0.0000 
     38 O         173.7500  210.5500  233.1900 O.2       2 ALA2        0.0000 
     39 NZ        170.4200  215.5400  233.5100 N.4       3 LYS4        0.0000 
     40 NZ        170.6900  217.5600  232.9100 N.4       3 LYS4        0.0000 
     41 NZ        174.3500  210.8700  234.5300 N.4       3 LYS4        0.0000 
     42 NZ        172.4300  211.3500  235.2900 N.4       3 LYS4        0.0000 
     43 NZ        173.5200  212.1200  234.6100 N.4       3 LYS4        0.0000 
     44 NZ        171.0300  215.8600  234.8400 N.4       3 LYS4        0.0000 
     45 NZ        171.9500  210.9000  237.3000 N.4       3 LYS4        0.0000 
     46 NZ        173.0400  211.6700  236.6200 N.4       3 LYS4        0.0000 
     47 CZ        167.3700  211.6600  234.1400 C.ar      4 PHE5        0.0000 
     48 CZ        166.5400  212.9100  234.2200 C.ar      4 PHE5        0.0000 
     49 CZ        169.1900  212.6200  238.1400 C.ar      4 PHE5        0.0000 
     50 CZ        171.7200  212.4600  238.7200 C.ar      4 PHE5        0.0000 
     51 CZ        169.8000  212.9400  239.4800 C.ar      4 PHE5        0.0000 
     52 CZ        170.8900  213.7100  238.7900 C.ar      4 PHE5        0.0000 
     53 CZ        171.9800  214.4800  238.1100 C.ar      4 PHE5        0.0000 
     54 CZ        171.5000  214.0300  240.1300 C.ar      4 PHE5        0.0000 
     55 CZ        172.5900  214.8000  239.4500 C.ar      4 PHE5        0.0000 
     56 CA        172.3100  211.4800  231.9400 C.3       5 GLY6        0.0000 
     57 CA        173.4000  212.2500  231.2600 C.3       5 GLY6        0.0000 
     58 CA        169.3000  211.1800  233.3800 C.3       5 GLY6        0.0000 
     59 CA        170.3900  211.9600  232.7000 C.3       5 GLY6        0.0000 
     60 CA        171.4800  212.7300  232.0200 C.3       5 GLY6        0.0000 
     61 CA        172.5700  213.5000  231.3400 C.3       5 GLY6        0.0000 
     62 CA        168.4700  212.4300  233.4600 C.3       5 GLY6        0.0000 
     63 CA        170.6500  213.9700  232.1000 C.3       5 GLY6        0.0000 
     64 CA        167.6300  213.6800  233.5400 C.3       5 GLY6        0.0000 
     65 CA        170.9100  215.9900  231.4900 C.3       5 GLY6        0.0000 
     66 CA        174.8400  211.3200  232.5100 C.3       5 GLY6        0.0000 
     67 CA        175.9300  212.1000  231.8300 C.3       5 GLY6        0.0000 
     68 CA        171.8300  211.0300  233.9500 C.3       5 GLY6        0.0000 
     69 CA        172.9200  211.8000  233.2700 C.3       5 GLY6        0.0000 
     70 CA        174.0100  212.5700  232.5900 C.3       5 GLY6        0.0000 
     71 CA        170.9900  212.2800  234.0300 C.3       5 GLY6        0.0000 
     72 CA        170.1600  213.5200  234.1100 C.3       5 GLY6        0.0000 
     73 CA        171.2600  214.2900  233.4300 C.3       5 GLY6        0.0000 
     74 CA        169.3300  214.7700  234.1900 C.3       5 GLY6        0.0000 
     75 CA        177.1400  212.7300  234.5000 C.3       5 GLY6        0.0000 
     76 CA        175.2200  213.2100  235.2600 C.3       5 GLY6        0.0000 
     77 CA        174.3900  214.4600  235.3400 C.3       5 GLY6        0.0000 
     78 CA        173.5600  215.7000  235.4200 C.3       5 GLY6        0.0000 
     79 CA        176.6600  212.2800  236.5100 C.3       5 GLY6        0.0000 
     80 CA        175.8300  213.5300  236.5900 C.3       5 GLY6        0.0000 
     81 CA        175.0000  214.7800  236.6700 C.3       5 GLY6        0.0000 
     82 CA        174.1700  216.0200  236.7500 C.3       5 GLY6        0.0000 
     83 CA        176.4300  213.8500  237.9300 C.3       5 GLY6        0.0000 
     84 DU        172.0900  213.0500  233.3500 H         6 CUB7        0.0000 
     85 DU        169.0700  212.7500  234.7900 H         6 CUB7        0.0000 
     86 DU        171.5200  216.3100  232.8300 H         6 CUB7        0.0000 
     87 DU        174.6100  212.8900  233.9300 H         6 CUB7        0.0000 
     88 DU        171.6000  212.5900  235.3700 H         6 CUB7        0.0000 
     89 DU        172.6900  213.3700  234.6900 H         6 CUB7        0.0000 
     90 DU        171.8600  214.6100  234.7600 H         6 CUB7        0.0000 
     91 DU        172.1200  216.6300  234.1600 H         6 CUB7        0.0000 
     92 DU        174.1300  212.4400  235.9400 H         6 CUB7        0.0000 
     93 DU        171.1200  212.1400  237.3800 H         6 CUB7        0.0000 
     94 DU        172.2100  212.9100  236.7000 H         6 CUB7        0.0000 
     95 DU        173.3000  213.6900  236.0200 H         6 CUB7        0.0000 
     96 DU        172.4700  214.9300  236.1000 H         6 CUB7        0.0000 
     97 DU        174.7400  212.7600  237.2700 H         6 CUB7        0.0000 
     98 DU        172.8100  213.2300  238.0300 H         6 CUB7        0.0000 
     99 DU        173.9100  214.0100  237.3500 H         6 CUB7        0.0000 
    100 DU        173.0700  215.2500  237.4300 H         6 CUB7        0.0000 
    101 DU        172.3300  212.7800  240.0500 H         6 CUB7        0.0000 
    102 DU        173.4200  213.5500  239.3700 H         6 CUB7        0.0000 
    103 DU        174.0300  213.8700  240.7000 H         6 CUB7        0.0000 
@<TRIPOS>BOND
@<TRIPOS>SUBSTRUCTURE
     1 SER1        1 GROUP   
     2 ALA2       38 GROUP   
     3 LYS4       39 GROUP   
     4 PHE5       47 GROUP   
     5 GLY6       56 GROUP   
     6 CUB7       84 GROUP   
@<TRIPOS>SET

