#    Name: 6ud8_4_ZK1_CAVITY_N1_8
#    Modification time : Fri May 22 19:30:33 2020

@<TRIPOS>MOLECULE
6ud8_4_ZK1_CAVITY_N1_8
  119     0     7     0     0
SMALL
NO_CHARGES


@<TRIPOS>ATOM
      1 OG        223.7700  200.8000  229.6600 O.3       1 SER1        0.0000 
      2 OG        222.1100  203.2900  229.8100 O.3       1 SER1        0.0000 
      3 OG        220.1900  203.7700  230.5700 O.3       1 SER1        0.0000 
      4 OG        224.1200  199.1000  231.5900 O.3       1 SER1        0.0000 
      5 OG        224.3800  201.1200  230.9900 O.3       1 SER1        0.0000 
      6 OG        225.4700  201.8900  230.3100 O.3       1 SER1        0.0000 
      7 OG        218.3500  200.5300  233.8700 O.3       1 SER1        0.0000 
      8 OG        222.7200  203.6100  231.1500 O.3       1 SER1        0.0000 
      9 OG        223.8100  204.3800  230.4700 O.3       1 SER1        0.0000 
     10 OG        220.7900  204.0900  231.9100 O.3       1 SER1        0.0000 
     11 OG        219.9600  205.3300  231.9900 O.3       1 SER1        0.0000 
     12 OG        224.7200  199.4200  232.9300 O.3       1 SER1        0.0000 
     13 OG        225.8100  200.1900  232.2500 O.3       1 SER1        0.0000 
     14 OG        222.8000  199.9000  233.6900 O.3       1 SER1        0.0000 
     15 OG        220.8800  200.3700  234.4500 O.3       1 SER1        0.0000 
     16 OG        218.9600  200.8500  235.2100 O.3       1 SER1        0.0000 
     17 OG        219.2200  202.8600  234.6100 O.3       1 SER1        0.0000 
     18 OG        222.4900  205.1800  232.5600 O.3       1 SER1        0.0000 
     19 OG        223.5800  205.9500  231.8800 O.3       1 SER1        0.0000 
     20 OG        221.6600  206.4200  232.6400 O.3       1 SER1        0.0000 
     21 OG        224.2400  198.9700  234.9400 O.3       1 SER1        0.0000 
     22 OG        225.3300  199.7400  234.2600 O.3       1 SER1        0.0000 
     23 OG        226.4200  200.5100  233.5800 O.3       1 SER1        0.0000 
     24 OG        222.3200  199.4400  235.7000 O.3       1 SER1        0.0000 
     25 OG        223.4100  200.2200  235.0200 O.3       1 SER1        0.0000 
     26 OG        221.4800  200.6900  235.7800 O.3       1 SER1        0.0000 
     27 OG        219.5600  201.1700  236.5400 O.3       1 SER1        0.0000 
     28 OG        220.6500  201.9400  235.8600 O.3       1 SER1        0.0000 
     29 OG        221.7500  202.7100  235.1800 O.3       1 SER1        0.0000 
     30 OG        218.7300  202.4100  236.6200 O.3       1 SER1        0.0000 
     31 OG        220.9100  203.9500  235.2600 O.3       1 SER1        0.0000 
     32 OG        218.9900  204.4300  236.0200 O.3       1 SER1        0.0000 
     33 OG        220.0800  205.2000  235.3400 O.3       1 SER1        0.0000 
     34 OG        224.8400  199.2900  236.2800 O.3       1 SER1        0.0000 
     35 OG        225.9400  200.0600  235.6000 O.3       1 SER1        0.0000 
     36 OG        227.0300  200.8300  234.9100 O.3       1 SER1        0.0000 
     37 OG        222.9200  199.7600  237.0400 O.3       1 SER1        0.0000 
     38 OG        224.0100  200.5400  236.3600 O.3       1 SER1        0.0000 
     39 OG        226.2800  198.3600  237.5300 O.3       1 SER1        0.0000 
     40 OG        225.4500  199.6100  237.6100 O.3       1 SER1        0.0000 
     41 OG        226.5400  200.3800  236.9300 O.3       1 SER1        0.0000 
     42 OG        227.6300  201.1500  236.2500 O.3       1 SER1        0.0000 
     43 OG        228.7300  201.9200  235.5700 O.3       1 SER1        0.0000 
     44 OG        223.5300  200.0800  238.3700 O.3       1 SER1        0.0000 
     45 OG        228.2400  201.4700  237.5800 O.3       1 SER1        0.0000 
     46 O         222.6800  200.0300  230.3400 O.2       2 ALA2        0.0000 
     47 O         221.8500  201.2700  230.4200 O.2       2 ALA2        0.0000 
     48 O         223.2900  200.3500  231.6700 O.2       2 ALA2        0.0000 
     49 O         226.9100  200.9600  231.5700 O.2       2 ALA2        0.0000 
     50 N         221.0000  200.2400  237.8000 N.am      2 ALA2        0.0000 
     51 OD1       225.5500  198.1700  232.8500 O.co2     3 ASP3        0.0000 
     52 OD1       223.6300  198.6500  233.6100 O.co2     3 ASP3        0.0000 
     53 OD1       227.9800  199.4500  238.1800 O.co2     3 ASP3        0.0000 
     54 OD1       226.0600  199.9300  238.9400 O.co2     3 ASP3        0.0000 
     55 OD1       227.1500  200.7000  238.2600 O.co2     3 ASP3        0.0000 
     56 OD1       226.9200  202.2700  239.6800 O.co2     3 ASP3        0.0000 
     57 NZ        218.3900  204.1100  234.6800 N.4       4 LYS4        0.0000 
     58 NZ        219.4800  204.8800  234.0000 N.4       4 LYS4        0.0000 
     59 CZ        218.1200  202.0900  235.2900 C.ar      5 PHE5        0.0000 
     60 CZ        217.2900  203.3400  235.3700 C.ar      5 PHE5        0.0000 
     61 CZ        222.0900  201.0100  237.1200 C.ar      5 PHE5        0.0000 
     62 CZ        223.1800  201.7800  236.4300 C.ar      5 PHE5        0.0000 
     63 CZ        224.2700  202.5500  235.7500 C.ar      5 PHE5        0.0000 
     64 CZ        223.4400  203.8000  235.8300 C.ar      5 PHE5        0.0000 
     65 CZ        224.6200  200.8600  237.6900 C.ar      5 PHE5        0.0000 
     66 CZ        225.7100  201.6300  237.0100 C.ar      5 PHE5        0.0000 
     67 CZ        222.7000  201.3300  238.4500 C.ar      5 PHE5        0.0000 
     68 CZ        224.8800  202.8700  237.0900 C.ar      5 PHE5        0.0000 
     69 CZ        225.2300  201.1700  239.0200 C.ar      5 PHE5        0.0000 
     70 CZ        226.3200  201.9500  238.3400 C.ar      5 PHE5        0.0000 
     71 CZ        226.5800  203.9600  237.7400 C.ar      5 PHE5        0.0000 
     72 CA        220.7600  200.5000  231.1000 C.3       6 GLY6        0.0000 
     73 CA        222.9400  202.0500  229.7400 C.3       6 GLY6        0.0000 
     74 CA        218.8300  200.9800  231.8600 C.3       6 GLY6        0.0000 
     75 CA        219.9300  201.7500  231.1800 C.3       6 GLY6        0.0000 
     76 CA        221.0200  202.5200  230.5000 C.3       6 GLY6        0.0000 
     77 CA        223.0200  198.3300  232.2700 C.3       6 GLY6        0.0000 
     78 CA        222.1900  199.5800  232.3500 C.3       6 GLY6        0.0000 
     79 CA        221.3600  200.8200  232.4300 C.3       6 GLY6        0.0000 
     80 CA        224.6400  203.1400  230.3900 C.3       6 GLY6        0.0000 
     81 CA        219.4400  201.3000  233.1900 C.3       6 GLY6        0.0000 
     82 CA        220.5300  202.0700  232.5100 C.3       6 GLY6        0.0000 
     83 CA        217.5200  201.7700  233.9500 C.3       6 GLY6        0.0000 
     84 CA        218.6100  202.5400  233.2700 C.3       6 GLY6        0.0000 
     85 CA        219.7000  203.3200  232.5900 C.3       6 GLY6        0.0000 
     86 CA        218.8700  204.5600  232.6700 C.3       6 GLY6        0.0000 
     87 CA        218.0400  205.8100  232.7500 C.3       6 GLY6        0.0000 
     88 CA        226.0800  202.2100  231.6400 C.3       6 GLY6        0.0000 
     89 CA        225.2400  203.4600  231.7200 C.3       6 GLY6        0.0000 
     90 CA        224.4100  204.7000  231.8000 C.3       6 GLY6        0.0000 
     91 CA        226.6800  202.5300  232.9800 C.3       6 GLY6        0.0000 
     92 CA        227.2900  202.8500  234.3100 C.3       6 GLY6        0.0000 
     93 DU        222.4500  201.5900  231.7500 H         7 CUB7        0.0000 
     94 DU        223.5500  202.3600  231.0700 H         7 CUB7        0.0000 
     95 DU        221.6200  202.8400  231.8300 H         7 CUB7        0.0000 
     96 DU        223.8900  200.6700  233.0100 H         7 CUB7        0.0000 
     97 DU        224.9800  201.4400  232.3300 H         7 CUB7        0.0000 
     98 DU        221.9700  201.1400  233.7700 H         7 CUB7        0.0000 
     99 DU        224.1500  202.6800  232.4000 H         7 CUB7        0.0000 
    100 DU        220.0500  201.6200  234.5300 H         7 CUB7        0.0000 
    101 DU        221.1400  202.3900  233.8500 H         7 CUB7        0.0000 
    102 DU        222.2300  203.1600  233.1600 H         7 CUB7        0.0000 
    103 DU        223.3200  203.9300  232.4800 H         7 CUB7        0.0000 
    104 DU        220.3100  203.6400  233.9200 H         7 CUB7        0.0000 
    105 DU        221.4000  204.4100  233.2400 H         7 CUB7        0.0000 
    106 DU        220.5700  205.6500  233.3200 H         7 CUB7        0.0000 
    107 DU        224.5000  200.9900  234.3400 H         7 CUB7        0.0000 
    108 DU        225.5900  201.7600  233.6600 H         7 CUB7        0.0000 
    109 DU        222.5800  201.4600  235.1000 H         7 CUB7        0.0000 
    110 DU        223.6700  202.2300  234.4200 H         7 CUB7        0.0000 
    111 DU        224.7600  203.0000  233.7400 H         7 CUB7        0.0000 
    112 DU        222.8400  203.4800  234.5000 H         7 CUB7        0.0000 
    113 DU        223.9300  204.2500  233.8200 H         7 CUB7        0.0000 
    114 DU        222.0100  204.7300  234.5800 H         7 CUB7        0.0000 
    115 DU        225.1100  201.3100  235.6700 H         7 CUB7        0.0000 
    116 DU        226.2000  202.0800  234.9900 H         7 CUB7        0.0000 
    117 DU        225.3700  203.3200  235.0700 H         7 CUB7        0.0000 
    118 DU        226.8000  202.4000  236.3300 H         7 CUB7        0.0000 
    119 DU        227.8900  203.1700  235.6500 H         7 CUB7        0.0000 
@<TRIPOS>BOND
@<TRIPOS>SUBSTRUCTURE
     1 SER1        1 GROUP   
     2 ALA2       46 GROUP   
     3 ASP3       51 GROUP   
     4 LYS4       57 GROUP   
     5 PHE5       59 GROUP   
     6 GLY6       72 GROUP   
     7 CUB7       93 GROUP   
@<TRIPOS>SET

