#    Name: 6j7u_4_NDP
#    Modification time : Fri May 22 19:35:22 2020

@<TRIPOS>MOLECULE
6j7u_4_NDP
   74    78     1     0     1
SMALL
NO_CHARGES


@<TRIPOS>ATOM
      1 PA         27.1640    1.1880    4.5700 P.3       1 NDP301      0.0000 
      2 O1A        27.5520   -0.2560    4.6650 O.co2     1 NDP301      0.0000 
      3 O2A        28.2100    2.2780    4.4430 O.co2     1 NDP301      0.0000 
      4 O5B        26.2110    1.6320    5.8680 O.3       1 NDP301      0.0000 
      5 C5B        25.5370    0.4800    6.2810 C.3       1 NDP301      0.0000 
      6 C4B        24.3110    0.8870    7.1030 C.3       1 NDP301      0.0000 
      7 O4B        23.3660   -0.1810    7.0280 O.3       1 NDP301      0.0000 
      8 C3B        24.7380    1.1200    8.5930 C.3       1 NDP301      0.0000 
      9 O3B        23.9370    2.1150    9.2240 O.3       1 NDP301      0.0000 
     10 C2B        24.4300   -0.2780    9.1990 C.3       1 NDP301      0.0000 
     11 O2B        24.1110   -0.2690   10.5020 O.3       1 NDP301      0.0000 
     12 C1B        23.1610   -0.6630    8.3630 C.3       1 NDP301      0.0000 
     13 N9A        22.9470   -2.1490    8.3230 N.pl3     1 NDP301      0.0000 
     14 C8A        23.6830   -3.1550    7.6410 C.2       1 NDP301      0.0000 
     15 N7A        23.2030   -4.3880    7.8210 N.2       1 NDP301      0.0000 
     16 C5A        22.1160   -4.1940    8.6340 C.ar      1 NDP301      0.0000 
     17 C6A        21.2140   -5.0910    9.1760 C.ar      1 NDP301      0.0000 
     18 N6A        21.3750   -6.4130    8.8770 N.pl3     1 NDP301      0.0000 
     19 N1A        20.1780   -4.6740   10.0040 N.ar      1 NDP301      0.0000 
     20 C2A        20.1020   -3.2970   10.2530 C.ar      1 NDP301      0.0000 
     21 N3A        20.9040   -2.3040    9.8030 N.ar      1 NDP301      0.0000 
     22 C4A        21.9270   -2.7990    8.9670 C.ar      1 NDP301      0.0000 
     23 O3         26.1310    1.1240    3.1750 O.3       1 NDP301      0.0000 
     24 PN         26.1980    2.4500    2.2040 P.3       1 NDP301      0.0000 
     25 O1N        25.8500    3.7060    2.9040 O.co2     1 NDP301      0.0000 
     26 O2N        27.3590    2.3720    1.2340 O.co2     1 NDP301      0.0000 
     27 O5D        24.8440    2.2810    1.0590 O.3       1 NDP301      0.0000 
     28 C5D        23.6270    2.2800    1.6920 C.3       1 NDP301      0.0000 
     29 C4D        22.5960    1.7220    0.7000 C.3       1 NDP301      0.0000 
     30 O4D        22.9240    2.1420   -0.6750 O.3       1 NDP301      0.0000 
     31 C3D        22.6700    0.1260    0.6920 C.3       1 NDP301      0.0000 
     32 O3D        21.4050   -0.3600    0.4060 O.3       1 NDP301      0.0000 
     33 C2D        23.6800   -0.1380   -0.4460 C.3       1 NDP301      0.0000 
     34 O2D        23.6390   -1.4250   -1.0270 O.3       1 NDP301      0.0000 
     35 C1D        23.1230    0.9430   -1.4660 C.3       1 NDP301      0.0000 
     36 N1N        24.0910    1.2260   -2.4930 N.pl3     1 NDP301      0.0000 
     37 C2N        25.3090    1.7630   -2.1260 C.2       1 NDP301      0.0000 
     38 C3N        26.2700    2.0140   -3.0610 C.2       1 NDP301      0.0000 
     39 C7N        27.5150    2.6130   -2.6100 C.2       1 NDP301      0.0000 
     40 O7N        28.5070    2.6720   -3.3270 O.2       1 NDP301      0.0000 
     41 N7N        27.5800    3.1890   -1.3440 N.am      1 NDP301      0.0000 
     42 C4N        26.0570    1.7170   -4.5510 C.3       1 NDP301      0.0000 
     43 C5N        24.6690    1.2030   -4.8470 C.2       1 NDP301      0.0000 
     44 C6N        23.7720    0.9840   -3.8640 C.2       1 NDP301      0.0000 
     45 P2B        25.5870   -0.4520   11.5310 P.3       1 NDP301      0.0000 
     46 O1X        24.8950   -1.0170   12.7300 O.co2     1 NDP301      0.0000 
     47 O2X        26.4790   -1.4070   10.7320 O.co2     1 NDP301      0.0000 
     48 O3X        25.9940    1.0010   11.5790 O.co2     1 NDP301      0.0000 
     49 H51A       25.3020   -0.0910    5.5330 H         1 NDP301      0.0000 
     50 H52A       26.1270   -0.0450    6.8450 H         1 NDP301      0.0000 
     51 H4B        23.9000    1.6740    6.7120 H         1 NDP301      0.0000 
     52 H3B        25.6860    1.3020    8.6850 H         1 NDP301      0.0000 
     53 HO3A       24.1620    2.8520    8.8640 H         1 NDP301      0.0000 
     54 H2B        25.1430   -0.8780    8.9310 H         1 NDP301      0.0000 
     55 H1B        22.3600   -0.2730    8.7470 H         1 NDP301      0.0000 
     56 H8A        24.4240   -2.9400    7.1210 H         1 NDP301      0.0000 
     57 H61A       20.8460   -6.9940    9.2280 H         1 NDP301      0.0000 
     58 H62A       22.0030   -6.6530    8.3410 H         1 NDP301      0.0000 
     59 H2A        19.3960   -3.0440   10.8030 H         1 NDP301      0.0000 
     60 H51N       23.3640    3.1860    1.9180 H         1 NDP301      0.0000 
     61 H52N       23.6330    1.7990    2.5340 H         1 NDP301      0.0000 
     62 H4D        21.7150    2.0450    0.9480 H         1 NDP301      0.0000 
     63 H3D        23.0150   -0.2000    1.5380 H         1 NDP301      0.0000 
     64 HO3N       21.4750   -1.2070    0.4260 H         1 NDP301      0.0000 
     65 H2D        24.5800    0.0890   -0.1640 H         1 NDP301      0.0000 
     66 HO2N       24.0340   -1.9370   -0.4760 H         1 NDP301      0.0000 
     67 H1D        22.2840    0.6820   -1.8780 H         1 NDP301      0.0000 
     68 H2N        25.4470    1.9620   -1.2280 H         1 NDP301      0.0000 
     69 H71N       26.8920    3.1650   -0.8290 H         1 NDP301      0.0000 
     70 H72N       28.3000    3.5560   -1.0500 H         1 NDP301      0.0000 
     71 H41N       26.7050    1.0660   -4.8620 H         1 NDP301      0.0000 
     72 H42N       26.2210    2.5210   -5.0680 H         1 NDP301      0.0000 
     73 H5N        24.4310    1.0370   -5.7310 H         1 NDP301      0.0000 
     74 H6N        22.9150    0.6680   -4.0390 H         1 NDP301      0.0000 
@<TRIPOS>BOND
     1    1    2 ar   
     2    1    3 ar   
     3    1    4 1    
     4    1   23 1    
     5    4    5 1    
     6    5    6 1    
     7    5   49 1    
     8    5   50 1    
     9    6    7 1    
    10    6    8 1    
    11    6   51 1    
    12    7   12 1    
    13    8    9 1    
    14    8   10 1    
    15    8   52 1    
    16    9   53 1    
    17   10   11 1    
    18   10   12 1    
    19   10   54 1    
    20   11   45 1    
    21   12   13 1    
    22   12   55 1    
    23   13   14 1    
    24   13   22 1    
    25   14   15 2    
    26   15   16 1    
    27   14   56 1    
    28   16   17 ar   
    29   16   22 ar   
    30   17   18 1    
    31   17   19 ar   
    32   19   20 ar   
    33   18   57 1    
    34   18   58 1    
    35   20   21 ar   
    36   21   22 ar   
    37   20   59 1    
    38   23   24 1    
    39   24   25 ar   
    40   24   26 ar   
    41   24   27 1    
    42   27   28 1    
    43   28   29 1    
    44   28   60 1    
    45   28   61 1    
    46   29   30 1    
    47   29   31 1    
    48   29   62 1    
    49   30   35 1    
    50   31   32 1    
    51   31   33 1    
    52   31   63 1    
    53   32   64 1    
    54   34   66 1    
    55   33   34 1    
    56   33   35 1    
    57   33   65 1    
    58   35   36 1    
    59   35   67 1    
    60   36   37 1    
    61   36   44 1    
    62   37   38 2    
    63   38   39 1    
    64   37   68 1    
    65   38   42 1    
    66   39   40 2    
    67   39   41 am   
    68   42   43 1    
    69   41   69 1    
    70   41   70 1    
    71   42   71 1    
    72   42   72 1    
    73   43   44 2    
    74   45   46 ar   
    75   43   73 1    
    76   44   74 1    
    77   45   47 ar   
    78   45   48 ar   
@<TRIPOS>SUBSTRUCTURE
     1 NDP301      1 GROUP   
@<TRIPOS>SET
ATOM$ORANGE STATIC     ATOMS   COLORGROUP SYSTEM 
42 5 5 6 6 8 8 10 10 12 12 14 14 16 16 17 17 20 \
20 22 22 28 28 29 29 31 31 33 33 35 35 37 37 38 38 39 \
39 42 42 43 43 44 44 

