#    Name: 6j7u_3_NDP
#    Modification time : Fri May 22 19:35:19 2020

@<TRIPOS>MOLECULE
6j7u_3_NDP
   74    78     1     0     1
SMALL
NO_CHARGES


@<TRIPOS>ATOM
      1 PA         26.9090   -1.1960  -43.7790 P.3       1 NDP301      0.0000 
      2 O1A        27.3420    0.2310  -43.9210 O.co2     1 NDP301      0.0000 
      3 O2A        27.9170   -2.3220  -43.7300 O.co2     1 NDP301      0.0000 
      4 O5B        25.8670   -1.5740  -45.0080 O.3       1 NDP301      0.0000 
      5 C5B        25.1360   -0.4250  -45.2470 C.3       1 NDP301      0.0000 
      6 C4B        23.9910   -0.8050  -46.1670 C.3       1 NDP301      0.0000 
      7 O4B        23.0290    0.2450  -46.0920 O.3       1 NDP301      0.0000 
      8 C3B        24.5210   -0.9880  -47.6970 C.3       1 NDP301      0.0000 
      9 O3B        23.7960   -1.9620  -48.4070 O.3       1 NDP301      0.0000 
     10 C2B        24.1840    0.3700  -48.3170 C.3       1 NDP301      0.0000 
     11 O2B        23.8610    0.3010  -49.6290 O.3       1 NDP301      0.0000 
     12 C1B        22.8730    0.7540  -47.4390 C.3       1 NDP301      0.0000 
     13 N9A        22.6150    2.2090  -47.3430 N.pl3     1 NDP301      0.0000 
     14 C8A        23.2480    3.1990  -46.5700 C.2       1 NDP301      0.0000 
     15 N7A        22.7150    4.4340  -46.7230 N.2       1 NDP301      0.0000 
     16 C5A        21.6730    4.2260  -47.6380 C.ar      1 NDP301      0.0000 
     17 C6A        20.7250    5.0990  -48.2410 C.ar      1 NDP301      0.0000 
     18 N6A        20.6870    6.4540  -47.9610 N.pl3     1 NDP301      0.0000 
     19 N1A        19.8010    4.6030  -49.1230 N.ar      1 NDP301      0.0000 
     20 C2A        19.8490    3.2470  -49.4000 C.ar      1 NDP301      0.0000 
     21 N3A        20.6760    2.3000  -48.9330 N.ar      1 NDP301      0.0000 
     22 C4A        21.5950    2.8250  -48.0240 C.ar      1 NDP301      0.0000 
     23 O3         25.9660   -1.0800  -42.3420 O.3       1 NDP301      0.0000 
     24 PN         26.0530   -2.3560  -41.3100 P.3       1 NDP301      0.0000 
     25 O1N        25.5560   -3.6220  -41.8930 O.co2     1 NDP301      0.0000 
     26 O2N        27.3070   -2.3380  -40.4600 O.co2     1 NDP301      0.0000 
     27 O5D        24.7850   -1.9410  -40.0550 O.3       1 NDP301      0.0000 
     28 C5D        23.5430   -2.0010  -40.6670 C.3       1 NDP301      0.0000 
     29 C4D        22.4610   -1.6330  -39.6590 C.3       1 NDP301      0.0000 
     30 O4D        22.8380   -2.0530  -38.2920 O.3       1 NDP301      0.0000 
     31 C3D        22.3490   -0.0550  -39.6460 C.3       1 NDP301      0.0000 
     32 O3D        21.0530    0.3400  -39.3010 O.3       1 NDP301      0.0000 
     33 C2D        23.3900    0.2370  -38.5580 C.3       1 NDP301      0.0000 
     34 O2D        23.3130    1.5150  -38.0070 O.3       1 NDP301      0.0000 
     35 C1D        22.9500   -0.8680  -37.4980 C.3       1 NDP301      0.0000 
     36 N1N        23.9830   -1.0800  -36.4780 N.pl3     1 NDP301      0.0000 
     37 C2N        25.1740   -1.7800  -36.7920 C.2       1 NDP301      0.0000 
     38 C3N        26.1800   -1.9960  -35.8340 C.2       1 NDP301      0.0000 
     39 C7N        27.4130   -2.8350  -36.2470 C.2       1 NDP301      0.0000 
     40 O7N        28.3810   -3.1170  -35.5030 O.2       1 NDP301      0.0000 
     41 N7N        27.4370   -3.3930  -37.5370 N.am      1 NDP301      0.0000 
     42 C4N        26.0270   -1.4430  -34.3960 C.3       1 NDP301      0.0000 
     43 C5N        24.6700   -0.8120  -34.1530 C.2       1 NDP301      0.0000 
     44 C6N        23.7410   -0.6520  -35.1410 C.2       1 NDP301      0.0000 
     45 P2B        25.3000    0.5980  -50.7290 P.3       1 NDP301      0.0000 
     46 O1X        25.8020   -0.8040  -50.5320 O.co2     1 NDP301      0.0000 
     47 O2X        24.6480    0.9720  -52.0660 O.co2     1 NDP301      0.0000 
     48 O3X        25.9930    1.6860  -49.9640 O.co2     1 NDP301      0.0000 
     49 H51A       24.8290   -0.0060  -44.4280 H         1 NDP301      0.0000 
     50 H52A       25.6970    0.2270  -45.6960 H         1 NDP301      0.0000 
     51 H4B        23.5660   -1.6100  -45.8340 H         1 NDP301      0.0000 
     52 H3B        25.4790   -1.1320  -47.7470 H         1 NDP301      0.0000 
     53 HO3A       23.8850   -2.6810  -47.9640 H         1 NDP301      0.0000 
     54 H2B        24.8880    0.9910  -48.0720 H         1 NDP301      0.0000 
     55 H1B        22.0810    0.3690  -47.8460 H         1 NDP301      0.0000 
     56 H8A        23.9650    2.9910  -46.0150 H         1 NDP301      0.0000 
     57 H61A       20.0870    6.9460  -48.3320 H         1 NDP301      0.0000 
     58 H62A       21.2640    6.7920  -47.4200 H         1 NDP301      0.0000 
     59 H2A        19.2030    2.9620  -50.0050 H         1 NDP301      0.0000 
     60 H51N       23.3640   -2.9050  -40.9700 H         1 NDP301      0.0000 
     61 H52N       23.4940   -1.4580  -41.4700 H         1 NDP301      0.0000 
     62 H4D        21.6290   -2.0550  -39.9220 H         1 NDP301      0.0000 
     63 H3D        22.6360    0.3100  -40.4980 H         1 NDP301      0.0000 
     64 HO3N       21.0420    1.1860  -39.3760 H         1 NDP301      0.0000 
     65 H2D        24.2840    0.0550  -38.8880 H         1 NDP301      0.0000 
     66 HO2N       23.6130    2.0390  -38.6050 H         1 NDP301      0.0000 
     67 H1D        22.1020   -0.6750  -37.0680 H         1 NDP301      0.0000 
     68 H2N        25.2510   -2.1350  -37.6480 H         1 NDP301      0.0000 
     69 H71N       26.7890   -3.2360  -38.0810 H         1 NDP301      0.0000 
     70 H72N       28.0960   -3.8710  -37.8120 H         1 NDP301      0.0000 
     71 H41N       26.1650   -2.1500  -33.7460 H         1 NDP301      0.0000 
     72 H42N       26.7220   -0.7890  -34.2250 H         1 NDP301      0.0000 
     73 H5N        24.4680   -0.5170  -33.2940 H         1 NDP301      0.0000 
     74 H6N        22.9120   -0.2630  -34.9780 H         1 NDP301      0.0000 
@<TRIPOS>BOND
     1    1    2 ar   
     2    1    3 ar   
     3    1    4 1    
     4    1   23 1    
     5    4    5 1    
     6    5    6 1    
     7    5   49 1    
     8    5   50 1    
     9    6    7 1    
    10    6    8 1    
    11    6   51 1    
    12    7   12 1    
    13    8    9 1    
    14    8   10 1    
    15    8   52 1    
    16    9   53 1    
    17   10   11 1    
    18   10   12 1    
    19   10   54 1    
    20   11   45 1    
    21   12   13 1    
    22   12   55 1    
    23   13   14 1    
    24   13   22 1    
    25   14   15 2    
    26   15   16 1    
    27   14   56 1    
    28   16   17 ar   
    29   16   22 ar   
    30   17   18 1    
    31   17   19 ar   
    32   19   20 ar   
    33   18   57 1    
    34   18   58 1    
    35   20   21 ar   
    36   21   22 ar   
    37   20   59 1    
    38   23   24 1    
    39   24   25 ar   
    40   24   26 ar   
    41   24   27 1    
    42   27   28 1    
    43   28   29 1    
    44   28   60 1    
    45   28   61 1    
    46   29   30 1    
    47   29   31 1    
    48   29   62 1    
    49   30   35 1    
    50   31   32 1    
    51   31   33 1    
    52   31   63 1    
    53   32   64 1    
    54   34   66 1    
    55   33   34 1    
    56   33   35 1    
    57   33   65 1    
    58   35   36 1    
    59   35   67 1    
    60   36   37 1    
    61   36   44 1    
    62   37   38 2    
    63   38   39 1    
    64   37   68 1    
    65   38   42 1    
    66   39   40 2    
    67   39   41 am   
    68   42   43 1    
    69   41   69 1    
    70   41   70 1    
    71   42   71 1    
    72   42   72 1    
    73   43   44 2    
    74   45   46 ar   
    75   43   73 1    
    76   44   74 1    
    77   45   47 ar   
    78   45   48 ar   
@<TRIPOS>SUBSTRUCTURE
     1 NDP301      1 GROUP   
@<TRIPOS>SET
ATOM$ORANGE STATIC     ATOMS   COLORGROUP SYSTEM 
42 5 5 6 6 8 8 10 10 12 12 14 14 16 16 17 17 20 \
20 22 22 28 28 29 29 31 31 33 33 35 35 37 37 38 38 39 \
39 42 42 43 43 44 44 

