#    Name: 6j7u_1_NDP
#    Modification time : Fri May 22 19:35:13 2020

@<TRIPOS>MOLECULE
6j7u_1_NDP
   74    78     1     0     1
SMALL
NO_CHARGES


@<TRIPOS>ATOM
      1 PA          1.3740  -23.5070  -14.6710 P.3       1 NDP301      0.0000 
      2 O1A         0.9970  -23.2570  -13.2430 O.co2     1 NDP301      0.0000 
      3 O2A         0.3200  -23.6030  -15.7440 O.co2     1 NDP301      0.0000 
      4 O5B         2.3550  -24.8250  -14.7990 O.3       1 NDP301      0.0000 
      5 C5B         3.1670  -24.7860  -13.6200 C.3       1 NDP301      0.0000 
      6 C4B         4.3670  -25.7490  -13.7920 C.3       1 NDP301      0.0000 
      7 O4B         5.3840  -25.3760  -12.8760 O.3       1 NDP301      0.0000 
      8 C3B         3.8790  -27.2260  -13.5120 C.3       1 NDP301      0.0000 
      9 O3B         4.5670  -28.1870  -14.3090 O.3       1 NDP301      0.0000 
     10 C2B         4.3020  -27.4090  -12.0660 C.3       1 NDP301      0.0000 
     11 O2B         4.6510  -28.6670  -11.7560 O.3       1 NDP301      0.0000 
     12 C1B         5.5950  -26.4570  -11.9980 C.3       1 NDP301      0.0000 
     13 N9A         5.7780  -25.9930  -10.5830 N.pl3     1 NDP301      0.0000 
     14 C8A         5.0160  -25.0630   -9.7950 C.2       1 NDP301      0.0000 
     15 N7A         5.4600  -24.9510   -8.5300 N.2       1 NDP301      0.0000 
     16 C5A         6.5360  -25.8400   -8.4800 C.ar      1 NDP301      0.0000 
     17 C6A         7.4130  -26.1770   -7.4550 C.ar      1 NDP301      0.0000 
     18 N6A         7.2610  -25.5880   -6.2320 N.pl3     1 NDP301      0.0000 
     19 N1A         8.4240  -27.1100   -7.6410 N.ar      1 NDP301      0.0000 
     20 C2A         8.4960  -27.6660   -8.9100 C.ar      1 NDP301      0.0000 
     21 N3A         7.7390  -27.4440  -10.0050 N.ar      1 NDP301      0.0000 
     22 C4A         6.7420  -26.5040   -9.7490 C.ar      1 NDP301      0.0000 
     23 O3          2.4110  -22.1720  -14.8790 O.3       1 NDP301      0.0000 
     24 PN          2.5380  -21.6980  -16.4150 P.3       1 NDP301      0.0000 
     25 O1N         2.8470  -22.8090  -17.3480 O.co2     1 NDP301      0.0000 
     26 O2N         1.4750  -20.6630  -16.7200 O.co2     1 NDP301      0.0000 
     27 O5D         4.0300  -20.6690  -16.5970 O.3       1 NDP301      0.0000 
     28 C5D         5.0900  -21.1500  -15.8910 C.3       1 NDP301      0.0000 
     29 C4D         6.1270  -20.0290  -15.7740 C.3       1 NDP301      0.0000 
     30 O4D         5.7460  -18.8780  -16.5850 O.3       1 NDP301      0.0000 
     31 C3D         6.1650  -19.4850  -14.2700 C.3       1 NDP301      0.0000 
     32 O3D         7.4340  -19.0970  -13.9570 O.3       1 NDP301      0.0000 
     33 C2D         5.2620  -18.2830  -14.3480 C.3       1 NDP301      0.0000 
     34 O2D         5.5500  -17.3790  -13.3550 O.3       1 NDP301      0.0000 
     35 C1D         5.6920  -17.7160  -15.7440 C.3       1 NDP301      0.0000 
     36 N1N         4.7090  -16.7660  -16.2970 N.pl3     1 NDP301      0.0000 
     37 C2N         3.4960  -17.2130  -16.7470 C.2       1 NDP301      0.0000 
     38 C3N         2.5430  -16.3250  -17.1550 C.2       1 NDP301      0.0000 
     39 C7N         1.3090  -16.8720  -17.7110 C.2       1 NDP301      0.0000 
     40 O7N         0.3910  -16.1710  -18.0640 O.2       1 NDP301      0.0000 
     41 N7N         1.1600  -18.2450  -17.9330 N.am      1 NDP301      0.0000 
     42 C4N         2.7640  -14.7990  -17.0840 C.3       1 NDP301      0.0000 
     43 C5N         4.1830  -14.4480  -16.8530 C.2       1 NDP301      0.0000 
     44 C6N         5.0680  -15.3880  -16.4890 C.2       1 NDP301      0.0000 
     45 P2B         3.2170  -29.7170  -11.2940 P.3       1 NDP301      0.0000 
     46 O1X         2.5520  -28.7540  -10.3530 O.co2     1 NDP301      0.0000 
     47 O2X         2.5190  -30.0310  -12.6220 O.co2     1 NDP301      0.0000 
     48 O3X         4.0320  -30.8180  -10.6900 O.co2     1 NDP301      0.0000 
     49 H51A        3.4520  -23.8840  -13.4060 H         1 NDP301      0.0000 
     50 H52A        2.6370  -25.0850  -12.8640 H         1 NDP301      0.0000 
     51 H4B         4.7310  -25.6510  -14.6860 H         1 NDP301      0.0000 
     52 H3B         2.9160  -27.3200  -13.5760 H         1 NDP301      0.0000 
     53 HO3A        4.5850  -28.8990  -13.8450 H         1 NDP301      0.0000 
     54 H2B         3.6200  -27.0020  -11.5090 H         1 NDP301      0.0000 
     55 H1B         6.3980  -26.9420  -12.2430 H         1 NDP301      0.0000 
     56 H8A         4.2940  -24.5990  -10.1540 H         1 NDP301      0.0000 
     57 H61A        7.7720  -25.8240   -5.5820 H         1 NDP301      0.0000 
     58 H62A        6.6560  -24.9870   -6.1230 H         1 NDP301      0.0000 
     59 H2A         9.1830  -28.2850   -9.0100 H         1 NDP301      0.0000 
     60 H51N        5.5030  -21.8880  -16.3670 H         1 NDP301      0.0000 
     61 H52N        4.8390  -21.5160  -15.0280 H         1 NDP301      0.0000 
     62 H4D         6.9890  -20.3690  -16.0600 H         1 NDP301      0.0000 
     63 H3D         5.8080  -20.1460  -13.6570 H         1 NDP301      0.0000 
     64 HO3N        7.6010  -19.4450  -13.2000 H         1 NDP301      0.0000 
     65 H2D         4.3250  -18.5340  -14.3440 H         1 NDP301      0.0000 
     66 HO2N        5.4590  -17.8060  -12.6260 H         1 NDP301      0.0000 
     67 H1D         6.5650  -17.2930  -15.7260 H         1 NDP301      0.0000 
     68 H2N         3.3690  -18.1310  -16.8270 H         1 NDP301      0.0000 
     69 H71N        1.7920  -18.7840  -17.7080 H         1 NDP301      0.0000 
     70 H72N        0.4400  -18.5750  -18.2670 H         1 NDP301      0.0000 
     71 H41N        2.4640  -14.3750  -17.9040 H         1 NDP301      0.0000 
     72 H42N        2.2170  -14.4240  -16.3760 H         1 NDP301      0.0000 
     73 H5N         4.4580  -13.5670  -16.9660 H         1 NDP301      0.0000 
     74 H6N         5.9630  -15.1800  -16.3400 H         1 NDP301      0.0000 
@<TRIPOS>BOND
     1    1    2 ar   
     2    1    3 ar   
     3    1    4 1    
     4    1   23 1    
     5    4    5 1    
     6    5    6 1    
     7    5   49 1    
     8    5   50 1    
     9    6    7 1    
    10    6    8 1    
    11    6   51 1    
    12    7   12 1    
    13    8    9 1    
    14    8   10 1    
    15    8   52 1    
    16    9   53 1    
    17   10   11 1    
    18   10   12 1    
    19   10   54 1    
    20   11   45 1    
    21   12   13 1    
    22   12   55 1    
    23   13   14 1    
    24   13   22 1    
    25   14   15 2    
    26   15   16 1    
    27   14   56 1    
    28   16   17 ar   
    29   16   22 ar   
    30   17   18 1    
    31   17   19 ar   
    32   19   20 ar   
    33   18   57 1    
    34   18   58 1    
    35   20   21 ar   
    36   21   22 ar   
    37   20   59 1    
    38   23   24 1    
    39   24   25 ar   
    40   24   26 ar   
    41   24   27 1    
    42   27   28 1    
    43   28   29 1    
    44   28   60 1    
    45   28   61 1    
    46   29   30 1    
    47   29   31 1    
    48   29   62 1    
    49   30   35 1    
    50   31   32 1    
    51   31   33 1    
    52   31   63 1    
    53   32   64 1    
    54   34   66 1    
    55   33   34 1    
    56   33   35 1    
    57   33   65 1    
    58   35   36 1    
    59   35   67 1    
    60   36   37 1    
    61   36   44 1    
    62   37   38 2    
    63   38   39 1    
    64   37   68 1    
    65   38   42 1    
    66   39   40 2    
    67   39   41 am   
    68   42   43 1    
    69   41   69 1    
    70   41   70 1    
    71   42   71 1    
    72   42   72 1    
    73   43   44 2    
    74   45   46 ar   
    75   43   73 1    
    76   44   74 1    
    77   45   47 ar   
    78   45   48 ar   
@<TRIPOS>SUBSTRUCTURE
     1 NDP301      1 GROUP   
@<TRIPOS>SET
ATOM$ORANGE STATIC     ATOMS   COLORGROUP SYSTEM 
42 5 5 6 6 8 8 10 10 12 12 14 14 16 16 17 17 20 \
20 22 22 28 28 29 29 31 31 33 33 35 35 37 37 38 38 39 \
39 42 42 43 43 44 44 

