#    Name: 6j7u_2_NDP
#    Modification time : Fri May 22 19:35:16 2020

@<TRIPOS>MOLECULE
6j7u_2_NDP
   74    78     1     0     1
SMALL
NO_CHARGES


@<TRIPOS>ATOM
      1 PA          1.4080   23.8160  -24.1460 P.3       1 NDP301      0.0000 
      2 O1A         1.0160   23.8640  -25.5860 O.co2     1 NDP301      0.0000 
      3 O2A         0.3600   23.8580  -23.0650 O.co2     1 NDP301      0.0000 
      4 O5B         2.5640   24.9530  -23.8090 O.3       1 NDP301      0.0000 
      5 C5B         3.4060   24.9390  -24.9380 C.3       1 NDP301      0.0000 
      6 C4B         4.5410   25.9440  -24.7560 C.3       1 NDP301      0.0000 
      7 O4B         5.5810   25.6290  -25.6940 O.3       1 NDP301      0.0000 
      8 C3B         3.9500   27.4030  -25.0190 C.3       1 NDP301      0.0000 
      9 O3B         4.5630   28.3950  -24.2120 O.3       1 NDP301      0.0000 
     10 C2B         4.3480   27.6730  -26.4660 C.3       1 NDP301      0.0000 
     11 O2B         4.6990   28.9370  -26.6900 O.3       1 NDP301      0.0000 
     12 C1B         5.6670   26.7160  -26.6170 C.3       1 NDP301      0.0000 
     13 N9A         5.7360   26.1860  -27.9480 N.pl3     1 NDP301      0.0000 
     14 C8A         4.9160   25.2310  -28.5650 C.2       1 NDP301      0.0000 
     15 N7A         5.2690   24.9720  -29.8460 N.2       1 NDP301      0.0000 
     16 C5A         6.3760   25.8210  -30.0540 C.ar      1 NDP301      0.0000 
     17 C6A         7.2120   26.0460  -31.1720 C.ar      1 NDP301      0.0000 
     18 N6A         7.0270   25.3900  -32.3630 N.pl3     1 NDP301      0.0000 
     19 N1A         8.2430   26.9390  -31.1110 N.ar      1 NDP301      0.0000 
     20 C2A         8.3950   27.5840  -29.8980 C.ar      1 NDP301      0.0000 
     21 N3A         7.6840   27.4860  -28.7630 N.ar      1 NDP301      0.0000 
     22 C4A         6.6680   26.5730  -28.8680 C.ar      1 NDP301      0.0000 
     23 O3          2.1840   22.3230  -24.0940 O.3       1 NDP301      0.0000 
     24 PN          2.5620   21.8650  -22.5640 P.3       1 NDP301      0.0000 
     25 O1N         3.2770   22.9340  -21.8250 O.co2     1 NDP301      0.0000 
     26 O2N         1.4560   21.0270  -21.9560 O.co2     1 NDP301      0.0000 
     27 O5D         3.8450   20.5980  -22.7310 O.3       1 NDP301      0.0000 
     28 C5D         5.0810   21.1990  -22.9300 C.3       1 NDP301      0.0000 
     29 C4D         6.1240   20.1100  -23.1910 C.3       1 NDP301      0.0000 
     30 O4D         5.7970   18.9460  -22.3770 O.3       1 NDP301      0.0000 
     31 C3D         6.0570   19.6680  -24.7030 C.3       1 NDP301      0.0000 
     32 O3D         7.3560   19.3520  -25.1540 O.3       1 NDP301      0.0000 
     33 C2D         5.1390   18.4370  -24.6280 C.3       1 NDP301      0.0000 
     34 O2D         5.3710   17.5560  -25.6680 O.3       1 NDP301      0.0000 
     35 C1D         5.6210   17.8020  -23.2020 C.3       1 NDP301      0.0000 
     36 N1N         4.6170   16.8010  -22.4980 N.pl3     1 NDP301      0.0000 
     37 C2N         3.4130   17.2670  -21.9450 C.2       1 NDP301      0.0000 
     38 C3N         2.4140   16.3840  -21.5790 C.2       1 NDP301      0.0000 
     39 C7N         1.1950   17.0000  -21.0240 C.2       1 NDP301      0.0000 
     40 O7N         0.3830   16.3880  -20.3430 O.2       1 NDP301      0.0000 
     41 N7N         0.9240   18.3480  -21.2900 N.am      1 NDP301      0.0000 
     42 C4N         2.5530   14.8580  -21.7370 C.3       1 NDP301      0.0000 
     43 C5N         3.9530   14.4610  -22.0520 C.2       1 NDP301      0.0000 
     44 C6N         4.9010   15.3670  -22.3910 C.2       1 NDP301      0.0000 
     45 P2B         3.3760   30.0750  -27.2280 P.3       1 NDP301      0.0000 
     46 O1X         2.6450   29.1650  -28.1680 O.co2     1 NDP301      0.0000 
     47 O2X         2.6550   30.5040  -25.9420 O.co2     1 NDP301      0.0000 
     48 O3X         4.3420   31.0610  -27.8310 O.co2     1 NDP301      0.0000 
     49 H51A        3.7400   24.0480  -25.1270 H         1 NDP301      0.0000 
     50 H52A        2.8890   25.1970  -25.7170 H         1 NDP301      0.0000 
     51 H4B         4.9140   25.8560  -23.8650 H         1 NDP301      0.0000 
     52 H3B         2.9830   27.4280  -24.9500 H         1 NDP301      0.0000 
     53 HO3A        4.3450   28.2060  -23.4120 H         1 NDP301      0.0000 
     54 H2B         3.6560   27.3050  -27.0370 H         1 NDP301      0.0000 
     55 H1B         6.4820   27.2220  -26.4720 H         1 NDP301      0.0000 
     56 H8A         4.2080   24.8320  -28.1110 H         1 NDP301      0.0000 
     57 H61A        7.5490   25.5610  -33.0260 H         1 NDP301      0.0000 
     58 H62A        6.3920   24.8150  -32.4370 H         1 NDP301      0.0000 
     59 H2A         9.0990   28.1910  -29.8830 H         1 NDP301      0.0000 
     60 H51N        5.3520   21.6790  -22.1330 H         1 NDP301      0.0000 
     61 H52N        5.0660   21.8690  -23.6310 H         1 NDP301      0.0000 
     62 H4D         7.0000   20.4510  -22.9510 H         1 NDP301      0.0000 
     63 H3D         5.6410   20.3650  -25.2340 H         1 NDP301      0.0000 
     64 HO3N        7.2640   19.0960  -25.9600 H         1 NDP301      0.0000 
     65 H2D         4.2060   18.7000  -24.5910 H         1 NDP301      0.0000 
     66 HO2N        5.0380   17.9250  -26.3570 H         1 NDP301      0.0000 
     67 H1D         6.4770   17.3550  -23.2840 H         1 NDP301      0.0000 
     68 H2N         3.3040   18.1850  -21.8450 H         1 NDP301      0.0000 
     69 H71N        0.2130   18.7110  -20.9700 H         1 NDP301      0.0000 
     70 H72N        1.4540   18.8310  -21.7640 H         1 NDP301      0.0000 
     71 H41N        2.2700   14.4040  -20.9280 H         1 NDP301      0.0000 
     72 H42N        1.9610   14.5470  -22.4390 H         1 NDP301      0.0000 
     73 H5N         4.1830   13.5610  -21.9980 H         1 NDP301      0.0000 
     74 H6N         5.7730   15.1110  -22.5860 H         1 NDP301      0.0000 
@<TRIPOS>BOND
     1    1    2 ar   
     2    1    3 ar   
     3    1    4 1    
     4    1   23 1    
     5    4    5 1    
     6    5    6 1    
     7    5   49 1    
     8    5   50 1    
     9    6    7 1    
    10    6    8 1    
    11    6   51 1    
    12    7   12 1    
    13    8    9 1    
    14    8   10 1    
    15    8   52 1    
    16    9   53 1    
    17   10   11 1    
    18   10   12 1    
    19   10   54 1    
    20   11   45 1    
    21   12   13 1    
    22   12   55 1    
    23   13   14 1    
    24   13   22 1    
    25   14   15 2    
    26   15   16 1    
    27   14   56 1    
    28   16   17 ar   
    29   16   22 ar   
    30   17   18 1    
    31   17   19 ar   
    32   19   20 ar   
    33   18   57 1    
    34   18   58 1    
    35   20   21 ar   
    36   21   22 ar   
    37   20   59 1    
    38   23   24 1    
    39   24   25 ar   
    40   24   26 ar   
    41   24   27 1    
    42   27   28 1    
    43   28   29 1    
    44   28   60 1    
    45   28   61 1    
    46   29   30 1    
    47   29   31 1    
    48   29   62 1    
    49   30   35 1    
    50   31   32 1    
    51   31   33 1    
    52   31   63 1    
    53   32   64 1    
    54   34   66 1    
    55   33   34 1    
    56   33   35 1    
    57   33   65 1    
    58   35   36 1    
    59   35   67 1    
    60   36   37 1    
    61   36   44 1    
    62   37   38 2    
    63   38   39 1    
    64   37   68 1    
    65   38   42 1    
    66   39   40 2    
    67   39   41 am   
    68   42   43 1    
    69   41   69 1    
    70   41   70 1    
    71   42   71 1    
    72   42   72 1    
    73   43   44 2    
    74   45   46 ar   
    75   43   73 1    
    76   44   74 1    
    77   45   47 ar   
    78   45   48 ar   
@<TRIPOS>SUBSTRUCTURE
     1 NDP301      1 GROUP   
@<TRIPOS>SET
ATOM$ORANGE STATIC     ATOMS   COLORGROUP SYSTEM 
42 5 5 6 6 8 8 10 10 12 12 14 14 16 16 17 17 20 \
20 22 22 28 28 29 29 31 31 33 33 35 35 37 37 38 38 39 \
39 42 42 43 43 44 44 

