#    Name: 6e88_12_GDP
#    Modification time : Fri May 22 19:30:36 2020

@<TRIPOS>MOLECULE
6e88_12_GDP
   28    30     1     0     1
SMALL
NO_CHARGES


@<TRIPOS>ATOM
      1 PB        186.4950   65.0980  254.4960 P.3       1 GDP501      0.0000 
      2 O1B       186.3240   64.2490  253.2620 O.co2     1 GDP501      0.0000 
      3 O2B       185.5000   66.2300  254.5020 O.co2     1 GDP501      0.0000 
      4 O3B       186.2720   64.2430  255.7170 O.co2     1 GDP501      0.0000 
      5 O3A       187.9880   65.6800  254.5240 O.3       1 GDP501      0.0000 
      6 PA        188.4540   66.6860  253.3660 P.3       1 GDP501      0.0000 
      7 O1A       187.4400   66.7140  252.2500 O.co2     1 GDP501      0.0000 
      8 O2A       188.6550   68.0690  253.9290 O.co2     1 GDP501      0.0000 
      9 O5'       189.8590   66.0820  252.8720 O.3       1 GDP501      0.0000 
     10 C5'       191.0630   66.6440  253.3820 C.3       1 GDP501      0.0000 
     11 C4'       192.0400   66.9420  252.2560 C.3       1 GDP501      0.0000 
     12 O4'       191.4850   67.9660  251.4330 O.3       1 GDP501      0.0000 
     13 C3'       193.3480   67.4750  252.8140 C.3       1 GDP501      0.0000 
     14 O3'       194.4430   66.6820  252.3500 O.3       1 GDP501      0.0000 
     15 C2'       193.4800   68.8870  252.2860 C.3       1 GDP501      0.0000 
     16 O2'       194.7820   69.1010  251.7470 O.3       1 GDP501      0.0000 
     17 C1'       192.4410   68.9960  251.1890 C.3       1 GDP501      0.0000 
     18 N9        191.7840   70.3180  251.2530 N.pl3     1 GDP501      0.0000 
     19 C8        190.7360   70.6330  252.0310 C.2       1 GDP501      0.0000 
     20 N7        190.3710   71.9250  251.8540 N.2       1 GDP501      0.0000 
     21 C5        191.2010   72.4550  250.9400 C.2       1 GDP501      0.0000 
     22 C6        191.3690   73.7720  250.2950 C.2       1 GDP501      0.0000 
     23 O6        190.6130   74.7230  250.5800 O.2       1 GDP501      0.0000 
     24 N1        192.3500   73.9120  249.4000 N.am      1 GDP501      0.0000 
     25 C2        193.1730   72.9020  249.0770 C.2       1 GDP501      0.0000 
     26 N2        194.1410   73.1280  248.1600 N.pl3     1 GDP501      0.0000 
     27 N3        193.0790   71.6670  249.6280 N.2       1 GDP501      0.0000 
     28 C4        192.1300   71.3920  250.5470 C.2       1 GDP501      0.0000 
@<TRIPOS>BOND
     1    1    2 ar   
     2    1    3 ar   
     3    1    4 ar   
     4    1    5 1    
     5    5    6 1    
     6    6    7 ar   
     7    6    8 ar   
     8    6    9 1    
     9    9   10 1    
    10   10   11 1    
    11   11   12 1    
    12   11   13 1    
    13   12   17 1    
    14   13   14 1    
    15   13   15 1    
    16   15   16 1    
    17   15   17 1    
    18   17   18 1    
    19   18   19 1    
    20   18   28 1    
    21   19   20 2    
    22   20   21 1    
    23   21   22 1    
    24   21   28 2    
    25   22   23 2    
    26   22   24 am   
    27   24   25 1    
    28   25   26 1    
    29   25   27 2    
    30   27   28 1    
@<TRIPOS>SUBSTRUCTURE
     1 GDP501      1 GROUP   
@<TRIPOS>SET
ATOM$ORANGE STATIC     ATOMS   COLORGROUP SYSTEM 
20 10 10 11 11 13 13 15 15 17 17 19 19 21 21 22 22 25 \
25 28 28 

