#    Name: 6e88_5_GTP
#    Modification time : Fri May 22 19:28:58 2020

@<TRIPOS>MOLECULE
6e88_5_GTP
   32    34     1     0     1
SMALL
NO_CHARGES


@<TRIPOS>ATOM
      1 PG        270.2780  127.8080  110.6480 P.3       1 GTP501      0.0000 
      2 O1G       270.4190  126.3120  110.7010 O.co2     1 GTP501      0.0000 
      3 O2G       268.9510  128.2530  111.2160 O.co2     1 GTP501      0.0000 
      4 O3G       271.4100  128.3960  111.4560 O.co2     1 GTP501      0.0000 
      5 O3B       270.4470  128.2560  109.1140 O.3       1 GTP501      0.0000 
      6 PB        269.6860  129.5310  108.5040 P.3       1 GTP501      0.0000 
      7 O1B       269.9710  129.6260  107.0250 O.co2     1 GTP501      0.0000 
      8 O2B       268.2010  129.4440  108.7480 O.co2     1 GTP501      0.0000 
      9 O3A       270.3250  130.7580  109.3160 O.3       1 GTP501      0.0000 
     10 PA        270.2760  132.2070  108.6350 P.3       1 GTP501      0.0000 
     11 O1A       269.0380  132.2840  107.7820 O.co2     1 GTP501      0.0000 
     12 O2A       270.2580  133.2660  109.7080 O.co2     1 GTP501      0.0000 
     13 O5'       271.6130  132.3580  107.7560 O.3       1 GTP501      0.0000 
     14 C5'       272.4440  133.4760  107.9710 C.3       1 GTP501      0.0000 
     15 C4'       272.2670  134.5190  106.8750 C.3       1 GTP501      0.0000 
     16 O4'       271.0180  134.3900  106.2310 O.3       1 GTP501      0.0000 
     17 C3'       272.2840  135.9300  107.4340 C.3       1 GTP501      0.0000 
     18 O3'       273.5570  136.5030  107.2660 O.3       1 GTP501      0.0000 
     19 C2'       271.2630  136.6880  106.6150 C.3       1 GTP501      0.0000 
     20 O2'       271.9010  137.6680  105.8370 O.3       1 GTP501      0.0000 
     21 C1'       270.6220  135.6480  105.7150 C.3       1 GTP501      0.0000 
     22 N9        269.1590  135.7830  105.7500 N.pl3     1 GTP501      0.0000 
     23 C8        268.2880  134.9000  106.3220 C.2       1 GTP501      0.0000 
     24 N7        267.0300  135.3510  106.1430 N.2       1 GTP501      0.0000 
     25 C5        267.0850  136.5030  105.4480 C.2       1 GTP501      0.0000 
     26 C6        266.0950  137.3570  105.0030 C.2       1 GTP501      0.0000 
     27 O6        264.9170  137.1020  105.2350 O.2       1 GTP501      0.0000 
     28 N1        266.4350  138.4910  104.3040 N.am      1 GTP501      0.0000 
     29 C2        267.7600  138.7610  104.0520 C.2       1 GTP501      0.0000 
     30 N2        268.0900  139.8540  103.3750 N.pl3     1 GTP501      0.0000 
     31 N3        268.7440  137.9050  104.4990 N.2       1 GTP501      0.0000 
     32 C4        268.4140  136.7900  105.1890 C.2       1 GTP501      0.0000 
@<TRIPOS>BOND
     1    1    2 ar   
     2    1    3 ar   
     3    1    4 ar   
     4    1    5 1    
     5    5    6 1    
     6    6    7 ar   
     7    6    8 ar   
     8    6    9 1    
     9    9   10 1    
    10   10   11 ar   
    11   10   12 ar   
    12   10   13 1    
    13   13   14 1    
    14   14   15 1    
    15   15   16 1    
    16   15   17 1    
    17   16   21 1    
    18   17   18 1    
    19   17   19 1    
    20   19   20 1    
    21   19   21 1    
    22   21   22 1    
    23   22   23 1    
    24   22   32 1    
    25   23   24 2    
    26   24   25 1    
    27   25   26 1    
    28   25   32 2    
    29   26   27 2    
    30   26   28 am   
    31   28   29 1    
    32   29   30 1    
    33   29   31 2    
    34   31   32 1    
@<TRIPOS>SUBSTRUCTURE
     1 GTP501      1 GROUP   
@<TRIPOS>SET
ATOM$ORANGE STATIC     ATOMS   COLORGROUP SYSTEM 
20 14 14 15 15 17 17 19 19 21 21 23 23 25 25 26 26 29 \
29 32 32 

