#    Name: 6e88_9_GTP
#    Modification time : Fri May 22 19:30:05 2020

@<TRIPOS>MOLECULE
6e88_9_GTP
   32    34     1     0     1
SMALL
NO_CHARGES


@<TRIPOS>ATOM
      1 PG        270.9240  128.0330  193.1660 P.3       1 GTP501      0.0000 
      2 O1G       271.0240  126.5340  193.1270 O.co2     1 GTP501      0.0000 
      3 O2G       269.6290  128.4780  193.8050 O.co2     1 GTP501      0.0000 
      4 O3G       272.0980  128.5420  193.9680 O.co2     1 GTP501      0.0000 
      5 O3B       271.0550  128.5670  191.6570 O.3       1 GTP501      0.0000 
      6 PB        270.3100  129.8950  191.1480 P.3       1 GTP501      0.0000 
      7 O1B       270.5490  130.0700  189.6690 O.co2     1 GTP501      0.0000 
      8 O2B       268.8320  129.8330  191.4380 O.co2     1 GTP501      0.0000 
      9 O3A       271.0100  131.0540  192.0090 O.3       1 GTP501      0.0000 
     10 PA        270.9790  132.5420  191.4160 P.3       1 GTP501      0.0000 
     11 O1A       269.7170  132.7020  190.6120 O.co2     1 GTP501      0.0000 
     12 O2A       271.0260  133.5350  192.5490 O.co2     1 GTP501      0.0000 
     13 O5'       272.2910  132.7100  190.5020 O.3       1 GTP501      0.0000 
     14 C5'       273.1590  133.7920  190.7530 C.3       1 GTP501      0.0000 
     15 C4'       272.9760  134.9020  189.7270 C.3       1 GTP501      0.0000 
     16 O4'       271.7030  134.8440  189.1200 O.3       1 GTP501      0.0000 
     17 C3'       273.0520  136.2760  190.3660 C.3       1 GTP501      0.0000 
     18 O3'       274.3340  136.8250  190.1880 O.3       1 GTP501      0.0000 
     19 C2'       272.0250  137.1080  189.6290 C.3       1 GTP501      0.0000 
     20 O2'       272.6650  138.1150  188.8880 O.3       1 GTP501      0.0000 
     21 C1'       271.3270  136.1400  188.6930 C.3       1 GTP501      0.0000 
     22 N9        269.8690  136.3120  188.7850 N.pl3     1 GTP501      0.0000 
     23 C8        268.9940  135.4190  189.3340 C.2       1 GTP501      0.0000 
     24 N7        267.7430  135.9130  189.2260 N.2       1 GTP501      0.0000 
     25 C5        267.8070  137.1020  188.5980 C.2       1 GTP501      0.0000 
     26 C6        266.8280  138.0070  188.2380 C.2       1 GTP501      0.0000 
     27 O6        265.6520  137.7690  188.4950 O.2       1 GTP501      0.0000 
     28 N1        267.1770  139.1710  187.5950 N.am      1 GTP501      0.0000 
     29 C2        268.5000  139.4210  187.3140 C.2       1 GTP501      0.0000 
     30 N2        268.8380  140.5430  186.6910 N.pl3     1 GTP501      0.0000 
     31 N3        269.4730  138.5140  187.6760 N.2       1 GTP501      0.0000 
     32 C4        269.1350  137.3690  188.3100 C.2       1 GTP501      0.0000 
@<TRIPOS>BOND
     1    1    2 ar   
     2    1    3 ar   
     3    1    4 ar   
     4    1    5 1    
     5    5    6 1    
     6    6    7 ar   
     7    6    8 ar   
     8    6    9 1    
     9    9   10 1    
    10   10   11 ar   
    11   10   12 ar   
    12   10   13 1    
    13   13   14 1    
    14   14   15 1    
    15   15   16 1    
    16   15   17 1    
    17   16   21 1    
    18   17   18 1    
    19   17   19 1    
    20   19   20 1    
    21   19   21 1    
    22   21   22 1    
    23   22   23 1    
    24   22   32 1    
    25   23   24 2    
    26   24   25 1    
    27   25   26 1    
    28   25   32 2    
    29   26   27 2    
    30   26   28 am   
    31   28   29 1    
    32   29   30 1    
    33   29   31 2    
    34   31   32 1    
@<TRIPOS>SUBSTRUCTURE
     1 GTP501      1 GROUP   
@<TRIPOS>SET
ATOM$ORANGE STATIC     ATOMS   COLORGROUP SYSTEM 
20 14 14 15 15 17 17 19 19 21 21 23 23 25 25 26 26 29 \
29 32 32 

