#    Name: 6e88_2_GDP
#    Modification time : Fri May 22 19:28:23 2020

@<TRIPOS>MOLECULE
6e88_2_GDP
   28    30     1     0     1
SMALL
NO_CHARGES


@<TRIPOS>ATOM
      1 PB        236.5100   86.0620  160.8680 P.3       1 GDP501      0.0000 
      2 O1B       236.6200   85.3020  159.5710 O.co2     1 GDP501      0.0000 
      3 O2B       235.1290   86.6430  161.0260 O.co2     1 GDP501      0.0000 
      4 O3B       236.7800   85.1220  162.0150 O.co2     1 GDP501      0.0000 
      5 O3A       237.6030   87.2340  160.8780 O.3       1 GDP501      0.0000 
      6 PA        237.4920   88.4120  159.7960 P.3       1 GDP501      0.0000 
      7 O1A       236.4760   88.0640  158.7380 O.co2     1 GDP501      0.0000 
      8 O2A       237.1230   89.7060  160.4740 O.co2     1 GDP501      0.0000 
      9 O5'       238.9730   88.5140  159.1820 O.3       1 GDP501      0.0000 
     10 C5'       239.8550   89.5120  159.6830 C.3       1 GDP501      0.0000 
     11 C4'       240.5110   90.2760  158.5440 C.3       1 GDP501      0.0000 
     12 O4'       239.5030   91.0040  157.8460 O.3       1 GDP501      0.0000 
     13 C3'       241.5030   91.2910  159.0860 C.3       1 GDP501      0.0000 
     14 O3'       242.7900   91.0850  158.4990 O.3       1 GDP501      0.0000 
     15 C2'       240.9680   92.6480  158.6840 C.3       1 GDP501      0.0000 
     16 O2'       242.0020   93.4420  158.1050 O.3       1 GDP501      0.0000 
     17 C1'       239.8970   92.3610  157.6530 C.3       1 GDP501      0.0000 
     18 N9        238.7420   93.2570  157.8690 N.pl3     1 GDP501      0.0000 
     19 C8        237.7300   93.0330  158.7230 C.2       1 GDP501      0.0000 
     20 N7        236.8290   94.0450  158.6830 N.2       1 GDP501      0.0000 
     21 C5        237.2710   94.9400  157.7830 C.2       1 GDP501      0.0000 
     22 C6        236.8010   96.2360  157.2540 C.2       1 GDP501      0.0000 
     23 O6        235.7350   96.7410  157.6610 O.2       1 GDP501      0.0000 
     24 N1        237.5470   96.8450  156.3310 N.am      1 GDP501      0.0000 
     25 C2        238.6950   96.3170  155.8760 C.2       1 GDP501      0.0000 
     26 N2        239.3910   97.0000  154.9390 N.pl3     1 GDP501      0.0000 
     27 N3        239.1890   95.1340  156.3150 N.2       1 GDP501      0.0000 
     28 C4        238.5310   94.4150  157.2500 C.2       1 GDP501      0.0000 
@<TRIPOS>BOND
     1    1    2 ar   
     2    1    3 ar   
     3    1    4 ar   
     4    1    5 1    
     5    5    6 1    
     6    6    7 ar   
     7    6    8 ar   
     8    6    9 1    
     9    9   10 1    
    10   10   11 1    
    11   11   12 1    
    12   11   13 1    
    13   12   17 1    
    14   13   14 1    
    15   13   15 1    
    16   15   16 1    
    17   15   17 1    
    18   17   18 1    
    19   18   19 1    
    20   18   28 1    
    21   19   20 2    
    22   20   21 1    
    23   21   22 1    
    24   21   28 2    
    25   22   23 2    
    26   22   24 am   
    27   24   25 1    
    28   25   26 1    
    29   25   27 2    
    30   27   28 1    
@<TRIPOS>SUBSTRUCTURE
     1 GDP501      1 GROUP   
@<TRIPOS>SET
ATOM$ORANGE STATIC     ATOMS   COLORGROUP SYSTEM 
20 10 10 11 11 13 13 15 15 17 17 19 19 21 21 22 22 25 \
25 28 28 

