#    Name: 6e88_8_GDP
#    Modification time : Fri May 22 19:29:48 2020

@<TRIPOS>MOLECULE
6e88_8_GDP
   28    30     1     0     1
SMALL
NO_CHARGES


@<TRIPOS>ATOM
      1 PB        185.4520   65.2570  171.4960 P.3       1 GDP501      0.0000 
      2 O1B       185.1550   64.4790  170.2400 O.co2     1 GDP501      0.0000 
      3 O2B       184.5390   66.4500  171.6080 O.co2     1 GDP501      0.0000 
      4 O3B       185.2400   64.3640  172.6910 O.co2     1 GDP501      0.0000 
      5 O3A       186.9810   65.7380  171.4610 O.3       1 GDP501      0.0000 
      6 PA        187.4500   66.7630  170.3210 P.3       1 GDP501      0.0000 
      7 O1A       186.3790   66.9080  169.2690 O.co2     1 GDP501      0.0000 
      8 O2A       187.7760   68.1020  170.9290 O.co2     1 GDP501      0.0000 
      9 O5'       188.7800   66.0910  169.7200 O.3       1 GDP501      0.0000 
     10 C5'       190.0460   66.5490  170.1820 C.3       1 GDP501      0.0000 
     11 C4'       190.9780   66.8330  169.0150 C.3       1 GDP501      0.0000 
     12 O4'       190.4490   67.9280  168.2690 O.3       1 GDP501      0.0000 
     13 C3'       192.3480   67.2530  169.5180 C.3       1 GDP501      0.0000 
     14 O3'       193.3580   66.4110  168.9570 O.3       1 GDP501      0.0000 
     15 C2'       192.5460   68.6760  169.0420 C.3       1 GDP501      0.0000 
     16 O2'       193.8280   68.8280  168.4370 O.3       1 GDP501      0.0000 
     17 C1'       191.4580   68.9030  168.0140 C.3       1 GDP501      0.0000 
     18 N9        190.8970   70.2610  168.1710 N.pl3     1 GDP501      0.0000 
     19 C8        189.9180   70.6080  169.0220 C.2       1 GDP501      0.0000 
     20 N7        189.6320   71.9290  168.9210 N.2       1 GDP501      0.0000 
     21 C5        190.4450   72.4440  167.9840 C.2       1 GDP501      0.0000 
     22 C6        190.6670   73.7760  167.3860 C.2       1 GDP501      0.0000 
     23 O6        189.9940   74.7590  167.7540 O.2       1 GDP501      0.0000 
     24 N1        191.6040   73.8910  166.4420 N.am      1 GDP501      0.0000 
     25 C2        192.3360   72.8450  166.0280 C.2       1 GDP501      0.0000 
     26 N2        193.2650   73.0490  165.0670 N.pl3     1 GDP501      0.0000 
     27 N3        192.1890   71.5950  166.5320 N.2       1 GDP501      0.0000 
     28 C4        191.2760   71.3410  167.4930 C.2       1 GDP501      0.0000 
@<TRIPOS>BOND
     1    1    2 ar   
     2    1    3 ar   
     3    1    4 ar   
     4    1    5 1    
     5    5    6 1    
     6    6    7 ar   
     7    6    8 ar   
     8    6    9 1    
     9    9   10 1    
    10   10   11 1    
    11   11   12 1    
    12   11   13 1    
    13   12   17 1    
    14   13   14 1    
    15   13   15 1    
    16   15   16 1    
    17   15   17 1    
    18   17   18 1    
    19   18   19 1    
    20   18   28 1    
    21   19   20 2    
    22   20   21 1    
    23   21   22 1    
    24   21   28 2    
    25   22   23 2    
    26   22   24 am   
    27   24   25 1    
    28   25   26 1    
    29   25   27 2    
    30   27   28 1    
@<TRIPOS>SUBSTRUCTURE
     1 GDP501      1 GROUP   
@<TRIPOS>SET
ATOM$ORANGE STATIC     ATOMS   COLORGROUP SYSTEM 
20 10 10 11 11 13 13 15 15 17 17 19 19 21 21 22 22 25 \
25 28 28 

