#    Name: 6e88_7_GDP
#    Modification time : Fri May 22 19:29:32 2020

@<TRIPOS>MOLECULE
6e88_7_GDP
   28    30     1     0     1
SMALL
NO_CHARGES


@<TRIPOS>ATOM
      1 PB        270.8190  130.6610  150.3870 P.3       1 GDP501      0.0000 
      2 O1B       271.2170  129.9970  149.0940 O.co2     1 GDP501      0.0000 
      3 O2B       269.3610  130.4170  150.6800 O.co2     1 GDP501      0.0000 
      4 O3B       271.6470  130.0890  151.5100 O.co2     1 GDP501      0.0000 
      5 O3A       271.1000  132.2340  150.2720 O.3       1 GDP501      0.0000 
      6 PA        270.2820  133.0960  149.1950 P.3       1 GDP501      0.0000 
      7 O1A       269.5340  132.1880  148.2510 O.co2     1 GDP501      0.0000 
      8 O2A       269.3270  134.0290  149.8940 O.co2     1 GDP501      0.0000 
      9 O5'       271.4160  133.9370  148.4310 O.3       1 GDP501      0.0000 
     10 C5'       271.6550  135.2830  148.8280 C.3       1 GDP501      0.0000 
     11 C4'       271.6990  136.2050  147.6190 C.3       1 GDP501      0.0000 
     12 O4'       270.4040  136.2300  147.0220 O.3       1 GDP501      0.0000 
     13 C3'       272.0230  137.6260  148.0460 C.3       1 GDP501      0.0000 
     14 O3'       273.1640  138.1070  147.3310 O.3       1 GDP501      0.0000 
     15 C2'       270.8080  138.4540  147.6870 C.3       1 GDP501      0.0000 
     16 O2'       271.1970  139.6400  146.9960 O.3       1 GDP501      0.0000 
     17 C1'       269.9840  137.5700  146.7740 C.3       1 GDP501      0.0000 
     18 N9        268.5490  137.7170  147.0990 N.pl3     1 GDP501      0.0000 
     19 C8        267.8920  137.0390  148.0550 C.2       1 GDP501      0.0000 
     20 N7        266.5880  137.4040  148.0970 N.2       1 GDP501      0.0000 
     21 C5        266.4010  138.3350  147.1470 C.2       1 GDP501      0.0000 
     22 C6        265.2630  139.1380  146.6560 C.2       1 GDP501      0.0000 
     23 O6        264.1300  139.0160  147.1650 O.2       1 GDP501      0.0000 
     24 N1        265.4830  139.9920  145.6540 N.am      1 GDP501      0.0000 
     25 C2        266.6930  140.1360  145.0900 C.2       1 GDP501      0.0000 
     26 N2        266.8300  141.0230  144.0780 N.pl3     1 GDP501      0.0000 
     27 N3        267.7820  139.4340  145.4880 N.2       1 GDP501      0.0000 
     28 C4        267.6960  138.5370  146.4930 C.2       1 GDP501      0.0000 
@<TRIPOS>BOND
     1    1    2 ar   
     2    1    3 ar   
     3    1    4 ar   
     4    1    5 1    
     5    5    6 1    
     6    6    7 ar   
     7    6    8 ar   
     8    6    9 1    
     9    9   10 1    
    10   10   11 1    
    11   11   12 1    
    12   11   13 1    
    13   12   17 1    
    14   13   14 1    
    15   13   15 1    
    16   15   16 1    
    17   15   17 1    
    18   17   18 1    
    19   18   19 1    
    20   18   28 1    
    21   19   20 2    
    22   20   21 1    
    23   21   22 1    
    24   21   28 2    
    25   22   23 2    
    26   22   24 am   
    27   24   25 1    
    28   25   26 1    
    29   25   27 2    
    30   27   28 1    
@<TRIPOS>SUBSTRUCTURE
     1 GDP501      1 GROUP   
@<TRIPOS>SET
ATOM$ORANGE STATIC     ATOMS   COLORGROUP SYSTEM 
20 10 10 11 11 13 13 15 15 17 17 19 19 21 21 22 22 25 \
25 28 28 

