#    Name: 6e88_1_GTP
#    Modification time : Fri May 22 19:28:06 2020

@<TRIPOS>MOLECULE
6e88_1_GTP
   32    34     1     0     1
SMALL
NO_CHARGES


@<TRIPOS>ATOM
      1 PG        235.1570   85.1730  122.1540 P.3       1 GTP501      0.0000 
      2 O1G       234.5610   86.3980  122.8070 O.co2     1 GTP501      0.0000 
      3 O2G       234.3100   83.9560  122.4060 O.co2     1 GTP501      0.0000 
      4 O3G       236.5260   84.8950  122.7280 O.co2     1 GTP501      0.0000 
      5 O3B       235.2870   85.3520  120.5630 O.3       1 GTP501      0.0000 
      6 PB        235.4270   86.7940  119.8700 P.3       1 GTP501      0.0000 
      7 O1B       234.3120   87.7120  120.3000 O.co2     1 GTP501      0.0000 
      8 O2B       235.4270   86.6320  118.3700 O.co2     1 GTP501      0.0000 
      9 O3A       236.8410   87.3210  120.4150 O.3       1 GTP501      0.0000 
     10 PA        237.6100   88.4230  119.5430 P.3       1 GTP501      0.0000 
     11 O1A       238.4750   89.2640  120.4460 O.co2     1 GTP501      0.0000 
     12 O2A       236.5820   89.2690  118.8420 O.co2     1 GTP501      0.0000 
     13 O5'       238.5390   87.6290  118.4980 O.3       1 GTP501      0.0000 
     14 C5'       239.9150   87.9310  118.4480 C.3       1 GTP501      0.0000 
     15 C4'       240.2510   88.7990  117.2430 C.3       1 GTP501      0.0000 
     16 O4'       239.1200   89.5040  116.7780 O.3       1 GTP501      0.0000 
     17 C3'       241.2740   89.8660  117.5860 C.3       1 GTP501      0.0000 
     18 O3'       242.5570   89.4550  117.1860 O.3       1 GTP501      0.0000 
     19 C2'       240.8500   91.0840  116.7940 C.3       1 GTP501      0.0000 
     20 O2'       241.8100   91.3770  115.8130 O.3       1 GTP501      0.0000 
     21 C1'       239.5390   90.6950  116.1370 C.3       1 GTP501      0.0000 
     22 N9        238.5440   91.7610  116.3260 N.pl3     1 GTP501      0.0000 
     23 C8        237.4350   91.6870  117.1190 C.2       1 GTP501      0.0000 
     24 N7        236.7560   92.8480  117.0300 N.2       1 GTP501      0.0000 
     25 C5        237.4090   93.6580  116.1740 C.2       1 GTP501      0.0000 
     26 C6        237.1390   94.9380  115.7320 C.2       1 GTP501      0.0000 
     27 O6        236.1420   95.5280  116.1380 O.2       1 GTP501      0.0000 
     28 N1        237.9910   95.5460  114.8410 N.am      1 GTP501      0.0000 
     29 C2        239.1030   94.8700  114.3960 C.2       1 GTP501      0.0000 
     30 N2        239.9260   95.4550  113.5340 N.pl3     1 GTP501      0.0000 
     31 N3        239.3680   93.5920  114.8410 N.2       1 GTP501      0.0000 
     32 C4        238.5330   92.9920  115.7190 C.2       1 GTP501      0.0000 
@<TRIPOS>BOND
     1    1    2 ar   
     2    1    3 ar   
     3    1    4 ar   
     4    1    5 1    
     5    5    6 1    
     6    6    7 ar   
     7    6    8 ar   
     8    6    9 1    
     9    9   10 1    
    10   10   11 ar   
    11   10   12 ar   
    12   10   13 1    
    13   13   14 1    
    14   14   15 1    
    15   15   16 1    
    16   15   17 1    
    17   16   21 1    
    18   17   18 1    
    19   17   19 1    
    20   19   20 1    
    21   19   21 1    
    22   21   22 1    
    23   22   23 1    
    24   22   32 1    
    25   23   24 2    
    26   24   25 1    
    27   25   26 1    
    28   25   32 2    
    29   26   27 2    
    30   26   28 am   
    31   28   29 1    
    32   29   30 1    
    33   29   31 2    
    34   31   32 1    
@<TRIPOS>SUBSTRUCTURE
     1 GTP501      1 GROUP   
@<TRIPOS>SET
ATOM$ORANGE STATIC     ATOMS   COLORGROUP SYSTEM 
20 14 14 15 15 17 17 19 19 21 21 23 23 25 25 26 26 29 \
29 32 32 

