#    Name: 6e88_11_GDP
#    Modification time : Fri May 22 19:30:29 2020

@<TRIPOS>MOLECULE
6e88_11_GDP
   28    30     1     0     1
SMALL
NO_CHARGES


@<TRIPOS>ATOM
      1 PB        271.1230  131.1890  233.4750 P.3       1 GDP501      0.0000 
      2 O1B       271.7000  130.5600  232.2310 O.co2     1 GDP501      0.0000 
      3 O2B       269.6420  130.9290  233.5610 O.co2     1 GDP501      0.0000 
      4 O3B       271.7970  130.5930  234.6840 O.co2     1 GDP501      0.0000 
      5 O3A       271.4020  132.7660  233.4380 O.3       1 GDP501      0.0000 
      6 PA        270.7300  133.6500  232.2810 P.3       1 GDP501      0.0000 
      7 O1A       270.1260  132.7630  231.2220 O.co2     1 GDP501      0.0000 
      8 O2A       269.6810  134.5590  232.8660 O.co2     1 GDP501      0.0000 
      9 O5'       271.9500  134.5180  231.6990 O.3       1 GDP501      0.0000 
     10 C5'       272.1200  135.8550  232.1580 C.3       1 GDP501      0.0000 
     11 C4'       272.3180  136.8070  230.9900 C.3       1 GDP501      0.0000 
     12 O4'       271.1160  136.8400  230.2220 O.3       1 GDP501      0.0000 
     13 C3'       272.5680  138.2180  231.4910 C.3       1 GDP501      0.0000 
     14 O3'       273.7910  138.7240  230.9500 O.3       1 GDP501      0.0000 
     15 C2'       271.4060  139.0480  230.9910 C.3       1 GDP501      0.0000 
     16 O2'       271.8740  140.2540  230.3890 O.3       1 GDP501      0.0000 
     17 C1'       270.7210  138.1840  229.9540 C.3       1 GDP501      0.0000 
     18 N9        269.2550  138.3130  230.0840 N.pl3     1 GDP501      0.0000 
     19 C8        268.4810  137.6080  230.9250 C.2       1 GDP501      0.0000 
     20 N7        267.1790  137.9630  230.7980 N.2       1 GDP501      0.0000 
     21 C5        267.1140  138.9180  229.8560 C.2       1 GDP501      0.0000 
     22 C6        266.0450  139.7260  229.2350 C.2       1 GDP501      0.0000 
     23 O6        264.8550  139.5840  229.5820 O.2       1 GDP501      0.0000 
     24 N1        266.3920  140.6060  228.2930 N.am      1 GDP501      0.0000 
     25 C2        267.6650  140.7720  227.9020 C.2       1 GDP501      0.0000 
     26 N2        267.9290  141.6860  226.9410 N.pl3     1 GDP501      0.0000 
     27 N3        268.6960  140.0670  228.4270 N.2       1 GDP501      0.0000 
     28 C4        268.4840  139.1440  229.3880 C.2       1 GDP501      0.0000 
@<TRIPOS>BOND
     1    1    2 ar   
     2    1    3 ar   
     3    1    4 ar   
     4    1    5 1    
     5    5    6 1    
     6    6    7 ar   
     7    6    8 ar   
     8    6    9 1    
     9    9   10 1    
    10   10   11 1    
    11   11   12 1    
    12   11   13 1    
    13   12   17 1    
    14   13   14 1    
    15   13   15 1    
    16   15   16 1    
    17   15   17 1    
    18   17   18 1    
    19   18   19 1    
    20   18   28 1    
    21   19   20 2    
    22   20   21 1    
    23   21   22 1    
    24   21   28 2    
    25   22   23 2    
    26   22   24 am   
    27   24   25 1    
    28   25   26 1    
    29   25   27 2    
    30   27   28 1    
@<TRIPOS>SUBSTRUCTURE
     1 GDP501      1 GROUP   
@<TRIPOS>SET
ATOM$ORANGE STATIC     ATOMS   COLORGROUP SYSTEM 
20 10 10 11 11 13 13 15 15 17 17 19 19 21 21 22 22 25 \
25 28 28 

