#    Name: 6e88_6_GTP
#    Modification time : Fri May 22 19:29:15 2020

@<TRIPOS>MOLECULE
6e88_6_GTP
   32    34     1     0     1
SMALL
NO_CHARGES


@<TRIPOS>ATOM
      1 PG        182.6560   63.9910  131.3320 P.3       1 GTP501      0.0000 
      2 O1G       181.4350   63.1140  131.3270 O.co2     1 GTP501      0.0000 
      3 O2G       182.3290   65.3810  131.8250 O.co2     1 GTP501      0.0000 
      4 O3G       183.6710   63.3440  132.2440 O.co2     1 GTP501      0.0000 
      5 O3B       183.2410   64.0140  129.8360 O.3       1 GTP501      0.0000 
      6 PB        184.0020   65.2930  129.2320 P.3       1 GTP501      0.0000 
      7 O1B       184.3370   65.0390  127.7830 O.co2     1 GTP501      0.0000 
      8 O2B       183.1620   66.5370  129.3670 O.co2     1 GTP501      0.0000 
      9 O3A       185.3190   65.3940  130.1420 O.3       1 GTP501      0.0000 
     10 PA        186.5920   66.1440  129.5260 P.3       1 GTP501      0.0000 
     11 O1A       186.1010   67.2170  128.5920 O.co2     1 GTP501      0.0000 
     12 O2A       187.4150   66.7370  130.6410 O.co2     1 GTP501      0.0000 
     13 O5'       187.4610   65.0350  128.7510 O.3       1 GTP501      0.0000 
     14 C5'       188.8260   64.8940  129.0740 C.3       1 GTP501      0.0000 
     15 C4'       189.7160   65.5340  128.0180 C.3       1 GTP501      0.0000 
     16 O4'       189.0260   66.5200  127.2820 O.3       1 GTP501      0.0000 
     17 C3'       190.8990   66.2540  128.6400 C.3       1 GTP501      0.0000 
     18 O3'       192.0450   65.4420  128.5870 O.3       1 GTP501      0.0000 
     19 C2'       191.0980   67.4870  127.7860 C.3       1 GTP501      0.0000 
     20 O2'       192.3210   67.4040  127.1010 O.3       1 GTP501      0.0000 
     21 C1'       189.9480   67.4780  126.7970 C.3       1 GTP501      0.0000 
     22 N9        189.3260   68.8090  126.7340 N.pl3     1 GTP501      0.0000 
     23 C8        188.0850   69.1330  127.2030 C.2       1 GTP501      0.0000 
     24 N7        187.8540   70.4390  126.9570 N.2       1 GTP501      0.0000 
     25 C5        188.9250   70.9490  126.3210 C.2       1 GTP501      0.0000 
     26 C6        189.1960   72.2170  125.8460 C.2       1 GTP501      0.0000 
     27 O6        188.3670   73.1120  125.9830 O.2       1 GTP501      0.0000 
     28 N1        190.3960   72.4720  125.2250 N.am      1 GTP501      0.0000 
     29 C2        191.3130   71.4580  125.0790 C.2       1 GTP501      0.0000 
     30 N2        192.4710   71.7020  124.4780 N.pl3     1 GTP501      0.0000 
     31 N3        191.0380   70.1940  125.5560 N.2       1 GTP501      0.0000 
     32 C4        189.8600   69.9390  126.1690 C.2       1 GTP501      0.0000 
@<TRIPOS>BOND
     1    1    2 ar   
     2    1    3 ar   
     3    1    4 ar   
     4    1    5 1    
     5    5    6 1    
     6    6    7 ar   
     7    6    8 ar   
     8    6    9 1    
     9    9   10 1    
    10   10   11 ar   
    11   10   12 ar   
    12   10   13 1    
    13   13   14 1    
    14   14   15 1    
    15   15   16 1    
    16   15   17 1    
    17   16   21 1    
    18   17   18 1    
    19   17   19 1    
    20   19   20 1    
    21   19   21 1    
    22   21   22 1    
    23   22   23 1    
    24   22   32 1    
    25   23   24 2    
    26   24   25 1    
    27   25   26 1    
    28   25   32 2    
    29   26   27 2    
    30   26   28 am   
    31   28   29 1    
    32   29   30 1    
    33   29   31 2    
    34   31   32 1    
@<TRIPOS>SUBSTRUCTURE
     1 GTP501      1 GROUP   
@<TRIPOS>SET
ATOM$ORANGE STATIC     ATOMS   COLORGROUP SYSTEM 
20 14 14 15 15 17 17 19 19 21 21 23 23 25 25 26 26 29 \
29 32 32 

