#    Name: 6e88_3_GTP
#    Modification time : Fri May 22 19:28:40 2020

@<TRIPOS>MOLECULE
6e88_3_GTP
   32    34     1     0     1
SMALL
NO_CHARGES


@<TRIPOS>ATOM
      1 PG        235.6210   83.9020  203.2660 P.3       1 GTP501      0.0000 
      2 O1G       234.9730   82.5490  203.1690 O.co2     1 GTP501      0.0000 
      3 O2G       234.6630   84.9280  203.8260 O.co2     1 GTP501      0.0000 
      4 O3G       236.8200   83.7640  204.1720 O.co2     1 GTP501      0.0000 
      5 O3B       236.1250   84.3030  201.7940 O.3       1 GTP501      0.0000 
      6 PB        236.1760   85.8270  201.2900 P.3       1 GTP501      0.0000 
      7 O1B       236.5950   85.8620  199.8410 O.co2     1 GTP501      0.0000 
      8 O2B       234.8410   86.5020  201.4670 O.co2     1 GTP501      0.0000 
      9 O3A       237.2800   86.4880  202.2480 O.3       1 GTP501      0.0000 
     10 PA        238.0360   87.7970  201.7190 P.3       1 GTP501      0.0000 
     11 O1A       237.0900   88.5610  200.8320 O.co2     1 GTP501      0.0000 
     12 O2A       238.4690   88.6370  202.8940 O.co2     1 GTP501      0.0000 
     13 O5'       239.3330   87.2970  200.9120 O.3       1 GTP501      0.0000 
     14 C5'       240.5960   87.8080  201.2720 C.3       1 GTP501      0.0000 
     15 C4'       241.0700   88.8650  200.2840 C.3       1 GTP501      0.0000 
     16 O4'       239.9910   89.4450  199.5830 O.3       1 GTP501      0.0000 
     17 C3'       241.7580   90.0220  200.9860 C.3       1 GTP501      0.0000 
     18 O3'       243.1530   89.8660  200.9260 O.3       1 GTP501      0.0000 
     19 C2'       241.3400   91.2530  200.2110 C.3       1 GTP501      0.0000 
     20 O2'       242.4530   91.8140  199.5640 O.3       1 GTP501      0.0000 
     21 C1'       240.3380   90.7580  199.1860 C.3       1 GTP501      0.0000 
     22 N9        239.1520   91.6270  199.1780 N.pl3     1 GTP501      0.0000 
     23 C8        237.9080   91.2830  199.6230 C.2       1 GTP501      0.0000 
     24 N7        237.0760   92.3290  199.4440 N.2       1 GTP501      0.0000 
     25 C5        237.7710   93.3320  198.8740 C.2       1 GTP501      0.0000 
     26 C6        237.3980   94.6030  198.4830 C.2       1 GTP501      0.0000 
     27 O6        236.2400   94.9770  198.6430 O.2       1 GTP501      0.0000 
     28 N1        238.3270   95.4440  197.9180 N.am      1 GTP501      0.0000 
     29 C2        239.6200   95.0080  197.7450 C.2       1 GTP501      0.0000 
     30 N2        240.5180   95.8180  197.1980 N.pl3     1 GTP501      0.0000 
     31 N3        239.9870   93.7390  198.1390 N.2       1 GTP501      0.0000 
     32 C4        239.0770   92.9090  198.6970 C.2       1 GTP501      0.0000 
@<TRIPOS>BOND
     1    1    2 ar   
     2    1    3 ar   
     3    1    4 ar   
     4    1    5 1    
     5    5    6 1    
     6    6    7 ar   
     7    6    8 ar   
     8    6    9 1    
     9    9   10 1    
    10   10   11 ar   
    11   10   12 ar   
    12   10   13 1    
    13   13   14 1    
    14   14   15 1    
    15   15   16 1    
    16   15   17 1    
    17   16   21 1    
    18   17   18 1    
    19   17   19 1    
    20   19   20 1    
    21   19   21 1    
    22   21   22 1    
    23   22   23 1    
    24   22   32 1    
    25   23   24 2    
    26   24   25 1    
    27   25   26 1    
    28   25   32 2    
    29   26   27 2    
    30   26   28 am   
    31   28   29 1    
    32   29   30 1    
    33   29   31 2    
    34   31   32 1    
@<TRIPOS>SUBSTRUCTURE
     1 GTP501      1 GROUP   
@<TRIPOS>SET
ATOM$ORANGE STATIC     ATOMS   COLORGROUP SYSTEM 
20 14 14 15 15 17 17 19 19 21 21 23 23 25 25 26 26 29 \
29 32 32 

