#    Name: 6e88_10_GTP
#    Modification time : Fri May 22 19:30:21 2020

@<TRIPOS>MOLECULE
6e88_10_GTP
   32    34     1     0     1
SMALL
NO_CHARGES


@<TRIPOS>ATOM
      1 PG        184.3740   64.7540  215.2570 P.3       1 GTP501      0.0000 
      2 O1G       183.0520   64.0680  215.4640 O.co2     1 GTP501      0.0000 
      3 O2G       184.3990   66.1090  215.9260 O.co2     1 GTP501      0.0000 
      4 O3G       185.4410   63.8650  215.8500 O.co2     1 GTP501      0.0000 
      5 O3B       184.6160   64.8700  213.6730 O.3       1 GTP501      0.0000 
      6 PB        185.4290   66.0890  213.0160 P.3       1 GTP501      0.0000 
      7 O1B       185.3950   65.9640  211.5130 O.co2     1 GTP501      0.0000 
      8 O2B       184.8580   67.4160  213.4460 O.co2     1 GTP501      0.0000 
      9 O3A       186.9110   65.8920  213.5990 O.3       1 GTP501      0.0000 
     10 PA        188.1270   66.5200  212.7670 P.3       1 GTP501      0.0000 
     11 O1A       187.6300   67.7550  212.0660 O.co2     1 GTP501      0.0000 
     12 O2A       189.2590   66.8510  213.7050 O.co2     1 GTP501      0.0000 
     13 O5'       188.6090   65.3970  211.7220 O.3       1 GTP501      0.0000 
     14 C5'       189.9690   65.0250  211.7050 C.3       1 GTP501      0.0000 
     15 C4'       190.7020   65.6500  210.5270 C.3       1 GTP501      0.0000 
     16 O4'       190.0420   66.8060  210.0570 O.3       1 GTP501      0.0000 
     17 C3'       192.0940   66.1150  210.9140 C.3       1 GTP501      0.0000 
     18 O3'       193.0500   65.1590  210.5280 O.3       1 GTP501      0.0000 
     19 C2'       192.3060   67.3990  210.1420 C.3       1 GTP501      0.0000 
     20 O2'       193.3200   67.2240  209.1860 O.3       1 GTP501      0.0000 
     21 C1'       190.9840   67.6720  209.4510 C.3       1 GTP501      0.0000 
     22 N9        190.5930   69.0770  209.6460 N.pl3     1 GTP501      0.0000 
     23 C8        189.5560   69.5180  210.4160 C.2       1 GTP501      0.0000 
     24 N7        189.4970   70.8630  210.3400 N.2       1 GTP501      0.0000 
     25 C5        190.4750   71.2860  209.5160 C.2       1 GTP501      0.0000 
     26 C6        190.8430   72.5490  209.0980 C.2       1 GTP501      0.0000 
     27 O6        190.2240   73.5310  209.4980 O.2       1 GTP501      0.0000 
     28 N1        191.9040   72.7010  208.2370 N.am      1 GTP501      0.0000 
     29 C2        192.5860   71.5910  207.7980 C.2       1 GTP501      0.0000 
     30 N2        193.6100   71.7350  206.9660 N.pl3     1 GTP501      0.0000 
     31 N3        192.2150   70.3310  208.2190 N.2       1 GTP501      0.0000 
     32 C4        191.1730   70.1780  209.0670 C.2       1 GTP501      0.0000 
@<TRIPOS>BOND
     1    1    2 ar   
     2    1    3 ar   
     3    1    4 ar   
     4    1    5 1    
     5    5    6 1    
     6    6    7 ar   
     7    6    8 ar   
     8    6    9 1    
     9    9   10 1    
    10   10   11 ar   
    11   10   12 ar   
    12   10   13 1    
    13   13   14 1    
    14   14   15 1    
    15   15   16 1    
    16   15   17 1    
    17   16   21 1    
    18   17   18 1    
    19   17   19 1    
    20   19   20 1    
    21   19   21 1    
    22   21   22 1    
    23   22   23 1    
    24   22   32 1    
    25   23   24 2    
    26   24   25 1    
    27   25   26 1    
    28   25   32 2    
    29   26   27 2    
    30   26   28 am   
    31   28   29 1    
    32   29   30 1    
    33   29   31 2    
    34   31   32 1    
@<TRIPOS>SUBSTRUCTURE
     1 GTP501      1 GROUP   
@<TRIPOS>SET
ATOM$ORANGE STATIC     ATOMS   COLORGROUP SYSTEM 
20 14 14 15 15 17 17 19 19 21 21 23 23 25 25 26 26 29 \
29 32 32 

