#    Name: 6e88_11_GDP_CAVITY_N1_4
#    Modification time : Fri May 22 19:30:30 2020

@<TRIPOS>MOLECULE
6e88_11_GDP_CAVITY_N1_4
   95     0     6     0     0
SMALL
NO_CHARGES


@<TRIPOS>ATOM
      1 OG        272.7100  136.0300  229.8900 O.3       1 SER1        0.0000 
      2 OG        271.6300  135.4100  230.7200 O.3       1 SER1        0.0000 
      3 OG        270.5000  143.5100  229.9500 O.3       1 SER1        0.0000 
      4 OG        273.3900  136.5200  231.1300 O.3       1 SER1        0.0000 
      5 OG        270.2200  141.6100  230.8500 O.3       1 SER1        0.0000 
      6 OG        269.4200  142.8800  230.7800 O.3       1 SER1        0.0000 
      7 OG        272.3100  135.9000  231.9700 O.3       1 SER1        0.0000 
      8 OG        269.1400  140.9800  231.6900 O.3       1 SER1        0.0000 
      9 OG        271.1800  144.0000  231.1900 O.3       1 SER1        0.0000 
     10 N         269.2500  140.7600  226.2900 N.am      2 ALA2        0.0000 
     11 N         268.4600  142.0300  226.2200 N.am      2 ALA2        0.0000 
     12 N         268.9700  138.8600  227.1900 N.am      2 ALA2        0.0000 
     13 N         268.1800  140.1300  227.1200 N.am      2 ALA2        0.0000 
     14 N         267.3800  141.4000  227.0500 N.am      2 ALA2        0.0000 
     15 N         267.8900  138.2300  228.0300 N.am      2 ALA2        0.0000 
     16 O         267.1000  139.5100  227.9600 O.2       2 ALA2        0.0000 
     17 O         266.3100  140.7800  227.8900 O.2       2 ALA2        0.0000 
     18 N         266.8200  137.6100  228.8600 N.am      2 ALA2        0.0000 
     19 O         266.0200  138.8800  228.7900 O.2       2 ALA2        0.0000 
     20 O         265.2300  140.1500  228.7200 O.2       2 ALA2        0.0000 
     21 N         265.7400  136.9800  229.7000 N.am      2 ALA2        0.0000 
     22 N         264.9500  138.2500  229.6300 N.am      2 ALA2        0.0000 
     23 N         264.1500  139.5300  229.5600 N.am      2 ALA2        0.0000 
     24 N         270.2200  143.1500  226.6200 N.am      2 ALA2        0.0000 
     25 N         269.9300  141.2500  227.5300 N.am      2 ALA2        0.0000 
     26 N         269.1400  142.5200  227.4600 N.am      2 ALA2        0.0000 
     27 N         270.4400  138.0800  228.5000 N.am      2 ALA2        0.0000 
     28 N         269.6500  139.3500  228.4300 N.am      2 ALA2        0.0000 
     29 N         269.3700  137.4600  229.3400 N.am      2 ALA2        0.0000 
     30 N         268.5700  138.7300  229.2700 N.am      2 ALA2        0.0000 
     31 N         267.2100  136.2000  231.0100 N.am      2 ALA2        0.0000 
     32 N         266.4200  137.4800  230.9400 N.am      2 ALA2        0.0000 
     33 N         265.6300  138.7500  230.8700 N.am      2 ALA2        0.0000 
     34 N         265.3400  136.8500  231.7800 N.am      2 ALA2        0.0000 
     35 N         270.9000  143.6400  227.8700 N.am      2 ALA2        0.0000 
     36 N         270.6100  141.7400  228.7700 N.am      2 ALA2        0.0000 
     37 N         269.8200  143.0100  228.7000 N.am      2 ALA2        0.0000 
     38 O         271.1200  138.5700  229.7500 O.2       2 ALA2        0.0000 
     39 N         270.3300  139.8500  229.6800 N.am      2 ALA2        0.0000 
     40 N         269.5400  141.1200  229.6100 N.am      2 ALA2        0.0000 
     41 O         266.0200  137.3400  233.0200 O.2       2 ALA2        0.0000 
     42 O         273.6700  138.4200  230.2200 O.2       2 ALA2        0.0000 
     43 O         271.2900  142.2300  230.0200 O.2       2 ALA2        0.0000 
     44 O         274.1800  135.2500  231.2000 O.2       2 ALA2        0.0000 
     45 O         271.8000  139.0700  230.9900 O.2       2 ALA2        0.0000 
     46 O         271.0100  140.3400  230.9200 O.2       2 ALA2        0.0000 
     47 O         273.1100  134.6300  232.0400 O.2       2 ALA2        0.0000 
     48 O         271.9700  142.7300  231.2600 O.2       2 ALA2        0.0000 
     49 O         274.8600  135.7400  232.4400 O.2       2 ALA2        0.0000 
     50 O         273.7800  135.1200  233.2800 O.2       2 ALA2        0.0000 
     51 NZ        275.1400  137.6400  231.5400 N.4       3 LYS4        0.0000 
     52 NZ        272.4800  139.5600  232.2300 N.4       3 LYS4        0.0000 
     53 CZ        268.0600  141.9000  228.2900 C.ar      4 PHE5        0.0000 
     54 CZ        267.2700  143.1700  228.2300 C.ar      4 PHE5        0.0000 
     55 CZ        266.9900  141.2700  229.1300 C.ar      4 PHE5        0.0000 
     56 CZ        265.9100  140.6400  229.9700 C.ar      4 PHE5        0.0000 
     57 CZ        264.8300  140.0200  230.8000 C.ar      4 PHE5        0.0000 
     58 CZ        268.7400  142.3900  229.5400 C.ar      4 PHE5        0.0000 
     59 CZ        268.4600  140.4900  230.4400 C.ar      4 PHE5        0.0000 
     60 CZ        267.6700  141.7600  230.3700 C.ar      4 PHE5        0.0000 
     61 CZ        267.3800  139.8600  231.2800 C.ar      4 PHE5        0.0000 
     62 CZ        266.3100  139.2400  232.1200 C.ar      4 PHE5        0.0000 
     63 CA        268.2900  136.8300  230.1800 C.3       5 GLY6        0.0000 
     64 CA        267.5000  138.1000  230.1100 C.3       5 GLY6        0.0000 
     65 CA        272.9900  137.9300  228.9800 C.3       5 GLY6        0.0000 
     66 CA        271.9200  137.3000  229.8200 C.3       5 GLY6        0.0000 
     67 CA        270.8400  136.6800  230.6500 C.3       5 GLY6        0.0000 
     68 CA        270.5600  134.7800  231.5600 C.3       5 GLY6        0.0000 
     69 CA        269.7600  136.0500  231.4900 C.3       5 GLY6        0.0000 
     70 CA        268.6900  135.4200  232.3300 C.3       5 GLY6        0.0000 
     71 CA        267.8900  136.7000  232.2600 C.3       5 GLY6        0.0000 
     72 CA        274.4700  137.1500  230.2900 C.3       5 GLY6        0.0000 
     73 CA        273.0500  143.3500  230.4200 C.3       5 GLY6        0.0000 
     74 CA        274.0700  137.0200  232.3700 C.3       5 GLY6        0.0000 
     75 CA        273.2800  138.2900  232.3000 C.3       5 GLY6        0.0000 
     76 CA        272.9900  136.3900  233.2100 C.3       5 GLY6        0.0000 
     77 CA        274.7500  137.5100  233.6200 C.3       5 GLY6        0.0000 
     78 CA        273.9500  138.7800  233.5500 C.3       5 GLY6        0.0000 
     79 CA        273.6700  136.8800  234.4500 C.3       5 GLY6        0.0000 
     80 DU        268.8600  140.6200  228.3600 H         6 CUB7        0.0000 
     81 DU        267.7800  140.0000  229.2000 H         6 CUB7        0.0000 
     82 DU        266.7000  139.3700  230.0400 H         6 CUB7        0.0000 
     83 DU        270.0500  137.9500  230.5800 H         6 CUB7        0.0000 
     84 DU        269.2500  139.2200  230.5100 H         6 CUB7        0.0000 
     85 DU        268.9700  137.3200  231.4200 H         6 CUB7        0.0000 
     86 DU        268.1800  138.5900  231.3500 H         6 CUB7        0.0000 
     87 DU        267.1000  137.9700  232.1900 H         6 CUB7        0.0000 
     88 DU        272.6000  137.7900  231.0600 H         6 CUB7        0.0000 
     89 DU        271.5200  137.1700  231.9000 H         6 CUB7        0.0000 
     90 DU        269.9300  139.7100  231.7600 H         6 CUB7        0.0000 
     91 DU        271.2400  135.2700  232.8000 H         6 CUB7        0.0000 
     92 DU        270.4400  136.5400  232.7300 H         6 CUB7        0.0000 
     93 DU        268.8600  139.0900  232.5900 H         6 CUB7        0.0000 
     94 DU        272.2000  137.6600  233.1400 H         6 CUB7        0.0000 
     95 DU        271.9200  135.7600  234.0500 H         6 CUB7        0.0000 
@<TRIPOS>BOND
@<TRIPOS>SUBSTRUCTURE
     1 SER1        1 GROUP   
     2 ALA2       10 GROUP   
     3 LYS4       51 GROUP   
     4 PHE5       53 GROUP   
     5 GLY6       63 GROUP   
     6 CUB7       80 GROUP   
@<TRIPOS>SET

