#    Name: 6e10_4_AGS
#    Modification time : Fri May 22 19:29:25 2020

@<TRIPOS>MOLECULE
6e10_4_AGS
   31    33     1     0     0
SMALL
NO_CHARGES


@<TRIPOS>ATOM
      1 PG        249.3830  217.6040  261.2570 P.3       1 AGS1002     0.0000 
      2 S1G       247.9280  218.4800  260.3110 S.2       1 AGS1002     0.0000 
      3 O2G       250.4200  218.6420  261.7740 O.3       1 AGS1002     0.0000 
      4 O3G       250.0470  216.5840  260.3050 O.3       1 AGS1002     0.0000 
      5 PB        249.3350  217.0250  263.8930 P.3       1 AGS1002     0.0000 
      6 O1B       250.6730  216.2820  263.9090 O.co2     1 AGS1002     0.0000 
      7 O2B       249.4300  218.4580  264.2570 O.co2     1 AGS1002     0.0000 
      8 O3B       248.7890  216.8110  262.4410 O.3       1 AGS1002     0.0000 
      9 PA        248.7280  214.6480  264.5740 P.3       1 AGS1002     0.0000 
     10 O1A       248.7820  214.5540  263.0470 O.co2     1 AGS1002     0.0000 
     11 O2A       250.0080  214.3220  265.2080 O.co2     1 AGS1002     0.0000 
     12 O3A       248.4190  216.1660  264.8340 O.3       1 AGS1002     0.0000 
     13 O5'       247.5740  213.7360  265.1450 O.3       1 AGS1002     0.0000 
     14 C5'       247.4310  212.4630  264.5060 C.3       1 AGS1002     0.0000 
     15 C4'       246.1030  211.8410  264.8360 C.3       1 AGS1002     0.0000 
     16 O4'       246.0220  210.5590  264.1890 O.3       1 AGS1002     0.0000 
     17 C3'       245.9390  211.5130  266.2960 C.3       1 AGS1002     0.0000 
     18 O3'       244.6090  211.2410  266.6370 O.3       1 AGS1002     0.0000 
     19 C2'       246.7850  210.2460  266.4180 C.3       1 AGS1002     0.0000 
     20 O2'       246.3630  209.4080  267.4820 O.3       1 AGS1002     0.0000 
     21 C1'       246.5530  209.5670  265.0520 C.3       1 AGS1002     0.0000 
     22 N9        247.7530  209.0150  264.4230 N.pl3     1 AGS1002     0.0000 
     23 C8        248.2650  209.3720  263.2050 C.2       1 AGS1002     0.0000 
     24 N7        249.3600  208.7380  262.8780 N.2       1 AGS1002     0.0000 
     25 C5        249.5910  207.9000  263.9580 C.ar      1 AGS1002     0.0000 
     26 C6        250.6030  206.9580  264.2220 C.ar      1 AGS1002     0.0000 
     27 N6        251.6120  206.6960  263.3780 N.pl3     1 AGS1002     0.0000 
     28 N1        250.5380  206.2860  265.3930 N.ar      1 AGS1002     0.0000 
     29 C2        249.5330  206.5410  266.2310 C.ar      1 AGS1002     0.0000 
     30 N3        248.5270  207.4040  266.0870 N.ar      1 AGS1002     0.0000 
     31 C4        248.6130  208.0590  264.9180 C.ar      1 AGS1002     0.0000 
@<TRIPOS>BOND
     1    1    2 2    
     2    1    3 1    
     3    1    4 1    
     4    1    8 1    
     5    5    6 ar   
     6    5    7 ar   
     7    5    8 1    
     8    5   12 1    
     9    9   10 ar   
    10    9   11 ar   
    11    9   12 1    
    12    9   13 1    
    13   13   14 1    
    14   14   15 1    
    15   15   16 1    
    16   15   17 1    
    17   16   21 1    
    18   17   18 1    
    19   17   19 1    
    20   19   20 1    
    21   19   21 1    
    22   21   22 1    
    23   22   23 1    
    24   22   31 1    
    25   23   24 2    
    26   24   25 1    
    27   25   26 ar   
    28   25   31 ar   
    29   26   27 1    
    30   26   28 ar   
    31   28   29 ar   
    32   29   30 ar   
    33   30   31 ar   
@<TRIPOS>SUBSTRUCTURE
     1 AGS1002     1 GROUP   
@<TRIPOS>SET

