#    Name: 6e10_6_AGS
#    Modification time : Fri May 22 19:30:16 2020

@<TRIPOS>MOLECULE
6e10_6_AGS
   31    33     1     0     0
SMALL
NO_CHARGES


@<TRIPOS>ATOM
      1 PG        277.9110  228.8200  263.2940 P.3       1 AGS1002     0.0000 
      2 S1G       276.2640  228.1390  262.5190 S.2       1 AGS1002     0.0000 
      3 O2G       277.6720  230.1750  264.0180 O.3       1 AGS1002     0.0000 
      4 O3G       278.9630  228.9700  262.1720 O.3       1 AGS1002     0.0000 
      5 PB        278.7890  228.1820  265.7660 P.3       1 AGS1002     0.0000 
      6 O1B       280.1160  228.9360  265.6550 O.co2     1 AGS1002     0.0000 
      7 O2B       277.6990  228.9570  266.4040 O.co2     1 AGS1002     0.0000 
      8 O3B       278.4510  227.7730  264.2940 O.3       1 AGS1002     0.0000 
      9 PA        280.5650  226.3680  265.9640 P.3       1 AGS1002     0.0000 
     10 O1A       280.4300  226.5390  264.4480 O.co2     1 AGS1002     0.0000 
     11 O2A       281.6110  227.2150  266.5390 O.co2     1 AGS1002     0.0000 
     12 O3A       279.1740  226.8560  266.5080 O.3       1 AGS1002     0.0000 
     13 O5'       280.8110  224.8530  266.3290 O.3       1 AGS1002     0.0000 
     14 C5'       281.7000  224.1510  265.4530 C.3       1 AGS1002     0.0000 
     15 C4'       281.5730  222.6660  265.6370 C.3       1 AGS1002     0.0000 
     16 O4'       282.4980  222.0100  264.7500 O.3       1 AGS1002     0.0000 
     17 C3'       281.9940  222.1880  267.0010 C.3       1 AGS1002     0.0000 
     18 O3'       281.5750  220.8790  267.2670 O.3       1 AGS1002     0.0000 
     19 C2'       283.5150  222.2450  266.8860 C.3       1 AGS1002     0.0000 
     20 O2'       284.1630  221.3320  267.7600 O.3       1 AGS1002     0.0000 
     21 C1'       283.7430  221.8550  265.4120 C.3       1 AGS1002     0.0000 
     22 N9        284.7370  222.6630  264.7030 N.pl3     1 AGS1002     0.0000 
     23 C8        284.5120  223.4200  263.5860 C.2       1 AGS1002     0.0000 
     24 N7        285.5690  224.0640  263.1560 N.2       1 AGS1002     0.0000 
     25 C5        286.5600  223.7060  264.0560 C.ar      1 AGS1002     0.0000 
     26 C6        287.9200  224.0550  264.1440 C.ar      1 AGS1002     0.0000 
     27 N6        288.5380  224.8740  263.2800 N.pl3     1 AGS1002     0.0000 
     28 N1        288.6350  223.5210  265.1590 N.ar      1 AGS1002     0.0000 
     29 C2        288.0270  222.7020  266.0180 C.ar      1 AGS1002     0.0000 
     30 N3        286.7530  222.3060  266.0320 N.ar      1 AGS1002     0.0000 
     31 C4        286.0660  222.8480  265.0160 C.ar      1 AGS1002     0.0000 
@<TRIPOS>BOND
     1    1    2 2    
     2    1    3 1    
     3    1    4 1    
     4    1    8 1    
     5    5    6 ar   
     6    5    7 ar   
     7    5    8 1    
     8    5   12 1    
     9    9   10 ar   
    10    9   11 ar   
    11    9   12 1    
    12    9   13 1    
    13   13   14 1    
    14   14   15 1    
    15   15   16 1    
    16   15   17 1    
    17   16   21 1    
    18   17   18 1    
    19   17   19 1    
    20   19   20 1    
    21   19   21 1    
    22   21   22 1    
    23   22   23 1    
    24   22   31 1    
    25   23   24 2    
    26   24   25 1    
    27   25   26 ar   
    28   25   31 ar   
    29   26   27 1    
    30   26   28 ar   
    31   28   29 ar   
    32   29   30 ar   
    33   30   31 ar   
@<TRIPOS>SUBSTRUCTURE
     1 AGS1002     1 GROUP   
@<TRIPOS>SET

