#    Name: 6e10_9_AGS
#    Modification time : Fri May 22 19:31:30 2020

@<TRIPOS>MOLECULE
6e10_9_AGS
   31    33     1     0     0
SMALL
NO_CHARGES


@<TRIPOS>ATOM
      1 PG        260.8180  278.5760  270.6570 P.3       1 AGS1001     0.0000 
      2 S1G       262.3160  277.5710  269.9360 S.2       1 AGS1001     0.0000 
      3 O2G       260.0940  277.7780  271.7790 O.3       1 AGS1001     0.0000 
      4 O3G       259.8470  278.9150  269.5020 O.3       1 AGS1001     0.0000 
      5 PB        261.0270  280.3420  272.6890 P.3       1 AGS1001     0.0000 
      6 O1B       259.5690  280.8070  272.6370 O.co2     1 AGS1001     0.0000 
      7 O2B       261.2860  279.2590  273.6660 O.co2     1 AGS1001     0.0000 
      8 O3B       261.3520  279.9140  271.2200 O.3       1 AGS1001     0.0000 
      9 PA        261.1750  282.8160  272.1010 P.3       1 AGS1001     0.0000 
     10 O1A       260.9350  282.1630  270.7380 O.co2     1 AGS1001     0.0000 
     11 O2A       259.9320  283.2210  272.7620 O.co2     1 AGS1001     0.0000 
     12 O3A       261.8320  281.6640  272.9450 O.3       1 AGS1001     0.0000 
     13 O5'       262.1580  284.0410  271.9630 O.3       1 AGS1001     0.0000 
     14 C5'       261.9490  284.8620  270.8090 C.3       1 AGS1001     0.0000 
     15 C4'       263.1380  285.7450  270.5540 C.3       1 AGS1001     0.0000 
     16 O4'       262.8680  286.5620  269.4000 O.3       1 AGS1001     0.0000 
     17 C3'       263.3850  286.7500  271.6470 C.3       1 AGS1001     0.0000 
     18 O3'       264.6540  287.3370  271.5610 O.3       1 AGS1001     0.0000 
     19 C2'       262.3030  287.7890  271.3560 C.3       1 AGS1001     0.0000 
     20 O2'       262.6480  289.0810  271.8250 O.3       1 AGS1001     0.0000 
     21 C1'       262.2300  287.7590  269.8150 C.3       1 AGS1001     0.0000 
     22 N9        260.8790  287.7700  269.2580 N.pl3     1 AGS1001     0.0000 
     23 C8        260.3280  286.8070  268.4570 C.2       1 AGS1001     0.0000 
     24 N7        259.0920  287.0470  268.1050 N.2       1 AGS1001     0.0000 
     25 C5        258.8040  288.2570  268.7190 C.ar      1 AGS1001     0.0000 
     26 C6        257.6470  289.0570  268.7290 C.ar      1 AGS1001     0.0000 
     27 N6        256.5180  288.7410  268.0770 N.pl3     1 AGS1001     0.0000 
     28 N1        257.6900  290.2080  269.4370 N.ar      1 AGS1001     0.0000 
     29 C2        258.8140  290.5270  270.0820 C.ar      1 AGS1001     0.0000 
     30 N3        259.9610  289.8510  270.1440 N.ar      1 AGS1001     0.0000 
     31 C4        259.8900  288.7140  269.4350 C.ar      1 AGS1001     0.0000 
@<TRIPOS>BOND
     1    1    2 2    
     2    1    3 1    
     3    1    4 1    
     4    1    8 1    
     5    5    6 ar   
     6    5    7 ar   
     7    5    8 1    
     8    5   12 1    
     9    9   10 ar   
    10    9   11 ar   
    11    9   12 1    
    12    9   13 1    
    13   13   14 1    
    14   14   15 1    
    15   15   16 1    
    16   15   17 1    
    17   16   21 1    
    18   17   18 1    
    19   17   19 1    
    20   19   20 1    
    21   19   21 1    
    22   21   22 1    
    23   22   23 1    
    24   22   31 1    
    25   23   24 2    
    26   24   25 1    
    27   25   26 ar   
    28   25   31 ar   
    29   26   27 1    
    30   26   28 ar   
    31   28   29 ar   
    32   29   30 ar   
    33   30   31 ar   
@<TRIPOS>SUBSTRUCTURE
     1 AGS1001     1 GROUP   
@<TRIPOS>SET

