#    Name: 6e10_11_AGS
#    Modification time : Fri May 22 19:32:17 2020

@<TRIPOS>MOLECULE
6e10_11_AGS
   31    33     1     0     0
SMALL
NO_CHARGES


@<TRIPOS>ATOM
      1 PG        233.3250  268.2420  281.0220 P.3       1 AGS1002     0.0000 
      2 S1G       234.9060  268.9090  280.1070 S.2       1 AGS1002     0.0000 
      3 O2G       233.6900  267.0950  282.0070 O.3       1 AGS1002     0.0000 
      4 O3G       232.3070  267.7610  279.9630 O.3       1 AGS1002     0.0000 
      5 PB        232.3630  269.2830  283.3190 P.3       1 AGS1002     0.0000 
      6 O1B       231.1160  268.3970  283.3770 O.co2     1 AGS1002     0.0000 
      7 O2B       233.5170  268.7700  284.0900 O.co2     1 AGS1002     0.0000 
      8 O3B       232.6730  269.4140  281.7890 O.3       1 AGS1002     0.0000 
      9 PA        230.4130  270.9180  283.1530 P.3       1 AGS1002     0.0000 
     10 O1A       230.5820  270.4530  281.7050 O.co2     1 AGS1002     0.0000 
     11 O2A       229.4500  270.1060  283.9010 O.co2     1 AGS1002     0.0000 
     12 O3A       231.8390  270.6930  283.7750 O.3       1 AGS1002     0.0000 
     13 O5'       230.0160  272.4430  283.2020 O.3       1 AGS1002     0.0000 
     14 C5'       229.0730  272.8570  282.2090 C.3       1 AGS1002     0.0000 
     15 C4'       229.0480  274.3540  282.0810 C.3       1 AGS1002     0.0000 
     16 O4'       228.0720  274.7180  281.0890 O.3       1 AGS1002     0.0000 
     17 C3'       228.5680  275.0570  283.3220 C.3       1 AGS1002     0.0000 
     18 O3'       228.8500  276.4290  283.3080 O.3       1 AGS1002     0.0000 
     19 C2'       227.0590  274.8280  283.2360 C.3       1 AGS1002     0.0000 
     20 O2'       226.3160  275.8310  283.9090 O.3       1 AGS1002     0.0000 
     21 C1'       226.8110  274.8810  281.7150 C.3       1 AGS1002     0.0000 
     22 N9        225.9110  273.8500  281.1980 N.pl3     1 AGS1002     0.0000 
     23 C8        226.2220  272.9040  280.2570 C.2       1 AGS1002     0.0000 
     24 N7        225.2400  272.0860  279.9780 N.2       1 AGS1002     0.0000 
     25 C5        224.2070  272.5200  280.7970 C.ar      1 AGS1002     0.0000 
     26 C6        222.8860  272.0670  280.9670 C.ar      1 AGS1002     0.0000 
     27 N6        222.3640  271.0310  280.2980 N.pl3     1 AGS1002     0.0000 
     28 N1        222.1100  272.7240  281.8590 N.ar      1 AGS1002     0.0000 
     29 C2        222.6260  273.7590  282.5240 C.ar      1 AGS1002     0.0000 
     30 N3        223.8530  274.2710  282.4420 N.ar      1 AGS1002     0.0000 
     31 C4        224.6030  273.6020  281.5510 C.ar      1 AGS1002     0.0000 
@<TRIPOS>BOND
     1    1    2 2    
     2    1    3 1    
     3    1    4 1    
     4    1    8 1    
     5    5    6 ar   
     6    5    7 ar   
     7    5    8 1    
     8    5   12 1    
     9    9   10 ar   
    10    9   11 ar   
    11    9   12 1    
    12    9   13 1    
    13   13   14 1    
    14   14   15 1    
    15   15   16 1    
    16   15   17 1    
    17   16   21 1    
    18   17   18 1    
    19   17   19 1    
    20   19   20 1    
    21   19   21 1    
    22   21   22 1    
    23   22   23 1    
    24   22   31 1    
    25   23   24 2    
    26   24   25 1    
    27   25   26 ar   
    28   25   31 ar   
    29   26   27 1    
    30   26   28 ar   
    31   28   29 ar   
    32   29   30 ar   
    33   30   31 ar   
@<TRIPOS>SUBSTRUCTURE
     1 AGS1002     1 GROUP   
@<TRIPOS>SET

