#    Name: 6e10_3_AGS
#    Modification time : Fri May 22 19:28:59 2020

@<TRIPOS>MOLECULE
6e10_3_AGS
   31    33     1     0     0
SMALL
NO_CHARGES


@<TRIPOS>ATOM
      1 PG        278.2130  231.9670  302.7650 P.3       1 AGS1001     0.0000 
      2 S1G       278.2350  234.0400  302.6920 S.2       1 AGS1001     0.0000 
      3 O2G       278.8330  231.3750  301.4020 O.3       1 AGS1001     0.0000 
      4 O3G       276.8200  231.4920  302.9190 O.3       1 AGS1001     0.0000 
      5 PB        278.9370  229.9660  304.5800 P.3       1 AGS1001     0.0000 
      6 O1B       277.5400  229.8120  305.1310 O.co2     1 AGS1001     0.0000 
      7 O2B       280.1300  229.6640  305.4550 O.co2     1 AGS1001     0.0000 
      8 O3B       279.0930  231.4670  304.0170 O.3       1 AGS1001     0.0000 
      9 PA        280.4960  228.6650  302.6590 P.3       1 AGS1001     0.0000 
     10 O1A       280.3870  228.5740  301.1550 O.co2     1 AGS1001     0.0000 
     11 O2A       281.5330  229.5650  303.2870 O.co2     1 AGS1001     0.0000 
     12 O3A       279.0530  229.0760  303.2430 O.3       1 AGS1001     0.0000 
     13 O5'       280.7010  227.1780  303.2400 O.3       1 AGS1001     0.0000 
     14 C5'       280.6930  226.0520  302.3660 C.3       1 AGS1001     0.0000 
     15 C4'       280.7390  224.7700  303.1890 C.3       1 AGS1001     0.0000 
     16 O4'       281.4220  223.7510  302.4550 O.3       1 AGS1001     0.0000 
     17 C3'       281.4820  224.9820  304.4990 C.3       1 AGS1001     0.0000 
     18 O3'       280.5930  224.7640  305.6030 O.3       1 AGS1001     0.0000 
     19 C2'       282.6540  224.0100  304.4830 C.3       1 AGS1001     0.0000 
     20 O2'       282.5880  223.0440  305.5410 O.3       1 AGS1001     0.0000 
     21 C1'       282.5950  223.3010  303.1390 C.3       1 AGS1001     0.0000 
     22 N9        283.7990  223.6440  302.3410 N.pl3     1 AGS1001     0.0000 
     23 C8        283.8090  224.3620  301.2020 C.2       1 AGS1001     0.0000 
     24 N7        285.0700  224.4990  300.7190 N.2       1 AGS1001     0.0000 
     25 C5        285.8970  223.8540  301.5630 C.ar      1 AGS1001     0.0000 
     26 C6        287.3560  223.6060  301.6470 C.ar      1 AGS1001     0.0000 
     27 N6        288.2040  224.0870  300.7060 N.pl3     1 AGS1001     0.0000 
     28 N1        287.8110  222.8830  302.6940 N.ar      1 AGS1001     0.0000 
     29 C2        286.9790  222.4000  303.6360 C.ar      1 AGS1001     0.0000 
     30 N3        285.6470  222.5860  303.6220 N.ar      1 AGS1001     0.0000 
     31 C4        285.0540  223.2930  302.6300 C.ar      1 AGS1001     0.0000 
@<TRIPOS>BOND
     1    1    2 2    
     2    1    3 1    
     3    1    4 1    
     4    1    8 1    
     5    5    6 ar   
     6    5    7 ar   
     7    5    8 1    
     8    5   12 1    
     9    9   10 ar   
    10    9   11 ar   
    11    9   12 1    
    12    9   13 1    
    13   13   14 1    
    14   14   15 1    
    15   15   16 1    
    16   15   17 1    
    17   16   21 1    
    18   17   18 1    
    19   17   19 1    
    20   19   20 1    
    21   19   21 1    
    22   21   22 1    
    23   22   23 1    
    24   22   31 1    
    25   23   24 2    
    26   24   25 1    
    27   25   26 ar   
    28   25   31 ar   
    29   26   27 1    
    30   26   28 ar   
    31   28   29 ar   
    32   29   30 ar   
    33   30   31 ar   
@<TRIPOS>SUBSTRUCTURE
     1 AGS1001     1 GROUP   
@<TRIPOS>SET

