#    Name: 6e10_5_AGS
#    Modification time : Fri May 22 19:29:51 2020

@<TRIPOS>MOLECULE
6e10_5_AGS
   31    33     1     0     0
SMALL
NO_CHARGES


@<TRIPOS>ATOM
      1 PG        286.6360  260.1190  304.3630 P.3       1 AGS1001     0.0000 
      2 S1G       284.9380  260.9960  304.7190 S.2       1 AGS1001     0.0000 
      3 O2G       287.1830  260.5270  302.9670 O.3       1 AGS1001     0.0000 
      4 O3G       286.4740  258.5590  304.4110 O.3       1 AGS1001     0.0000 
      5 PB        288.8690  259.4130  305.5480 P.3       1 AGS1001     0.0000 
      6 O1B       288.3020  258.1530  306.0570 O.co2     1 AGS1001     0.0000 
      7 O2B       289.9940  260.0310  306.3820 O.co2     1 AGS1001     0.0000 
      8 O3B       287.7340  260.5190  305.3840 O.3       1 AGS1001     0.0000 
      9 PA        290.4410  260.2730  303.6010 P.3       1 AGS1001     0.0000 
     10 O1A       290.0650  260.4250  302.1270 O.co2     1 AGS1001     0.0000 
     11 O2A       290.3020  261.5020  304.3990 O.co2     1 AGS1001     0.0000 
     12 O3A       289.5050  259.1270  304.1540 O.3       1 AGS1001     0.0000 
     13 O5'       291.8910  259.7110  303.8600 O.3       1 AGS1001     0.0000 
     14 C5'       292.7760  259.5280  302.7560 C.3       1 AGS1001     0.0000 
     15 C4'       293.7020  258.3700  303.0130 C.3       1 AGS1001     0.0000 
     16 O4'       294.7470  258.3900  302.0270 O.3       1 AGS1001     0.0000 
     17 C3'       294.4220  258.3500  304.3550 C.3       1 AGS1001     0.0000 
     18 O3'       294.7220  257.0180  304.7560 O.3       1 AGS1001     0.0000 
     19 C2'       295.6990  259.1490  304.0760 C.3       1 AGS1001     0.0000 
     20 O2'       296.8160  258.6210  304.7850 O.3       1 AGS1001     0.0000 
     21 C1'       295.9150  258.9710  302.5690 C.3       1 AGS1001     0.0000 
     22 N9        296.1810  260.2100  301.8500 N.pl3     1 AGS1001     0.0000 
     23 C8        295.3910  260.8000  300.9010 C.2       1 AGS1001     0.0000 
     24 N7        295.8810  261.9170  300.4180 N.2       1 AGS1001     0.0000 
     25 C5        297.0830  262.0630  301.0930 C.ar      1 AGS1001     0.0000 
     26 C6        298.0880  263.0470  301.0360 C.ar      1 AGS1001     0.0000 
     27 N6        298.0390  264.1070  300.2340 N.pl3     1 AGS1001     0.0000 
     28 N1        299.1590  262.8970  301.8450 N.ar      1 AGS1001     0.0000 
     29 C2        299.2170  261.8300  302.6470 C.ar      1 AGS1001     0.0000 
     30 N3        298.3330  260.8390  302.7900 N.ar      1 AGS1001     0.0000 
     31 C4        297.2830  261.0180  301.9780 C.ar      1 AGS1001     0.0000 
@<TRIPOS>BOND
     1    1    2 2    
     2    1    3 1    
     3    1    4 1    
     4    1    8 1    
     5    5    6 ar   
     6    5    7 ar   
     7    5    8 1    
     8    5   12 1    
     9    9   10 ar   
    10    9   11 ar   
    11    9   12 1    
    12    9   13 1    
    13   13   14 1    
    14   14   15 1    
    15   15   16 1    
    16   15   17 1    
    17   16   21 1    
    18   17   18 1    
    19   17   19 1    
    20   19   20 1    
    21   19   21 1    
    22   21   22 1    
    23   22   23 1    
    24   22   31 1    
    25   23   24 2    
    26   24   25 1    
    27   25   26 ar   
    28   25   31 ar   
    29   26   27 1    
    30   26   28 ar   
    31   28   29 ar   
    32   29   30 ar   
    33   30   31 ar   
@<TRIPOS>SUBSTRUCTURE
     1 AGS1001     1 GROUP   
@<TRIPOS>SET

