#    Name: 6e10_8_AGS
#    Modification time : Fri May 22 19:31:05 2020

@<TRIPOS>MOLECULE
6e10_8_AGS
   31    33     1     0     0
SMALL
NO_CHARGES


@<TRIPOS>ATOM
      1 PG        282.6320  258.8750  264.7300 P.3       1 AGS1002     0.0000 
      2 S1G       282.3310  257.0370  264.1720 S.2       1 AGS1002     0.0000 
      3 O2G       281.4910  259.3730  265.6630 O.3       1 AGS1002     0.0000 
      4 O3G       282.7460  259.7630  263.4680 O.3       1 AGS1002     0.0000 
      5 PB        284.0810  259.5730  266.8990 P.3       1 AGS1002     0.0000 
      6 O1B       283.9940  261.0830  266.6580 O.co2     1 AGS1002     0.0000 
      7 O2B       283.0480  259.0440  267.8180 O.co2     1 AGS1002     0.0000 
      8 O3B       283.9890  258.9470  265.4670 O.3       1 AGS1002     0.0000 
      9 PA        286.4970  260.2920  266.5300 P.3       1 AGS1002     0.0000 
     10 O1A       285.9800  260.1140  265.1010 O.co2     1 AGS1002     0.0000 
     11 O2A       286.3410  261.6630  267.0220 O.co2     1 AGS1002     0.0000 
     12 O3A       285.5600  259.3540  267.3740 O.3       1 AGS1002     0.0000 
     13 O5'       287.9990  259.8270  266.6370 O.3       1 AGS1002     0.0000 
     14 C5'       288.8300  260.1950  265.5330 C.3       1 AGS1002     0.0000 
     15 C4'       290.1060  259.3990  265.5300 C.3       1 AGS1002     0.0000 
     16 O4'       290.9110  259.8170  264.4150 O.3       1 AGS1002     0.0000 
     17 C3'       290.9840  259.6680  266.7220 C.3       1 AGS1002     0.0000 
     18 O3'       291.9930  258.7090  266.8760 O.3       1 AGS1002     0.0000 
     19 C2'       291.5940  261.0190  266.3490 C.3       1 AGS1002     0.0000 
     20 O2'       292.8540  261.2370  266.9630 O.3       1 AGS1002     0.0000 
     21 C1'       291.7370  260.8980  264.8190 C.3       1 AGS1002     0.0000 
     22 N9        291.3330  262.0830  264.0620 N.pl3     1 AGS1002     0.0000 
     23 C8        290.3480  262.1410  263.1150 C.2       1 AGS1002     0.0000 
     24 N7        290.1720  263.3290  262.5960 N.2       1 AGS1002     0.0000 
     25 C5        291.1090  264.1130  263.2490 C.ar      1 AGS1002     0.0000 
     26 C6        291.4340  265.4790  263.1440 C.ar      1 AGS1002     0.0000 
     27 N6        290.8210  266.3260  262.3030 N.pl3     1 AGS1002     0.0000 
     28 N1        292.4230  265.9490  263.9350 N.ar      1 AGS1002     0.0000 
     29 C2        293.0380  265.1090  264.7670 C.ar      1 AGS1002     0.0000 
     30 N3        292.8160  263.8070  264.9530 N.ar      1 AGS1002     0.0000 
     31 C4        291.8300  263.3650  264.1550 C.ar      1 AGS1002     0.0000 
@<TRIPOS>BOND
     1    1    2 2    
     2    1    3 1    
     3    1    4 1    
     4    1    8 1    
     5    5    6 ar   
     6    5    7 ar   
     7    5    8 1    
     8    5   12 1    
     9    9   10 ar   
    10    9   11 ar   
    11    9   12 1    
    12    9   13 1    
    13   13   14 1    
    14   14   15 1    
    15   15   16 1    
    16   15   17 1    
    17   16   21 1    
    18   17   18 1    
    19   17   19 1    
    20   19   20 1    
    21   19   21 1    
    22   21   22 1    
    23   22   23 1    
    24   22   31 1    
    25   23   24 2    
    26   24   25 1    
    27   25   26 ar   
    28   25   31 ar   
    29   26   27 1    
    30   26   28 ar   
    31   28   29 ar   
    32   29   30 ar   
    33   30   31 ar   
@<TRIPOS>SUBSTRUCTURE
     1 AGS1002     1 GROUP   
@<TRIPOS>SET

