#    Name: 6e10_7_AGS
#    Modification time : Fri May 22 19:30:39 2020

@<TRIPOS>MOLECULE
6e10_7_AGS
   31    33     1     0     0
SMALL
NO_CHARGES


@<TRIPOS>ATOM
      1 PG        267.7060  282.0740  309.1580 P.3       1 AGS1001     0.0000 
      2 S1G       266.2750  280.9250  309.7990 S.2       1 AGS1001     0.0000 
      3 O2G       267.3170  282.7260  307.8000 O.3       1 AGS1001     0.0000 
      4 O3G       269.0330  281.2580  308.9700 O.3       1 AGS1001     0.0000 
      5 PB        269.4910  283.8010  310.0090 P.3       1 AGS1001     0.0000 
      6 O1B       270.4640  282.7520  310.3590 O.co2     1 AGS1001     0.0000 
      7 O2B       269.5670  285.0930  310.8270 O.co2     1 AGS1001     0.0000 
      8 O3B       268.0010  283.2490  310.1270 O.3       1 AGS1001     0.0000 
      9 PA        269.0330  285.5640  308.0940 P.3       1 AGS1001     0.0000 
     10 O1A       268.4710  285.2740  306.7010 O.co2     1 AGS1001     0.0000 
     11 O2A       268.0290  285.9800  309.0860 O.co2     1 AGS1001     0.0000 
     12 O3A       269.7580  284.2340  308.5370 O.3       1 AGS1001     0.0000 
     13 O5'       270.1910  286.6360  308.1270 O.3       1 AGS1001     0.0000 
     14 C5'       270.5240  287.3420  306.9320 C.3       1 AGS1001     0.0000 
     15 C4'       271.9900  287.6820  306.9180 C.3       1 AGS1001     0.0000 
     16 O4'       272.2330  288.6210  305.8560 O.3       1 AGS1001     0.0000 
     17 C3'       272.5570  288.3390  308.1690 C.3       1 AGS1001     0.0000 
     18 O3'       273.9400  288.0400  308.3220 O.3       1 AGS1001     0.0000 
     19 C2'       272.3360  289.8340  307.9060 C.3       1 AGS1001     0.0000 
     20 O2'       273.4010  290.6210  308.4190 O.3       1 AGS1001     0.0000 
     21 C1'       272.3080  289.9310  306.3770 C.3       1 AGS1001     0.0000 
     22 N9        271.1890  290.6970  305.8460 N.pl3     1 AGS1001     0.0000 
     23 C8        270.1590  290.2270  305.0780 C.2       1 AGS1001     0.0000 
     24 N7        269.2830  291.1430  304.7370 N.2       1 AGS1001     0.0000 
     25 C5        269.7840  292.2990  305.3180 C.ar      1 AGS1001     0.0000 
     26 C6        269.3210  293.6290  305.3290 C.ar      1 AGS1001     0.0000 
     27 N6        268.2130  294.0310  304.7120 N.pl3     1 AGS1001     0.0000 
     28 N1        270.0550  294.5410  306.0020 N.ar      1 AGS1001     0.0000 
     29 C2        271.1750  294.1440  306.6160 C.ar      1 AGS1001     0.0000 
     30 N3        271.7100  292.9210  306.6760 N.ar      1 AGS1001     0.0000 
     31 C4        270.9590  292.0410  306.0020 C.ar      1 AGS1001     0.0000 
@<TRIPOS>BOND
     1    1    2 2    
     2    1    3 1    
     3    1    4 1    
     4    1    8 1    
     5    5    6 ar   
     6    5    7 ar   
     7    5    8 1    
     8    5   12 1    
     9    9   10 ar   
    10    9   11 ar   
    11    9   12 1    
    12    9   13 1    
    13   13   14 1    
    14   14   15 1    
    15   15   16 1    
    16   15   17 1    
    17   16   21 1    
    18   17   18 1    
    19   17   19 1    
    20   19   20 1    
    21   19   21 1    
    22   21   22 1    
    23   22   23 1    
    24   22   31 1    
    25   23   24 2    
    26   24   25 1    
    27   25   26 ar   
    28   25   31 ar   
    29   26   27 1    
    30   26   28 ar   
    31   28   29 ar   
    32   29   30 ar   
    33   30   31 ar   
@<TRIPOS>SUBSTRUCTURE
     1 AGS1001     1 GROUP   
@<TRIPOS>SET

