#    Name: 6e10_2_AGS
#    Modification time : Fri May 22 19:28:30 2020

@<TRIPOS>MOLECULE
6e10_2_AGS
   31    33     1     0     0
SMALL
NO_CHARGES


@<TRIPOS>ATOM
      1 PG        224.1010  235.2140  256.1820 P.3       1 AGS1002     0.0000 
      2 S1G       224.0740  236.7830  255.0350 S.2       1 AGS1002     0.0000 
      3 O2G       225.5070  235.0040  256.8130 O.3       1 AGS1002     0.0000 
      4 O3G       223.6760  233.9830  255.3470 O.3       1 AGS1002     0.0000 
      5 PB        223.4420  235.2500  258.8010 P.3       1 AGS1002     0.0000 
      6 O1B       223.5660  233.7380  259.0090 O.co2     1 AGS1002     0.0000 
      7 O2B       224.6610  236.0150  259.1440 O.co2     1 AGS1002     0.0000 
      8 O3B       223.0440  235.4030  257.2950 O.3       1 AGS1002     0.0000 
      9 PA        221.0920  234.5060  259.4430 P.3       1 AGS1002     0.0000 
     10 O1A       221.1320  234.2230  257.9390 O.co2     1 AGS1002     0.0000 
     11 O2A       221.4960  233.3500  260.2480 O.co2     1 AGS1002     0.0000 
     12 O3A       222.1660  235.6380  259.6280 O.3       1 AGS1002     0.0000 
     13 O5'       219.6630  235.0140  259.8720 O.3       1 AGS1002     0.0000 
     14 C5'       218.5650  234.3430  259.2480 C.3       1 AGS1002     0.0000 
     15 C4'       217.2930  235.1270  259.4090 C.3       1 AGS1002     0.0000 
     16 O4'       216.2190  234.4000  258.7830 O.3       1 AGS1002     0.0000 
     17 C3'       216.8430  235.2570  260.8390 C.3       1 AGS1002     0.0000 
     18 O3'       215.8590  236.2400  261.0080 O.3       1 AGS1002     0.0000 
     19 C2'       216.2550  233.8700  261.0990 C.3       1 AGS1002     0.0000 
     20 O2'       215.2640  233.8790  262.1140 O.3       1 AGS1002     0.0000 
     21 C1'       215.6420  233.5150  259.7300 C.3       1 AGS1002     0.0000 
     22 N9        215.8870  232.1460  259.2770 N.pl3     1 AGS1002     0.0000 
     23 C8        216.5360  231.7790  258.1310 C.2       1 AGS1002     0.0000 
     24 N7        216.6360  230.4860  257.9640 N.2       1 AGS1002     0.0000 
     25 C5        216.0080  229.9590  259.0810 C.ar      1 AGS1002     0.0000 
     26 C6        215.7720  228.6360  259.4970 C.ar      1 AGS1002     0.0000 
     27 N6        216.1630  227.5580  258.8020 N.pl3     1 AGS1002     0.0000 
     28 N1        215.1120  228.4550  260.6620 N.ar      1 AGS1002     0.0000 
     29 C2        214.7160  229.5250  261.3530 C.ar      1 AGS1002     0.0000 
     30 N3        214.8830  230.8140  261.0600 N.ar      1 AGS1002     0.0000 
     31 C4        215.5410  230.9680  259.9000 C.ar      1 AGS1002     0.0000 
@<TRIPOS>BOND
     1    1    2 2    
     2    1    3 1    
     3    1    4 1    
     4    1    8 1    
     5    5    6 ar   
     6    5    7 ar   
     7    5    8 1    
     8    5   12 1    
     9    9   10 ar   
    10    9   11 ar   
    11    9   12 1    
    12    9   13 1    
    13   13   14 1    
    14   14   15 1    
    15   15   16 1    
    16   15   17 1    
    17   16   21 1    
    18   17   18 1    
    19   17   19 1    
    20   19   20 1    
    21   19   21 1    
    22   21   22 1    
    23   22   23 1    
    24   22   31 1    
    25   23   24 2    
    26   24   25 1    
    27   25   26 ar   
    28   25   31 ar   
    29   26   27 1    
    30   26   28 ar   
    31   28   29 ar   
    32   29   30 ar   
    33   30   31 ar   
@<TRIPOS>SUBSTRUCTURE
     1 AGS1002     1 GROUP   
@<TRIPOS>SET

