#    Name: 6e10_10_AGS
#    Modification time : Fri May 22 19:31:54 2020

@<TRIPOS>MOLECULE
6e10_10_AGS
   31    33     1     0     0
SMALL
NO_CHARGES


@<TRIPOS>ATOM
      1 PG        230.0370  247.2170  328.7920 P.3       1 AGS1001     0.0000 
      2 S1G       231.8670  246.6690  329.1610 S.2       1 AGS1001     0.0000 
      3 O2G       229.4630  246.4280  327.5790 O.3       1 AGS1001     0.0000 
      4 O3G       229.9710  248.7530  328.4770 O.3       1 AGS1001     0.0000 
      5 PB        227.8100  247.8880  330.0060 P.3       1 AGS1001     0.0000 
      6 O1B       228.2190  249.2950  330.1640 O.co2     1 AGS1001     0.0000 
      7 O2B       226.8460  247.3430  331.0640 O.co2     1 AGS1001     0.0000 
      8 O3B       229.0810  246.9290  329.9800 O.3       1 AGS1001     0.0000 
      9 PA        226.2540  246.4070  328.4640 P.3       1 AGS1001     0.0000 
     10 O1A       226.5460  245.9650  327.0320 O.co2     1 AGS1001     0.0000 
     11 O2A       226.6230  245.4250  329.4980 O.co2     1 AGS1001     0.0000 
     12 O3A       227.0460  247.7600  328.6550 O.3       1 AGS1001     0.0000 
     13 O5'       224.7560  246.8240  328.7350 O.3       1 AGS1001     0.0000 
     14 C5'       223.7800  246.6310  327.7110 C.3       1 AGS1001     0.0000 
     15 C4'       222.7150  247.6920  327.7950 C.3       1 AGS1001     0.0000 
     16 O4'       221.6190  247.3100  326.9460 O.3       1 AGS1001     0.0000 
     17 C3'       222.0920  247.9310  329.1650 C.3       1 AGS1001     0.0000 
     18 O3'       221.6290  249.2710  329.2890 O.3       1 AGS1001     0.0000 
     19 C2'       220.9290  246.9330  329.1970 C.3       1 AGS1001     0.0000 
     20 O2'       219.8000  247.4650  329.8810 O.3       1 AGS1001     0.0000 
     21 C1'       220.5880  246.7280  327.7180 C.3       1 AGS1001     0.0000 
     22 N9        220.4590  245.3320  327.3210 N.pl3     1 AGS1001     0.0000 
     23 C8        221.2590  244.6420  326.4520 C.2       1 AGS1001     0.0000 
     24 N7        220.9080  243.3910  326.2790 N.2       1 AGS1001     0.0000 
     25 C5        219.7910  243.2540  327.0850 C.ar      1 AGS1001     0.0000 
     26 C6        218.9390  242.1630  327.3480 C.ar      1 AGS1001     0.0000 
     27 N6        219.0890  240.9600  326.7980 N.pl3     1 AGS1001     0.0000 
     28 N1        217.9140  242.3610  328.2040 N.ar      1 AGS1001     0.0000 
     29 C2        217.7560  243.5690  328.7540 C.ar      1 AGS1001     0.0000 
     30 N3        218.4910  244.6710  328.5840 N.ar      1 AGS1001     0.0000 
     31 C4        219.4990  244.4420  327.7330 C.ar      1 AGS1001     0.0000 
@<TRIPOS>BOND
     1    1    2 2    
     2    1    3 1    
     3    1    4 1    
     4    1    8 1    
     5    5    6 ar   
     6    5    7 ar   
     7    5    8 1    
     8    5   12 1    
     9    9   10 ar   
    10    9   11 ar   
    11    9   12 1    
    12    9   13 1    
    13   13   14 1    
    14   14   15 1    
    15   15   16 1    
    16   15   17 1    
    17   16   21 1    
    18   17   18 1    
    19   17   19 1    
    20   19   20 1    
    21   19   21 1    
    22   21   22 1    
    23   22   23 1    
    24   22   31 1    
    25   23   24 2    
    26   24   25 1    
    27   25   26 ar   
    28   25   31 ar   
    29   26   27 1    
    30   26   28 ar   
    31   28   29 ar   
    32   29   30 ar   
    33   30   31 ar   
@<TRIPOS>SUBSTRUCTURE
     1 AGS1001     1 GROUP   
@<TRIPOS>SET

