#    Name: 6edz_2_ACO
#    Modification time : Fri May 22 19:30:20 2020

@<TRIPOS>MOLECULE
6edz_2_ACO
   51    53     1     0     1
SMALL
NO_CHARGES


@<TRIPOS>ATOM
      1 N1A        46.9250  113.2130  139.1320 N.ar      1 ACO801      0.0000 
      2 C2A        46.8360  112.2800  140.1000 C.ar      1 ACO801      0.0000 
      3 N3A        45.9880  111.2400  140.0230 N.ar      1 ACO801      0.0000 
      4 C4A        45.1750  111.0810  138.9440 C.ar      1 ACO801      0.0000 
      5 C5A        45.2120  112.0550  137.8460 C.ar      1 ACO801      0.0000 
      6 C6A        46.1680  113.1730  138.0080 C.ar      1 ACO801      0.0000 
      7 N6A        46.2840  114.1220  137.0510 N.pl3     1 ACO801      0.0000 
      8 N7A        44.3120  111.6540  136.9220 N.2       1 ACO801      0.0000 
      9 C8A        43.7450  110.5130  137.3920 C.2       1 ACO801      0.0000 
     10 N9A        44.2690  110.1790  138.5920 N.pl3     1 ACO801      0.0000 
     11 C1B        43.9170  109.0320  139.4580 C.3       1 ACO801      0.0000 
     12 C2B        42.5030  109.2320  139.9750 C.3       1 ACO801      0.0000 
     13 O2B        42.4660  110.0690  141.1310 O.3       1 ACO801      0.0000 
     14 C3B        42.0290  107.8120  140.2140 C.3       1 ACO801      0.0000 
     15 O3B        42.4040  107.3030  141.4890 O.3       1 ACO801      0.0000 
     16 P3B        41.7830  107.7710  142.8930 P.3       1 ACO801      0.0000 
     17 O7A        40.3090  107.9550  142.6130 O.co2     1 ACO801      0.0000 
     18 O8A        42.1100  106.6000  143.7890 O.co2     1 ACO801      0.0000 
     19 O9A        42.5470  109.0300  143.2350 O.co2     1 ACO801      0.0000 
     20 C4B        42.7700  107.0100  139.1510 C.3       1 ACO801      0.0000 
     21 O4B        43.9240  107.7780  138.7790 O.3       1 ACO801      0.0000 
     22 C5B        41.8800  106.7430  137.9420 C.3       1 ACO801      0.0000 
     23 O5B        41.5190  107.9910  137.3520 O.3       1 ACO801      0.0000 
     24 P1A        40.1200  108.2220  136.6040 P.3       1 ACO801      0.0000 
     25 O1A        39.2410  109.1190  137.4350 O.co2     1 ACO801      0.0000 
     26 O2A        39.6480  106.8570  136.1740 O.co2     1 ACO801      0.0000 
     27 O3A        40.6180  109.0550  135.3340 O.3       1 ACO801      0.0000 
     28 P2A        39.9110  110.3730  134.7450 P.3       1 ACO801      0.0000 
     29 O4A        38.4230  110.1480  134.5930 O.co2     1 ACO801      0.0000 
     30 O5A        40.4510  111.5890  135.4560 O.co2     1 ACO801      0.0000 
     31 O6A        40.5730  110.3670  133.2870 O.3       1 ACO801      0.0000 
     32 CBP        42.5280  110.7760  131.9750 C.3       1 ACO801      0.0000 
     33 CCP        41.9440  109.9880  133.1280 C.3       1 ACO801      0.0000 
     34 CDP        41.8310  110.3410  130.6920 C.3       1 ACO801      0.0000 
     35 CEP        44.0150  110.4690  131.8660 C.3       1 ACO801      0.0000 
     36 CAP        42.2730  112.2580  132.2950 C.3       1 ACO801      0.0000 
     37 OAP        43.1660  112.6460  133.3490 O.3       1 ACO801      0.0000 
     38 C9P        42.4050  113.1590  131.0940 C.2       1 ACO801      0.0000 
     39 O9P        41.4380  113.3430  130.3720 O.2       1 ACO801      0.0000 
     40 N8P        43.5770  113.7400  130.8620 N.am      1 ACO801      0.0000 
     41 C7P        43.7590  114.6220  129.7240 C.3       1 ACO801      0.0000 
     42 C6P        43.9370  113.8450  128.4250 C.3       1 ACO801      0.0000 
     43 C5P        45.1710  112.9710  128.4990 C.2       1 ACO801      0.0000 
     44 O5P        46.1850  113.3790  129.0450 O.2       1 ACO801      0.0000 
     45 N4P        45.1010  111.7640  127.9470 N.am      1 ACO801      0.0000 
     46 C3P        46.2490  110.8810  127.9700 C.3       1 ACO801      0.0000 
     47 C2P        46.0360  109.5340  127.2850 C.3       1 ACO801      0.0000 
     48 S1P        47.3650  109.1750  126.1710 S.3       1 ACO801      0.0000 
     49 C          47.2490  107.5230  125.9110 C.2       1 ACO801      0.0000 
     50 O          48.2020  106.9250  125.4350 O.2       1 ACO801      0.0000 
     51 CH3        45.9990  106.7720  126.2480 C.3       1 ACO801      0.0000 
@<TRIPOS>BOND
     1    1    2 ar   
     2    1    6 ar   
     3    2    3 ar   
     4    3    4 ar   
     5    4    5 ar   
     6    4   10 1    
     7    5    6 ar   
     8    5    8 1    
     9    6    7 1    
    10    8    9 2    
    11    9   10 1    
    12   10   11 1    
    13   11   12 1    
    14   11   21 1    
    15   12   13 1    
    16   12   14 1    
    17   14   15 1    
    18   14   20 1    
    19   15   16 1    
    20   16   17 ar   
    21   16   18 ar   
    22   16   19 ar   
    23   20   21 1    
    24   20   22 1    
    25   22   23 1    
    26   23   24 1    
    27   24   25 ar   
    28   24   26 ar   
    29   24   27 1    
    30   27   28 1    
    31   28   29 ar   
    32   28   30 ar   
    33   28   31 1    
    34   31   33 1    
    35   32   33 1    
    36   32   34 1    
    37   32   35 1    
    38   32   36 1    
    39   36   37 1    
    40   36   38 1    
    41   38   39 2    
    42   38   40 am   
    43   40   41 1    
    44   41   42 1    
    45   42   43 1    
    46   43   44 2    
    47   43   45 am   
    48   45   46 1    
    49   46   47 1    
    50   47   48 1    
    51   48   49 1    
    52   49   50 2    
    53   49   51 1    
@<TRIPOS>SUBSTRUCTURE
     1 ACO801      1 GROUP   
@<TRIPOS>SET
ATOM$ORANGE STATIC     ATOMS   COLORGROUP SYSTEM 
46 2 2 4 4 5 5 6 6 9 9 11 11 12 12 14 14 20 \
20 22 22 32 32 33 33 34 34 35 35 36 36 38 38 41 41 42 \
42 43 43 46 46 47 47 49 49 51 51 

