#    Name: 6edz_4_ACO
#    Modification time : Fri May 22 19:30:41 2020

@<TRIPOS>MOLECULE
6edz_4_ACO
   51    53     1     0     1
SMALL
NO_CHARGES


@<TRIPOS>ATOM
      1 N1A        70.7470   83.1300  118.3000 N.ar      1 ACO801      0.0000 
      2 C2A        71.6800   84.1090  118.2840 C.ar      1 ACO801      0.0000 
      3 N3A        71.6060   85.1580  117.4450 N.ar      1 ACO801      0.0000 
      4 C4A        70.5720   85.2770  116.5660 C.ar      1 ACO801      0.0000 
      5 C5A        69.5200   84.2510  116.5300 C.ar      1 ACO801      0.0000 
      6 C6A        69.6680   83.1300  117.4720 C.ar      1 ACO801      0.0000 
      7 N6A        68.7320   82.1530  117.4910 N.pl3     1 ACO801      0.0000 
      8 N7A        68.6350   84.6040  115.5880 N.2       1 ACO801      0.0000 
      9 C8A        69.0790   85.7680  115.0520 C.2       1 ACO801      0.0000 
     10 N9A        70.2300   86.1670  115.6390 N.pl3     1 ACO801      0.0000 
     11 C1B        71.0420   87.3740  115.3290 C.3       1 ACO801      0.0000 
     12 C2B        71.6560   87.2690  113.9400 C.3       1 ACO801      0.0000 
     13 O2B        72.8280   86.4550  113.9110 O.3       1 ACO801      0.0000 
     14 C3B        71.9210   88.7190  113.6140 C.3       1 ACO801      0.0000 
     15 O3B        73.0780   89.2070  114.2860 O.3       1 ACO801      0.0000 
     16 P3B        74.5970   89.1500  113.7620 P.3       1 ACO801      0.0000 
     17 O7A        74.5070   89.2980  112.2580 O.co2     1 ACO801      0.0000 
     18 O8A        75.2470   90.2890  114.5100 O.co2     1 ACO801      0.0000 
     19 O9A        75.0950   87.7990  114.2170 O.co2     1 ACO801      0.0000 
     20 C4B        70.7210   89.4210  114.2300 C.3       1 ACO801      0.0000 
     21 O4B        70.2910   88.5920  115.3190 O.3       1 ACO801      0.0000 
     22 C5B        69.5860   89.6310  113.2330 C.3       1 ACO801      0.0000 
     23 O5B        68.8960   88.4050  112.9800 O.3       1 ACO801      0.0000 
     24 P1A        68.3330   88.0780  111.5120 P.3       1 ACO801      0.0000 
     25 O1A        69.3480   87.2310  110.7720 O.co2     1 ACO801      0.0000 
     26 O2A        67.8690   89.4190  110.9830 O.co2     1 ACO801      0.0000 
     27 O3A        67.0250   87.1770  111.7810 O.3       1 ACO801      0.0000 
     28 P2A        66.7590   85.7290  111.1260 P.3       1 ACO801      0.0000 
     29 O4A        66.7290   85.8270  109.6220 O.co2     1 ACO801      0.0000 
     30 O5A        67.6350   84.7330  111.8450 O.co2     1 ACO801      0.0000 
     31 O6A        65.2510   85.4480  111.5980 O.3       1 ACO801      0.0000 
     32 CBP        63.6450   84.9460  113.3450 C.3       1 ACO801      0.0000 
     33 CCP        64.8110   85.8230  112.9100 C.3       1 ACO801      0.0000 
     34 CDP        62.4490   85.2360  112.4520 C.3       1 ACO801      0.0000 
     35 CEP        63.2720   85.2770  114.7830 C.3       1 ACO801      0.0000 
     36 CAP        64.1150   83.4910  113.2190 C.3       1 ACO801      0.0000 
     37 OAP        65.0300   83.2320  114.2930 O.3       1 ACO801      0.0000 
     38 C9P        62.9890   82.4920  113.2220 C.2       1 ACO801      0.0000 
     39 O9P        62.4150   82.2280  112.1740 O.2       1 ACO801      0.0000 
     40 N8P        62.6850   81.9270  114.3900 N.am      1 ACO801      0.0000 
     41 C7P        61.6290   80.9400  114.5180 C.3       1 ACO801      0.0000 
     42 C6P        60.2560   81.6010  114.6110 C.3       1 ACO801      0.0000 
     43 C5P        60.1730   82.5160  115.8160 C.2       1 ACO801      0.0000 
     44 O5P        60.6580   82.1890  116.8860 O.2       1 ACO801      0.0000 
     45 N4P        59.5510   83.6770  115.6670 N.am      1 ACO801      0.0000 
     46 C3P        59.4320   84.5740  116.7950 C.3       1 ACO801      0.0000 
     47 C2P        58.6510   85.8440  116.5040 C.3       1 ACO801      0.0000 
     48 S1P        57.3030   85.9720  117.6340 S.3       1 ACO801      0.0000 
     49 C          56.9870   87.6200  117.6470 C.2       1 ACO801      0.0000 
     50 O          56.4800   88.1110  118.6430 O.2       1 ACO801      0.0000 
     51 CH3        57.3000   88.4970  116.4700 C.3       1 ACO801      0.0000 
@<TRIPOS>BOND
     1    1    2 ar   
     2    1    6 ar   
     3    2    3 ar   
     4    3    4 ar   
     5    4    5 ar   
     6    4   10 1    
     7    5    6 ar   
     8    5    8 1    
     9    6    7 1    
    10    8    9 2    
    11    9   10 1    
    12   10   11 1    
    13   11   12 1    
    14   11   21 1    
    15   12   13 1    
    16   12   14 1    
    17   14   15 1    
    18   14   20 1    
    19   15   16 1    
    20   16   17 ar   
    21   16   18 ar   
    22   16   19 ar   
    23   20   21 1    
    24   20   22 1    
    25   22   23 1    
    26   23   24 1    
    27   24   25 ar   
    28   24   26 ar   
    29   24   27 1    
    30   27   28 1    
    31   28   29 ar   
    32   28   30 ar   
    33   28   31 1    
    34   31   33 1    
    35   32   33 1    
    36   32   34 1    
    37   32   35 1    
    38   32   36 1    
    39   36   37 1    
    40   36   38 1    
    41   38   39 2    
    42   38   40 am   
    43   40   41 1    
    44   41   42 1    
    45   42   43 1    
    46   43   44 2    
    47   43   45 am   
    48   45   46 1    
    49   46   47 1    
    50   47   48 1    
    51   48   49 1    
    52   49   50 2    
    53   49   51 1    
@<TRIPOS>SUBSTRUCTURE
     1 ACO801      1 GROUP   
@<TRIPOS>SET
ATOM$ORANGE STATIC     ATOMS   COLORGROUP SYSTEM 
46 2 2 4 4 5 5 6 6 9 9 11 11 12 12 14 14 20 \
20 22 22 32 32 33 33 34 34 35 35 36 36 38 38 41 41 42 \
42 43 43 46 46 47 47 49 49 51 51 

