#    Name: 6edz_3_ACO
#    Modification time : Fri May 22 19:30:30 2020

@<TRIPOS>MOLECULE
6edz_3_ACO
   51    53     1     0     1
SMALL
NO_CHARGES


@<TRIPOS>ATOM
      1 N1A       -24.0030   80.7610   17.9860 N.ar      1 ACO801      0.0000 
      2 C2A       -25.1890   80.1860   18.3000 C.ar      1 ACO801      0.0000 
      3 N3A       -25.4750   79.7310   19.5400 N.ar      1 ACO801      0.0000 
      4 C4A       -24.5690   79.8300   20.5500 C.ar      1 ACO801      0.0000 
      5 C5A       -23.2570   80.4420   20.2840 C.ar      1 ACO801      0.0000 
      6 C6A       -23.0110   80.9160   18.9020 C.ar      1 ACO801      0.0000 
      7 N6A       -21.8310   81.4950   18.5800 N.pl3     1 ACO801      0.0000 
      8 N7A       -22.5670   80.4130   21.4420 N.2       1 ACO801      0.0000 
      9 C8A       -23.3620   79.8320   22.3740 C.2       1 ACO801      0.0000 
     10 N9A       -24.5530   79.4880   21.8380 N.pl3     1 ACO801      0.0000 
     11 C1B       -25.6780   78.8130   22.5270 C.3       1 ACO801      0.0000 
     12 C2B       -25.2640   77.4550   23.0900 C.3       1 ACO801      0.0000 
     13 O2B       -25.1600   76.4110   22.1140 O.3       1 ACO801      0.0000 
     14 C3B       -26.3540   77.2240   24.1160 C.3       1 ACO801      0.0000 
     15 O3B       -27.5890   76.7630   23.5400 O.3       1 ACO801      0.0000 
     16 P3B       -27.8640   75.2740   22.9630 P.3       1 ACO801      0.0000 
     17 O7A       -26.7840   74.3900   23.5650 O.co2     1 ACO801      0.0000 
     18 O8A       -29.2650   74.9340   23.3900 O.co2     1 ACO801      0.0000 
     19 O9A       -27.7710   75.4710   21.4700 O.co2     1 ACO801      0.0000 
     20 C4B       -26.5450   78.6310   24.6810 C.3       1 ACO801      0.0000 
     21 O4B       -26.1660   79.5490   23.6500 O.3       1 ACO801      0.0000 
     22 C5B       -25.7050   78.8890   25.9300 C.3       1 ACO801      0.0000 
     23 O5B       -24.3260   79.1120   25.6130 O.3       1 ACO801      0.0000 
     24 P1A       -23.1620   78.3170   26.3940 P.3       1 ACO801      0.0000 
     25 O1A       -22.8830   77.0360   25.6510 O.co2     1 ACO801      0.0000 
     26 O2A       -23.5730   78.2600   27.8480 O.co2     1 ACO801      0.0000 
     27 O3A       -21.8910   79.2980   26.2680 O.3       1 ACO801      0.0000 
     28 P2A       -20.4610   78.7650   25.7550 P.3       1 ACO801      0.0000 
     29 O4A       -19.6310   78.2180   26.8980 O.co2     1 ACO801      0.0000 
     30 O5A       -20.6890   77.9230   24.5270 O.co2     1 ACO801      0.0000 
     31 O6A       -19.7990   80.1210   25.2190 O.3       1 ACO801      0.0000 
     32 CBP       -19.2640   82.3920   25.7030 C.3       1 ACO801      0.0000 
     33 CCP       -19.0160   80.9480   26.0670 C.3       1 ACO801      0.0000 
     34 CDP       -18.6110   83.2890   26.7440 C.3       1 ACO801      0.0000 
     35 CEP       -20.7700   82.6350   25.7260 C.3       1 ACO801      0.0000 
     36 CAP       -18.7330   82.6810   24.2890 C.3       1 ACO801      0.0000 
     37 OAP       -19.3800   83.8950   23.9080 O.3       1 ACO801      0.0000 
     38 C9P       -17.2470   82.9200   24.1440 C.2       1 ACO801      0.0000 
     39 O9P       -16.4140   82.3590   24.8390 O.2       1 ACO801      0.0000 
     40 N8P       -16.9250   83.8430   23.2360 N.am      1 ACO801      0.0000 
     41 C7P       -15.5960   84.4070   23.1060 C.3       1 ACO801      0.0000 
     42 C6P       -15.4120   85.5490   24.1070 C.3       1 ACO801      0.0000 
     43 C5P       -16.5750   86.5350   24.1140 C.2       1 ACO801      0.0000 
     44 O5P       -17.1100   86.8610   23.0670 O.2       1 ACO801      0.0000 
     45 N4P       -16.9620   87.0160   25.3050 N.am      1 ACO801      0.0000 
     46 C3P       -18.0480   87.9670   25.4970 C.3       1 ACO801      0.0000 
     47 C2P       -17.6140   89.1550   26.3530 C.3       1 ACO801      0.0000 
     48 S1P       -18.8270   90.4430   26.3420 S.3       1 ACO801      0.0000 
     49 C         -19.5540   90.3760   27.8510 C.2       1 ACO801      0.0000 
     50 O         -19.9010   91.4170   28.3910 O.2       1 ACO801      0.0000 
     51 CH3       -19.7980   89.0620   28.5250 C.3       1 ACO801      0.0000 
@<TRIPOS>BOND
     1    1    2 ar   
     2    1    6 ar   
     3    2    3 ar   
     4    3    4 ar   
     5    4    5 ar   
     6    4   10 1    
     7    5    6 ar   
     8    5    8 1    
     9    6    7 1    
    10    8    9 2    
    11    9   10 1    
    12   10   11 1    
    13   11   12 1    
    14   11   21 1    
    15   12   13 1    
    16   12   14 1    
    17   14   15 1    
    18   14   20 1    
    19   15   16 1    
    20   16   17 ar   
    21   16   18 ar   
    22   16   19 ar   
    23   20   21 1    
    24   20   22 1    
    25   22   23 1    
    26   23   24 1    
    27   24   25 ar   
    28   24   26 ar   
    29   24   27 1    
    30   27   28 1    
    31   28   29 ar   
    32   28   30 ar   
    33   28   31 1    
    34   31   33 1    
    35   32   33 1    
    36   32   34 1    
    37   32   35 1    
    38   32   36 1    
    39   36   37 1    
    40   36   38 1    
    41   38   39 2    
    42   38   40 am   
    43   40   41 1    
    44   41   42 1    
    45   42   43 1    
    46   43   44 2    
    47   43   45 am   
    48   45   46 1    
    49   46   47 1    
    50   47   48 1    
    51   48   49 1    
    52   49   50 2    
    53   49   51 1    
@<TRIPOS>SUBSTRUCTURE
     1 ACO801      1 GROUP   
@<TRIPOS>SET
ATOM$ORANGE STATIC     ATOMS   COLORGROUP SYSTEM 
46 2 2 4 4 5 5 6 6 9 9 11 11 12 12 14 14 20 \
20 22 22 32 32 33 33 34 34 35 35 36 36 38 38 41 41 42 \
42 43 43 46 46 47 47 49 49 51 51 

