#    Name: 6edz_1_ACO
#    Modification time : Fri May 22 19:30:10 2020

@<TRIPOS>MOLECULE
6edz_1_ACO
   51    53     1     0     1
SMALL
NO_CHARGES


@<TRIPOS>ATOM
      1 N1A       -43.2710  115.5200   36.0070 N.ar      1 ACO801      0.0000 
      2 C2A       -42.9030  116.2000   34.8990 C.ar      1 ACO801      0.0000 
      3 N3A       -41.6400  116.6010   34.6810 N.ar      1 ACO801      0.0000 
      4 C4A       -40.6660  116.3310   35.5850 C.ar      1 ACO801      0.0000 
      5 C5A       -40.9860  115.5950   36.8110 C.ar      1 ACO801      0.0000 
      6 C6A       -42.3960  115.1910   36.9830 C.ar      1 ACO801      0.0000 
      7 N6A       -42.7820  114.5070   38.0830 N.pl3     1 ACO801      0.0000 
      8 N7A       -39.8420  115.4710   37.5110 N.2       1 ACO801      0.0000 
      9 C8A       -38.8630  116.0730   36.7970 C.2       1 ACO801      0.0000 
     10 N9A       -39.3670  116.5790   35.6550 N.pl3     1 ACO801      0.0000 
     11 C1B       -38.6390  117.3170   34.6140 C.3       1 ACO801      0.0000 
     12 C2B       -38.2300  118.6740   35.1490 C.3       1 ACO801      0.0000 
     13 O2B       -39.2980  119.6210   35.0920 O.3       1 ACO801      0.0000 
     14 C3B       -37.0590  118.9850   34.2490 C.3       1 ACO801      0.0000 
     15 O3B       -37.4830  119.4640   32.9740 O.3       1 ACO801      0.0000 
     16 P3B       -37.9270  120.9830   32.6870 P.3       1 ACO801      0.0000 
     17 O7A       -36.9910  121.8310   33.5120 O.co2     1 ACO801      0.0000 
     18 O8A       -37.7540  121.1140   31.1960 O.co2     1 ACO801      0.0000 
     19 O9A       -39.3700  121.0480   33.1300 O.co2     1 ACO801      0.0000 
     20 C4B       -36.4120  117.6200   34.0530 C.3       1 ACO801      0.0000 
     21 O4B       -37.4420  116.6450   34.2310 O.3       1 ACO801      0.0000 
     22 C5B       -35.2830  117.3710   35.0440 C.3       1 ACO801      0.0000 
     23 O5B       -35.7950  117.3340   36.3750 O.3       1 ACO801      0.0000 
     24 P1A       -34.9600  117.9320   37.6120 P.3       1 ACO801      0.0000 
     25 O1A       -33.4920  117.8590   37.2420 O.co2     1 ACO801      0.0000 
     26 O2A       -35.6110  119.2230   38.0560 O.co2     1 ACO801      0.0000 
     27 O3A       -35.2170  116.8070   38.7320 O.3       1 ACO801      0.0000 
     28 P2A       -35.8130  117.0720   40.2040 P.3       1 ACO801      0.0000 
     29 O4A       -34.9610  118.0530   40.9800 O.co2     1 ACO801      0.0000 
     30 O5A       -37.3050  117.2760   40.0910 O.co2     1 ACO801      0.0000 
     31 O6A       -35.5700  115.6070   40.8090 O.3       1 ACO801      0.0000 
     32 CBP       -36.4110  113.3750   41.1220 C.3       1 ACO801      0.0000 
     33 CCP       -36.0710  114.4640   40.1220 C.3       1 ACO801      0.0000 
     34 CDP       -35.1710  113.0720   41.9510 C.3       1 ACO801      0.0000 
     35 CEP       -36.7770  112.1190   40.3410 C.3       1 ACO801      0.0000 
     36 CAP       -37.5480  113.8880   42.0450 C.3       1 ACO801      0.0000 
     37 OAP       -38.7720  114.0200   41.3160 O.3       1 ACO801      0.0000 
     38 C9P       -37.8050  113.0420   43.2740 C.2       1 ACO801      0.0000 
     39 O9P       -37.3170  113.3740   44.3460 O.2       1 ACO801      0.0000 
     40 N8P       -38.5920  111.9710   43.1410 N.am      1 ACO801      0.0000 
     41 C7P       -39.0030  111.1290   44.2580 C.3       1 ACO801      0.0000 
     42 C6P       -38.0160  110.0200   44.6210 C.3       1 ACO801      0.0000 
     43 C5P       -37.6850  109.1570   43.4190 C.2       1 ACO801      0.0000 
     44 O5P       -38.5870  108.7200   42.7190 O.2       1 ACO801      0.0000 
     45 N4P       -36.3770  108.9680   43.1970 N.am      1 ACO801      0.0000 
     46 C3P       -35.7690  108.3620   42.0190 C.3       1 ACO801      0.0000 
     47 C2P       -36.3110  107.0300   41.5130 C.3       1 ACO801      0.0000 
     48 S1P       -35.3780  105.6690   42.1250 S.3       1 ACO801      0.0000 
     49 C         -34.1140  105.4720   41.0370 C.2       1 ACO801      0.0000 
     50 O         -33.9830  104.4080   40.4520 O.2       1 ACO801      0.0000 
     51 CH3       -33.1340  106.5730   40.7870 C.3       1 ACO801      0.0000 
@<TRIPOS>BOND
     1    1    2 ar   
     2    1    6 ar   
     3    2    3 ar   
     4    3    4 ar   
     5    4    5 ar   
     6    4   10 1    
     7    5    6 ar   
     8    5    8 1    
     9    6    7 1    
    10    8    9 2    
    11    9   10 1    
    12   10   11 1    
    13   11   12 1    
    14   11   21 1    
    15   12   13 1    
    16   12   14 1    
    17   14   15 1    
    18   14   20 1    
    19   15   16 1    
    20   16   17 ar   
    21   16   18 ar   
    22   16   19 ar   
    23   20   21 1    
    24   20   22 1    
    25   22   23 1    
    26   23   24 1    
    27   24   25 ar   
    28   24   26 ar   
    29   24   27 1    
    30   27   28 1    
    31   28   29 ar   
    32   28   30 ar   
    33   28   31 1    
    34   31   33 1    
    35   32   33 1    
    36   32   34 1    
    37   32   35 1    
    38   32   36 1    
    39   36   37 1    
    40   36   38 1    
    41   38   39 2    
    42   38   40 am   
    43   40   41 1    
    44   41   42 1    
    45   42   43 1    
    46   43   44 2    
    47   43   45 am   
    48   45   46 1    
    49   46   47 1    
    50   47   48 1    
    51   48   49 1    
    52   49   50 2    
    53   49   51 1    
@<TRIPOS>SUBSTRUCTURE
     1 ACO801      1 GROUP   
@<TRIPOS>SET
ATOM$ORANGE STATIC     ATOMS   COLORGROUP SYSTEM 
46 2 2 4 4 5 5 6 6 9 9 11 11 12 12 14 14 20 \
20 22 22 32 32 33 33 34 34 35 35 36 36 38 38 41 41 42 \
42 43 43 46 46 47 47 49 49 51 51 

