#    Name: 6p06_2_APC_CAVITY_N1_ALL
#    Modification time : Fri May 22 19:26:43 2020

@<TRIPOS>MOLECULE
6p06_2_APC_CAVITY_N1_ALL
  113     0     7     0     0
SMALL
NO_CHARGES


@<TRIPOS>ATOM
      1 OG        -32.1500  -10.3900   13.6600 O.3       1 SER1        0.0000 
      2 OG        -31.0100  -12.1700   13.8300 O.3       1 SER1        0.0000 
      3 OG        -32.0500  -11.4900   14.6700 O.3       1 SER1        0.0000 
      4 OG        -30.0400  -10.3100   13.5300 O.3       1 SER1        0.0000 
      5 OG        -29.9300  -11.4100   14.5400 O.3       1 SER1        0.0000 
      6 OG        -26.7800  -12.0200   13.5700 O.3       1 SER1        0.0000 
      7 OG        -29.4800  -14.3800   20.1600 O.3       1 SER1        0.0000 
      8 OG        -28.4000  -13.6200   20.8700 O.3       1 SER1        0.0000 
      9 OG        -26.1900  -10.6700   23.8600 O.3       1 SER1        0.0000 
     10 N         -32.1100   -8.9500   15.2200 N.am      2 ALA2        0.0000 
     11 O         -28.9600   -9.5600   14.2400 O.2       2 ALA2        0.0000 
     12 N         -27.7700   -9.9000   15.9700 N.am      2 ALA2        0.0000 
     13 N         -28.8100   -9.2200   16.8200 N.am      2 ALA2        0.0000 
     14 N         -29.8500   -8.5400   17.6600 N.am      2 ALA2        0.0000 
     15 N         -28.7100  -10.3200   17.8300 N.am      2 ALA2        0.0000 
     16 N         -29.7400   -9.6400   18.6700 N.am      2 ALA2        0.0000 
     17 N         -26.6900   -9.1400   16.6900 N.am      2 ALA2        0.0000 
     18 N         -26.5900  -10.2400   17.7000 N.am      2 ALA2        0.0000 
     19 N         -27.6300   -9.5600   18.5400 N.am      2 ALA2        0.0000 
     20 N         -28.5600   -9.9800   20.4000 N.am      2 ALA2        0.0000 
     21 O         -28.4600  -11.0800   21.4100 O.2       2 ALA2        0.0000 
     22 O         -28.3500  -12.1800   22.4300 O.2       2 ALA2        0.0000 
     23 N         -27.4800   -9.2200   21.1200 N.am      2 ALA2        0.0000 
     24 O         -27.3800  -10.3300   22.1300 O.2       2 ALA2        0.0000 
     25 O         -27.2700  -11.4300   23.1400 O.2       2 ALA2        0.0000 
     26 OD1       -29.8800  -13.9500   14.0000 O.co2     3 ASP3        0.0000 
     27 OD1       -30.9100  -13.2700   14.8400 O.co2     3 ASP3        0.0000 
     28 OD1       -31.9500  -12.5900   15.6900 O.co2     3 ASP3        0.0000 
     29 OD1       -30.8100  -14.3700   15.8600 O.co2     3 ASP3        0.0000 
     30 OD1       -31.8400  -13.6900   16.7000 O.co2     3 ASP3        0.0000 
     31 OD1       -28.9000  -12.0900   13.7000 O.co2     3 ASP3        0.0000 
     32 OD1       -32.0100  -10.0500   16.2300 O.co2     3 ASP3        0.0000 
     33 OD1       -33.0400   -9.3700   17.0800 O.co2     3 ASP3        0.0000 
     34 OD1       -28.8000  -13.2000   14.7100 O.co2     3 ASP3        0.0000 
     35 OD1       -29.7300  -13.6200   16.5700 O.co2     3 ASP3        0.0000 
     36 OD1       -25.6400  -13.8000   13.7400 O.co2     3 ASP3        0.0000 
     37 OD1       -26.6800  -13.1200   14.5800 O.co2     3 ASP3        0.0000 
     38 OD1       -27.7200  -12.4400   15.4300 O.co2     3 ASP3        0.0000 
     39 OD1       -25.5400  -14.9000   14.7500 O.co2     3 ASP3        0.0000 
     40 OD1       -26.5800  -14.2200   15.5900 O.co2     3 ASP3        0.0000 
     41 OD1       -27.5100  -14.6400   17.4500 O.co2     3 ASP3        0.0000 
     42 OD1       -28.5500  -13.9600   18.3000 O.co2     3 ASP3        0.0000 
     43 OD1       -27.4100  -15.7400   18.4700 O.co2     3 ASP3        0.0000 
     44 NZ        -28.6900  -14.3000   15.7300 N.4       4 LYS4        0.0000 
     45 NZ        -30.7600  -12.9400   17.4200 N.4       4 LYS4        0.0000 
     46 NZ        -30.6600  -14.0400   18.4300 N.4       4 LYS4        0.0000 
     47 NZ        -26.4700  -15.3200   16.6100 N.4       4 LYS4        0.0000 
     48 NZ        -28.4400  -15.0600   19.3100 N.4       4 LYS4        0.0000 
     49 NZ        -24.3600  -15.2400   16.4800 N.4       4 LYS4        0.0000 
     50 NZ        -26.3300  -14.9800   19.1800 N.4       4 LYS4        0.0000 
     51 NZ        -27.3600  -14.3000   20.0200 N.4       4 LYS4        0.0000 
     52 NZ        -26.2200  -16.0900   20.1900 N.4       4 LYS4        0.0000 
     53 NZ        -27.2600  -15.4000   21.0400 N.4       4 LYS4        0.0000 
     54 NZ        -28.3000  -14.7200   21.8800 N.4       4 LYS4        0.0000 
     55 NZ        -23.2800  -14.4900   17.1900 N.4       4 LYS4        0.0000 
     56 NZ        -27.2200  -13.9700   22.6000 N.4       4 LYS4        0.0000 
     57 CZ        -31.8000  -12.2600   18.2600 C.ar      5 PHE5        0.0000 
     58 CZ        -31.7000  -13.3600   19.2700 C.ar      5 PHE5        0.0000 
     59 CZ        -24.5000  -15.5800   13.9100 C.ar      5 PHE5        0.0000 
     60 CZ        -30.7200  -11.5000   18.9700 C.ar      5 PHE5        0.0000 
     61 CZ        -29.5800  -13.2800   19.1400 C.ar      5 PHE5        0.0000 
     62 CZ        -23.5300  -13.7200   13.6100 C.ar      5 PHE5        0.0000 
     63 CZ        -23.4200  -14.8200   14.6200 C.ar      5 PHE5        0.0000 
     64 CZ        -29.6400  -10.7400   19.6900 C.ar      5 PHE5        0.0000 
     65 CZ        -29.5400  -11.8400   20.7000 C.ar      5 PHE5        0.0000 
     66 CA        -33.0900  -10.8100   15.5200 C.3       6 GLY6        0.0000 
     67 CA        -32.8800  -13.0100   17.5500 C.3       6 GLY6        0.0000 
     68 CA        -31.0700   -9.6300   14.3800 C.3       6 GLY6        0.0000 
     69 CA        -31.9000  -11.1500   17.2500 C.3       6 GLY6        0.0000 
     70 CA        -32.9400  -10.4700   18.0900 C.3       6 GLY6        0.0000 
     71 CA        -29.9900   -8.8700   15.0900 C.3       6 GLY6        0.0000 
     72 CA        -27.8200  -11.3400   14.4100 C.3       6 GLY6        0.0000 
     73 CA        -31.8600   -9.7200   18.8100 C.3       6 GLY6        0.0000 
     74 CA        -27.8800   -8.8000   14.9600 C.3       6 GLY6        0.0000 
     75 CA        -25.7000  -11.2600   14.2800 C.3       6 GLY6        0.0000 
     76 CA        -26.7400  -10.5800   15.1300 C.3       6 GLY6        0.0000 
     77 CA        -30.7800   -8.9600   19.5200 C.3       6 GLY6        0.0000 
     78 CA        -30.6800  -10.0600   20.5300 C.3       6 GLY6        0.0000 
     79 CA        -23.5900  -11.1800   14.1500 C.3       6 GLY6        0.0000 
     80 CA        -24.6200  -10.5000   15.0000 C.3       6 GLY6        0.0000 
     81 CA        -25.6600   -9.8200   15.8400 C.3       6 GLY6        0.0000 
     82 CA        -22.5100  -10.4200   14.8600 C.3       6 GLY6        0.0000 
     83 DU        -30.9700  -10.7300   15.3900 H         7 CUB7        0.0000 
     84 DU        -29.8300  -12.5200   15.5600 H         7 CUB7        0.0000 
     85 DU        -30.8700  -11.8400   16.4000 H         7 CUB7        0.0000 
     86 DU        -28.8500  -10.6600   15.2600 H         7 CUB7        0.0000 
     87 DU        -29.8900   -9.9800   16.1000 H         7 CUB7        0.0000 
     88 DU        -30.9300   -9.3000   16.9500 H         7 CUB7        0.0000 
     89 DU        -28.7500  -11.7600   16.2700 H         7 CUB7        0.0000 
     90 DU        -29.7900  -11.0800   17.1200 H         7 CUB7        0.0000 
     91 DU        -30.8200  -10.4000   17.9600 H         7 CUB7        0.0000 
     92 DU        -27.6100  -13.5400   16.4400 H         7 CUB7        0.0000 
     93 DU        -28.6500  -12.8600   17.2800 H         7 CUB7        0.0000 
     94 DU        -29.6800  -12.1800   18.1300 H         7 CUB7        0.0000 
     95 DU        -24.5600  -13.0400   14.4500 H         7 CUB7        0.0000 
     96 DU        -25.6000  -12.3600   15.3000 H         7 CUB7        0.0000 
     97 DU        -26.6400  -11.6800   16.1400 H         7 CUB7        0.0000 
     98 DU        -27.6700  -11.0000   16.9800 H         7 CUB7        0.0000 
     99 DU        -24.4600  -14.1400   15.4600 H         7 CUB7        0.0000 
    100 DU        -25.5000  -13.4600   16.3100 H         7 CUB7        0.0000 
    101 DU        -28.6000  -11.4200   18.8400 H         7 CUB7        0.0000 
    102 DU        -25.3900  -14.5600   17.3200 H         7 CUB7        0.0000 
    103 DU        -27.4700  -13.2000   19.0100 H         7 CUB7        0.0000 
    104 DU        -28.5000  -12.5200   19.8600 H         7 CUB7        0.0000 
    105 DU        -22.4500  -12.9600   14.3200 H         7 CUB7        0.0000 
    106 DU        -24.5200  -11.6000   16.0100 H         7 CUB7        0.0000 
    107 DU        -26.4900  -11.3400   18.7100 H         7 CUB7        0.0000 
    108 DU        -27.5200  -10.6600   19.5600 H         7 CUB7        0.0000 
    109 DU        -27.4200  -11.7600   20.5700 H         7 CUB7        0.0000 
    110 DU        -27.3200  -12.8700   21.5800 H         7 CUB7        0.0000 
    111 DU        -26.3400  -11.0100   21.2800 H         7 CUB7        0.0000 
    112 DU        -26.2400  -12.1100   22.3000 H         7 CUB7        0.0000 
    113 DU        -27.1700  -12.5300   24.1600 H         7 CUB7        0.0000 
@<TRIPOS>BOND
@<TRIPOS>SUBSTRUCTURE
     1 SER1        1 GROUP   
     2 ALA2       10 GROUP   
     3 ASP3       26 GROUP   
     4 LYS4       44 GROUP   
     5 PHE5       57 GROUP   
     6 GLY6       66 GROUP   
     7 CUB7       83 GROUP   
@<TRIPOS>SET

