#    Name: 6p06_2_APC
#    Modification time : Fri May 22 19:26:42 2020

@<TRIPOS>MOLECULE
6p06_2_APC
   31    33     1     0     0
SMALL
NO_CHARGES


@<TRIPOS>ATOM
      1 PG        -33.1810  -13.7510   11.4390 P.3       1 APC301      0.0000 
      2 O1G       -32.2700  -13.6330   10.2360 O.co2     1 APC301      0.0000 
      3 O2G       -34.5950  -14.1220   11.0930 O.co2     1 APC301      0.0000 
      4 O3G       -32.6980  -14.8530   12.3390 O.co2     1 APC301      0.0000 
      5 PB        -32.6080  -12.3280   13.8260 P.3       1 APC301      0.0000 
      6 O1B       -33.4750  -13.2240   14.6790 O.co2     1 APC301      0.0000 
      7 O2B       -32.7380  -10.8970   14.2820 O.co2     1 APC301      0.0000 
      8 O3B       -33.1630  -12.3330   12.2730 O.3       1 APC301      0.0000 
      9 PA        -30.2190  -13.6530   15.3630 P.3       1 APC301      0.0000 
     10 O1A       -28.7640  -14.0120   15.1900 O.co2     1 APC301      0.0000 
     11 O2A       -30.9430  -14.9400   15.7300 O.co2     1 APC301      0.0000 
     12 C3A       -30.8250  -12.8930   13.7620 C.3       1 APC301      0.0000 
     13 O5'       -30.3190  -12.5340   16.5720 O.3       1 APC301      0.0000 
     14 C5'       -31.3990  -12.4090   17.4710 C.3       1 APC301      0.0000 
     15 C4'       -31.2210  -11.1560   18.1090 C.3       1 APC301      0.0000 
     16 O4'       -29.9830  -11.0900   18.9810 O.3       1 APC301      0.0000 
     17 C3'       -30.8900   -9.9940   17.0590 C.3       1 APC301      0.0000 
     18 O3'       -32.1600   -9.5670   16.4020 O.3       1 APC301      0.0000 
     19 C2'       -30.3220   -9.0980   17.7300 C.3       1 APC301      0.0000 
     20 O2'       -31.2440   -8.3380   18.5760 O.3       1 APC301      0.0000 
     21 C1'       -29.3550   -9.9590   18.7520 C.3       1 APC301      0.0000 
     22 N9        -28.1620  -10.2090   18.0170 N.pl3     1 APC301      0.0000 
     23 C8        -27.7270  -10.3560   16.7440 C.2       1 APC301      0.0000 
     24 N7        -26.4100  -10.6180   16.7850 N.2       1 APC301      0.0000 
     25 C5        -26.0780  -10.6350   18.0920 C.ar      1 APC301      0.0000 
     26 C6        -24.8710  -10.8490   18.6770 C.ar      1 APC301      0.0000 
     27 N6        -23.6560  -11.1220   17.9230 N.pl3     1 APC301      0.0000 
     28 N1        -24.7460  -10.8310   20.0080 N.ar      1 APC301      0.0000 
     29 C2        -25.8510  -10.5930   20.7820 C.ar      1 APC301      0.0000 
     30 N3        -27.0620  -10.3690   20.2050 N.ar      1 APC301      0.0000 
     31 C4        -27.1500  -10.3870   18.8620 C.ar      1 APC301      0.0000 
@<TRIPOS>BOND
     1    1    2 ar   
     2    1    3 ar   
     3    1    4 ar   
     4    1    8 1    
     5    5    6 ar   
     6    5    7 ar   
     7    5    8 1    
     8    5   12 1    
     9    9   10 ar   
    10    9   11 ar   
    11    9   12 1    
    12    9   13 1    
    13   13   14 1    
    14   14   15 1    
    15   15   16 1    
    16   15   17 1    
    17   16   21 1    
    18   17   18 1    
    19   17   19 1    
    20   19   20 1    
    21   19   21 1    
    22   21   22 1    
    23   22   23 1    
    24   22   31 1    
    25   23   24 2    
    26   24   25 1    
    27   25   26 ar   
    28   25   31 ar   
    29   26   27 1    
    30   26   28 ar   
    31   28   29 ar   
    32   29   30 ar   
    33   30   31 ar   
@<TRIPOS>SUBSTRUCTURE
     1 APC301      1 GROUP   
@<TRIPOS>SET

