#    Name: 6p06_1_APC
#    Modification time : Fri May 22 19:26:35 2020

@<TRIPOS>MOLECULE
6p06_1_APC
   31    33     1     0     0
SMALL
NO_CHARGES


@<TRIPOS>ATOM
      1 PG         -0.3420   -6.9830   14.2860 P.3       1 APC302      0.0000 
      2 O1G        -0.7510   -6.0100   15.3790 O.co2     1 APC302      0.0000 
      3 O2G        -1.3300   -6.9360   13.1270 O.co2     1 APC302      0.0000 
      4 O3G         1.0650   -6.6340   13.9010 O.co2     1 APC302      0.0000 
      5 PB         -1.1150   -8.7730   16.3060 P.3       1 APC302      0.0000 
      6 O1B        -0.4550   -7.9440   17.3660 O.co2     1 APC302      0.0000 
      7 O2B        -1.0780  -10.2280   16.7110 O.co2     1 APC302      0.0000 
      8 O3B        -0.3440   -8.5100   14.8890 O.3       1 APC302      0.0000 
      9 PA         -3.6980   -7.7020   17.5470 P.3       1 APC302      0.0000 
     10 O1A        -5.1000   -7.2980   17.1330 O.co2     1 APC302      0.0000 
     11 O2A        -2.9450   -6.5900   18.2360 O.co2     1 APC302      0.0000 
     12 C3A        -2.8700   -8.2410   15.9690 C.3       1 APC302      0.0000 
     13 O5'        -3.7830   -8.9870   18.5890 O.3       1 APC302      0.0000 
     14 C5'        -2.8490   -9.1780   19.6320 C.3       1 APC302      0.0000 
     15 C4'        -2.9480  -10.4740   20.1460 C.3       1 APC302      0.0000 
     16 O4'        -4.3010  -10.6970   20.7540 O.3       1 APC302      0.0000 
     17 C3'        -2.8750  -11.5820   18.9810 C.3       1 APC302      0.0000 
     18 O3'        -1.4600  -11.9880   18.7740 O.3       1 APC302      0.0000 
     19 C2'        -3.6240  -12.5340   19.3190 C.3       1 APC302      0.0000 
     20 O2'        -3.0440  -13.6220   20.1330 O.3       1 APC302      0.0000 
     21 C1'        -4.8060  -11.8030   20.2110 C.3       1 APC302      0.0000 
     22 N9         -5.8710  -11.5120   19.3000 N.pl3     1 APC302      0.0000 
     23 C8         -6.0950  -11.2960   17.9800 C.2       1 APC302      0.0000 
     24 N7         -7.4130  -11.0360   17.8390 N.2       1 APC302      0.0000 
     25 C5         -7.9560  -11.1070   19.0750 C.ar      1 APC302      0.0000 
     26 C6         -9.2480  -10.9270   19.4900 C.ar      1 APC302      0.0000 
     27 N6        -10.3600  -10.6050   18.6060 N.pl3     1 APC302      0.0000 
     28 N1         -9.5650  -11.0450   20.7800 N.ar      1 APC302      0.0000 
     29 C2         -8.5920  -11.3480   21.7020 C.ar      1 APC302      0.0000 
     30 N3         -7.3070  -11.5190   21.3010 N.ar      1 APC302      0.0000 
     31 C4         -7.0110  -11.3950   19.9860 C.ar      1 APC302      0.0000 
@<TRIPOS>BOND
     1    1    2 ar   
     2    1    3 ar   
     3    1    4 ar   
     4    1    8 1    
     5    5    6 ar   
     6    5    7 ar   
     7    5    8 1    
     8    5   12 1    
     9    9   10 ar   
    10    9   11 ar   
    11    9   12 1    
    12    9   13 1    
    13   13   14 1    
    14   14   15 1    
    15   15   16 1    
    16   15   17 1    
    17   16   21 1    
    18   17   18 1    
    19   17   19 1    
    20   19   20 1    
    21   19   21 1    
    22   21   22 1    
    23   22   23 1    
    24   22   31 1    
    25   23   24 2    
    26   24   25 1    
    27   25   26 ar   
    28   25   31 ar   
    29   26   27 1    
    30   26   28 ar   
    31   28   29 ar   
    32   29   30 ar   
    33   30   31 ar   
@<TRIPOS>SUBSTRUCTURE
     1 APC302      1 GROUP   
@<TRIPOS>SET

