#    Name: 6p06_1_APC_CAVITY_N1_6
#    Modification time : Fri May 22 19:26:37 2020

@<TRIPOS>MOLECULE
6p06_1_APC_CAVITY_N1_6
   96     0     7     0     0
SMALL
NO_CHARGES


@<TRIPOS>ATOM
      1 OG        -11.9900   -7.5000   14.7600 O.3       1 SER1        0.0000 
      2 OG         -3.3200   -9.3900   16.2600 O.3       1 SER1        0.0000 
      3 OG         -1.2000   -9.3100   16.1300 O.3       1 SER1        0.0000 
      4 OG         -6.1800   -8.1100   22.3800 O.3       1 SER1        0.0000 
      5 OG         -6.0700   -9.2200   23.3900 O.3       1 SER1        0.0000 
      6 N         -10.9500   -8.1800   13.9100 N.am      2 ALA2        0.0000 
      7 O          -5.3700  -12.0100   15.8400 O.2       2 ALA2        0.0000 
      8 N          -6.3100  -12.4300   17.7000 N.am      2 ALA2        0.0000 
      9 N          -7.3400  -11.7500   18.5500 N.am      2 ALA2        0.0000 
     10 O          -4.4000  -10.1500   15.5400 O.2       2 ALA2        0.0000 
     11 N          -4.1900  -12.3500   17.5700 N.am      2 ALA2        0.0000 
     12 N          -5.2300  -11.6700   18.4200 N.am      2 ALA2        0.0000 
     13 N          -6.2600  -10.9900   19.2600 N.am      2 ALA2        0.0000 
     14 N          -4.0900  -13.4500   18.5800 N.am      2 ALA2        0.0000 
     15 N          -5.1200  -12.7700   19.4300 N.am      2 ALA2        0.0000 
     16 N          -6.1600  -12.0900   20.2700 N.am      2 ALA2        0.0000 
     17 N          -3.1100  -11.5900   18.2900 N.am      2 ALA2        0.0000 
     18 N          -3.0100  -12.7000   19.3000 N.am      2 ALA2        0.0000 
     19 N          -6.1200  -10.6500   21.8300 N.am      2 ALA2        0.0000 
     20 OD1        -7.6500   -8.4500   15.5100 O.co2     3 ASP3        0.0000 
     21 OD1        -6.5700   -7.6900   16.2200 O.co2     3 ASP3        0.0000 
     22 OD1        -7.6100   -7.0100   17.0700 O.co2     3 ASP3        0.0000 
     23 OD1        -5.4300   -9.4700   16.3900 O.co2     3 ASP3        0.0000 
     24 OD1        -6.4700   -8.7900   17.2300 O.co2     3 ASP3        0.0000 
     25 OD1        -5.4900   -6.9300   16.9300 O.co2     3 ASP3        0.0000 
     26 OD1        -4.3500   -8.7100   17.1000 O.co2     3 ASP3        0.0000 
     27 OD1        -5.3900   -8.0300   17.9500 O.co2     3 ASP3        0.0000 
     28 OD1        -6.4200   -7.3500   18.7900 O.co2     3 ASP3        0.0000 
     29 OD1        -7.4600   -6.6700   19.6400 O.co2     3 ASP3        0.0000 
     30 OD1        -2.3400   -7.5300   15.9600 O.co2     3 ASP3        0.0000 
     31 OD1        -2.2400   -8.6300   16.9700 O.co2     3 ASP3        0.0000 
     32 OD1        -3.2700   -7.9500   17.8200 O.co2     3 ASP3        0.0000 
     33 OD1        -4.3100   -7.2700   18.6600 O.co2     3 ASP3        0.0000 
     34 OD1        -6.3800   -5.9100   20.3500 O.co2     3 ASP3        0.0000 
     35 OD1        -1.1000  -10.4200   17.1400 O.co2     3 ASP3        0.0000 
     36 OD1        -4.2100   -8.3700   19.6800 O.co2     3 ASP3        0.0000 
     37 OD1        -5.2400   -7.6900   20.5200 O.co2     3 ASP3        0.0000 
     38 NZ        -10.7600   -6.4000   18.0400 N.4       4 LYS4        0.0000 
     39 NZ         -6.5300   -6.2500   17.7800 N.4       4 LYS4        0.0000 
     40 NZ         -8.5000   -5.9900   20.4800 N.4       4 LYS4        0.0000 
     41 NZ         -3.1700   -9.0500   18.8300 N.4       4 LYS4        0.0000 
     42 NZ         -6.2800   -7.0100   21.3600 N.4       4 LYS4        0.0000 
     43 NZ         -3.1300   -7.6200   20.3900 N.4       4 LYS4        0.0000 
     44 CZ        -10.9100   -6.7400   15.4700 C.ar      5 PHE5        0.0000 
     45 CZ         -9.8300   -5.9800   16.1800 C.ar      5 PHE5        0.0000 
     46 CZ         -3.0700  -10.1600   19.8400 C.ar      5 PHE5        0.0000 
     47 CZ         -4.1000   -9.4800   20.6900 C.ar      5 PHE5        0.0000 
     48 CZ         -5.1400   -8.8000   21.5300 C.ar      5 PHE5        0.0000 
     49 CZ         -2.9600  -11.2600   20.8600 C.ar      5 PHE5        0.0000 
     50 CZ         -4.0000  -10.5800   21.7000 C.ar      5 PHE5        0.0000 
     51 CZ         -5.0400   -9.9000   22.5500 C.ar      5 PHE5        0.0000 
     52 CZ         -4.0600   -8.0400   22.2500 C.ar      5 PHE5        0.0000 
     53 CA         -8.7300   -9.2000   14.7900 C.3       6 GLY6        0.0000 
     54 CA         -8.6300  -10.3000   15.8100 C.3       6 GLY6        0.0000 
     55 CA         -8.5300  -11.4100   16.8200 C.3       6 GLY6        0.0000 
     56 CA         -9.4600  -11.8300   18.6800 C.3       6 GLY6        0.0000 
     57 CA         -8.7900   -6.6600   15.3400 C.3       6 GLY6        0.0000 
     58 CA         -6.5100  -10.2300   15.6800 C.3       6 GLY6        0.0000 
     59 CA         -7.5500   -9.5500   16.5200 C.3       6 GLY6        0.0000 
     60 CA         -6.4100  -11.3300   16.6900 C.3       6 GLY6        0.0000 
     61 CA         -8.2800  -12.1700   20.4100 C.3       6 GLY6        0.0000 
     62 CA         -7.7100   -5.9100   16.0500 C.3       6 GLY6        0.0000 
     63 CA         -4.2900  -11.2500   16.5600 C.3       6 GLY6        0.0000 
     64 CA         -7.2000  -11.4100   21.1200 C.3       6 GLY6        0.0000 
     65 CA         -7.0900  -12.5100   22.1300 C.3       6 GLY6        0.0000 
     66 CA         -8.1300  -11.8300   22.9800 C.3       6 GLY6        0.0000 
     67 CA         -2.1800  -11.1700   16.4300 C.3       6 GLY6        0.0000 
     68 CA         -3.2100  -10.4900   17.2700 C.3       6 GLY6        0.0000 
     69 CA         -2.1300   -9.7400   17.9900 C.3       6 GLY6        0.0000 
     70 CA         -2.0300  -10.8400   19.0000 C.3       6 GLY6        0.0000 
     71 CA         -1.0500   -8.9800   18.7000 C.3       6 GLY6        0.0000 
     72 CA         -1.9900   -9.4000   20.5600 C.3       6 GLY6        0.0000 
     73 DU         -9.7700   -8.5200   15.6400 H         7 CUB7        0.0000 
     74 DU        -10.8000   -7.8400   16.4800 H         7 CUB7        0.0000 
     75 DU         -9.6600   -9.6200   16.6500 H         7 CUB7        0.0000 
     76 DU         -8.6900   -7.7600   16.3500 H         7 CUB7        0.0000 
     77 DU         -9.7200   -7.0800   17.2000 H         7 CUB7        0.0000 
     78 DU         -8.5800   -8.8700   17.3700 H         7 CUB7        0.0000 
     79 DU         -7.4500  -10.6500   17.5300 H         7 CUB7        0.0000 
     80 DU         -8.4800   -9.9700   18.3800 H         7 CUB7        0.0000 
     81 DU         -8.3800  -11.0700   19.3900 H         7 CUB7        0.0000 
     82 DU         -8.6400   -6.3300   17.9100 H         7 CUB7        0.0000 
     83 DU         -7.5000   -8.1100   18.0800 H         7 CUB7        0.0000 
     84 DU         -5.3300  -10.5700   17.4000 H         7 CUB7        0.0000 
     85 DU         -7.3000  -10.3100   20.1100 H         7 CUB7        0.0000 
     86 DU         -4.2500   -9.8100   18.1200 H         7 CUB7        0.0000 
     87 DU         -5.2900   -9.1300   18.9600 H         7 CUB7        0.0000 
     88 DU         -6.3200   -8.4500   19.8100 H         7 CUB7        0.0000 
     89 DU         -7.3600   -7.7700   20.6500 H         7 CUB7        0.0000 
     90 DU         -4.1500  -10.9100   19.1300 H         7 CUB7        0.0000 
     91 DU         -5.1800  -10.2300   19.9700 H         7 CUB7        0.0000 
     92 DU         -6.2200   -9.5500   20.8200 H         7 CUB7        0.0000 
     93 DU         -7.2600   -8.8700   21.6600 H         7 CUB7        0.0000 
     94 DU         -4.0400  -12.0200   20.1400 H         7 CUB7        0.0000 
     95 DU         -5.0800  -11.3300   20.9900 H         7 CUB7        0.0000 
     96 DU         -7.1500   -9.9700   22.6800 H         7 CUB7        0.0000 
@<TRIPOS>BOND
@<TRIPOS>SUBSTRUCTURE
     1 SER1        1 GROUP   
     2 ALA2        6 GROUP   
     3 ASP3       20 GROUP   
     4 LYS4       38 GROUP   
     5 PHE5       44 GROUP   
     6 GLY6       53 GROUP   
     7 CUB7       73 GROUP   
@<TRIPOS>SET

