#    Name: 6fcw_1_PRT
#    Modification time : Fri May 22 19:30:32 2020

@<TRIPOS>MOLECULE
6fcw_1_PRT
   44    47     1     0     0
SMALL
NO_CHARGES


@<TRIPOS>ATOM
      1 O1G        32.5830  -12.7330   -3.6060 O.co2     1 PRT301      0.0000 
      2 PG         31.1280  -12.3070   -3.0860 P.3       1 PRT301      0.0000 
      3 O2G        30.9540  -12.7280   -1.6760 O.co2     1 PRT301      0.0000 
      4 O3G        30.9250  -10.8850   -3.4440 O.co2     1 PRT301      0.0000 
      5 O3B        30.1770  -13.2850   -3.9750 O.3       1 PRT301      0.0000 
      6 PB         29.2270  -12.7960   -5.2100 P.3       1 PRT301      0.0000 
      7 O1B        29.7290  -11.5200   -5.7950 O.co2     1 PRT301      0.0000 
      8 O2B        28.9860  -13.9450   -6.1210 O.co2     1 PRT301      0.0000 
      9 O3A        27.8240  -12.5930   -4.4230 O.3       1 PRT301      0.0000 
     10 PA         27.2260  -11.2020   -3.8720 P.3       1 PRT301      0.0000 
     11 O1A        26.9630  -11.3590   -2.4190 O.co2     1 PRT301      0.0000 
     12 O2A        28.0090  -10.0350   -4.3490 O.co2     1 PRT301      0.0000 
     13 O5'        25.8400  -11.2720   -4.6540 O.3       1 PRT301      0.0000 
     14 C5'        24.7580  -11.9880   -4.0950 C.3       1 PRT301      0.0000 
     15 C4'        24.0280  -12.6730   -5.2530 C.3       1 PRT301      0.0000 
     16 O4'        23.7940  -11.7120   -6.2790 O.3       1 PRT301      0.0000 
     17 C3'        24.8700  -13.7340   -5.9420 C.3       1 PRT301      0.0000 
     18 O3'        24.9350  -14.9730   -5.1720 O.3       1 PRT301      0.0000 
     19 C2'        24.0590  -13.8800   -7.2220 C.3       1 PRT301      0.0000 
     20 O2'        22.9640  -14.8020   -7.0050 O.3       1 PRT301      0.0000 
     21 C1'        23.5030  -12.4470   -7.4710 C.3       1 PRT301      0.0000 
     22 N9         24.1410  -11.6960   -8.6070 N.pl3     1 PRT301      0.0000 
     23 C8         23.4910  -11.0220   -9.5570 C.2       1 PRT301      0.0000 
     24 C4         25.4400  -11.5570   -8.8420 C.ar      1 PRT301      0.0000 
     25 C5         25.6010  -10.8140   -9.9550 C.ar      1 PRT301      0.0000 
     26 N7         24.3820  -10.4860  -10.3880 N.2       1 PRT301      0.0000 
     27 C6         26.8320  -10.5280  -10.4190 C.ar      1 PRT301      0.0000 
     28 N6         26.8810   -9.7820  -11.5250 N.pl3     1 PRT301      0.0000 
     29 N3         26.5030  -12.0350   -8.1780 N.ar      1 PRT301      0.0000 
     30 C2         27.7910  -11.7540   -8.6330 C.ar      1 PRT301      0.0000 
     31 N1         27.9450  -10.9780   -9.7850 N.pl3     1 PRT301      0.0000 
     32 C11        29.3400  -10.7150  -10.2280 C.3       1 PRT301      0.0000 
     33 C12        29.8440  -11.8220  -11.1870 C.3       1 PRT301      0.0000 
     34 O12        30.4090  -12.9590  -10.5090 O.3       1 PRT301      0.0000 
     35 C13        30.9420  -11.0930  -11.9150 C.3       1 PRT301      0.0000 
     36 O13        32.1170  -11.0160  -11.1450 O.3       1 PRT301      0.0000 
     37 O14        29.5020   -9.4430  -10.9260 O.3       1 PRT301      0.0000 
     38 C14        30.3470   -9.7150  -12.0950 C.3       1 PRT301      0.0000 
     39 C15        29.5900   -9.8610  -13.3720 C.3       1 PRT301      0.0000 
     40 O15        28.7450   -8.7390  -13.5540 O.3       1 PRT301      0.0000 
     41 P          28.4990   -8.3700  -15.0750 P.3       1 PRT301      0.0000 
     42 O3P        29.7690   -7.7700  -15.5180 O.co2     1 PRT301      0.0000 
     43 O1P        28.1460   -9.6560  -15.7220 O.co2     1 PRT301      0.0000 
     44 O2P        27.3590   -7.4290  -14.9710 O.co2     1 PRT301      0.0000 
@<TRIPOS>BOND
     1    1    2 ar   
     2    2    3 ar   
     3    2    4 ar   
     4    2    5 1    
     5    5    6 1    
     6    6    7 ar   
     7    6    8 ar   
     8    6    9 1    
     9    9   10 1    
    10   10   11 ar   
    11   10   12 ar   
    12   10   13 1    
    13   13   14 1    
    14   14   15 1    
    15   15   16 1    
    16   15   17 1    
    17   16   21 1    
    18   17   18 1    
    19   17   19 1    
    20   19   20 1    
    21   19   21 1    
    22   21   22 1    
    23   22   23 1    
    24   22   24 1    
    25   23   26 2    
    26   24   25 ar   
    27   24   29 ar   
    28   25   26 1    
    29   25   27 ar   
    30   27   28 1    
    31   27   31 ar   
    32   29   30 ar   
    33   30   31 ar   
    34   31   32 1    
    35   32   33 1    
    36   32   37 1    
    37   33   34 1    
    38   33   35 1    
    39   35   36 1    
    40   35   38 1    
    41   37   38 1    
    42   38   39 1    
    43   39   40 1    
    44   40   41 1    
    45   41   42 ar   
    46   41   43 ar   
    47   41   44 ar   
@<TRIPOS>SUBSTRUCTURE
     1 PRT301      1 GROUP   
@<TRIPOS>SET

