#    Name: 6dlu_1_GCP
#    Modification time : Fri May 22 19:42:04 2020

@<TRIPOS>MOLECULE
6dlu_1_GCP
   32    34     1     0     0
SMALL
NO_CHARGES


@<TRIPOS>ATOM
      1 PG        207.1470  436.8010  274.7400 P.3       1 GCP801      0.0000 
      2 O1G       208.0960  436.8630  273.5490 O.co2     1 GCP801      0.0000 
      3 O2G       207.9170  437.0680  276.0140 O.co2     1 GCP801      0.0000 
      4 O3G       206.4600  435.3940  274.8020 O.co2     1 GCP801      0.0000 
      5 C3B       205.8590  438.1060  274.5660 C.3       1 GCP801      0.0000 
      6 PB        206.1010  439.2870  275.9450 P.3       1 GCP801      0.0000 
      7 O1B       207.4430  439.9290  275.8500 O.co2     1 GCP801      0.0000 
      8 O2B       205.9840  438.5550  277.2640 O.co2     1 GCP801      0.0000 
      9 O3A       204.9620  440.4300  275.8650 O.3       1 GCP801      0.0000 
     10 PA        205.3440  442.0230  275.9260 P.3       1 GCP801      0.0000 
     11 O1A       206.4160  442.3130  274.9100 O.co2     1 GCP801      0.0000 
     12 O2A       205.8620  442.3510  277.3540 O.co2     1 GCP801      0.0000 
     13 O5'       203.9800  442.9040  275.5640 O.3       1 GCP801      0.0000 
     14 C5'       203.1470  442.3460  274.6040 C.3       1 GCP801      0.0000 
     15 C4'       202.1490  443.4210  274.1250 C.3       1 GCP801      0.0000 
     16 O4'       201.0980  443.7310  275.3170 O.3       1 GCP801      0.0000 
     17 C3'       202.8120  444.5030  273.8840 C.3       1 GCP801      0.0000 
     18 O3'       202.4930  444.9920  272.4370 O.3       1 GCP801      0.0000 
     19 C2'       202.3220  445.5520  274.9130 C.3       1 GCP801      0.0000 
     20 O2'       202.1530  446.7460  274.3200 O.3       1 GCP801      0.0000 
     21 C1'       200.9680  445.0250  275.3780 C.3       1 GCP801      0.0000 
     22 N9        200.7270  445.4380  276.7950 N.pl3     1 GCP801      0.0000 
     23 C8        201.3910  445.2550  277.9370 C.2       1 GCP801      0.0000 
     24 N7        200.6850  445.8600  278.8880 N.2       1 GCP801      0.0000 
     25 C5        199.5990  446.4140  278.3250 C.2       1 GCP801      0.0000 
     26 C6        198.5700  447.1370  278.8540 C.2       1 GCP801      0.0000 
     27 O6        198.5620  447.3560  279.9770 O.2       1 GCP801      0.0000 
     28 N1        197.6020  447.5790  278.0970 N.am      1 GCP801      0.0000 
     29 C2        197.6320  447.3140  276.7860 C.2       1 GCP801      0.0000 
     30 N2        196.4980  447.8470  275.9870 N.pl3     1 GCP801      0.0000 
     31 N3        198.6460  446.5950  276.2490 N.2       1 GCP801      0.0000 
     32 C4        199.6230  446.1540  277.0280 C.2       1 GCP801      0.0000 
@<TRIPOS>BOND
     1    1    2 ar   
     2    1    3 ar   
     3    1    4 ar   
     4    1    5 1    
     5    5    6 1    
     6    6    7 ar   
     7    6    8 ar   
     8    6    9 1    
     9    9   10 1    
    10   10   11 ar   
    11   10   12 ar   
    12   10   13 1    
    13   13   14 1    
    14   14   15 1    
    15   15   16 1    
    16   15   17 1    
    17   16   21 1    
    18   17   18 1    
    19   17   19 1    
    20   19   20 1    
    21   19   21 1    
    22   21   22 1    
    23   22   23 1    
    24   22   32 1    
    25   23   24 2    
    26   24   25 1    
    27   25   26 1    
    28   25   32 2    
    29   26   27 2    
    30   26   28 am   
    31   28   29 1    
    32   29   30 1    
    33   29   31 2    
    34   31   32 1    
@<TRIPOS>SUBSTRUCTURE
     1 GCP801      1 GROUP   
@<TRIPOS>SET

