#    Name: 6g0z_2_GDP_CAVITY_N1_4
#    Modification time : Fri May 22 19:28:27 2020

@<TRIPOS>MOLECULE
6g0z_2_GDP_CAVITY_N1_4
   49     0     6     0     0
SMALL
NO_CHARGES


@<TRIPOS>ATOM
      1 OG        -48.9900   41.1800  144.1100 O.3       1 SER1        0.0000 
      2 OG        -49.4800   41.6900  142.7800 O.3       1 SER1        0.0000 
      3 OG        -48.3300   42.5000  144.3700 O.3       1 SER1        0.0000 
      4 OG        -48.8200   43.0100  143.0400 O.3       1 SER1        0.0000 
      5 O         -50.6300   40.8700  141.2000 O.2       2 ALA2        0.0000 
      6 O         -49.3700   40.3700  140.5500 O.2       2 ALA2        0.0000 
      7 O         -51.1200   41.3800  139.8800 O.2       2 ALA2        0.0000 
      8 N         -46.1800   46.6800  134.9800 N.am      2 ALA2        0.0000 
      9 N         -45.7900   47.4900  138.5400 N.am      2 ALA2        0.0000 
     10 N         -46.2800   48.0000  137.2200 N.am      2 ALA2        0.0000 
     11 OD1       -46.9000   43.8300  142.6500 O.co2     3 ASP3        0.0000 
     12 OD1       -45.4800   45.1600  140.9300 O.co2     3 ASP3        0.0000 
     13 OD1       -45.9700   45.6600  139.6100 O.co2     3 ASP3        0.0000 
     14 OD1       -45.3000   46.9800  139.8700 O.co2     3 ASP3        0.0000 
     15 NZ        -49.6900   42.7100  138.1600 N.4       4 LYS4        0.0000 
     16 NZ        -49.0300   44.0300  138.4200 N.4       4 LYS4        0.0000 
     17 NZ        -46.9500   46.6800  136.9600 N.4       4 LYS4        0.0000 
     18 NZ        -47.4400   47.1800  135.6300 N.4       4 LYS4        0.0000 
     19 CA        -50.1400   40.3700  142.5200 C.3       5 GLY6        0.0000 
     20 CA        -48.8800   39.8700  141.8700 C.3       5 GLY6        0.0000 
     21 CA        -49.8600   40.8800  139.2200 C.3       5 GLY6        0.0000 
     22 CA        -47.7300   40.6800  143.4600 C.3       5 GLY6        0.0000 
     23 CA        -48.2200   41.1900  142.1300 C.3       5 GLY6        0.0000 
     24 CA        -49.9700   42.1900  141.4600 C.3       5 GLY6        0.0000 
     25 CA        -48.7100   41.6900  140.8100 C.3       5 GLY6        0.0000 
     26 CA        -50.4600   42.7000  140.1400 C.3       5 GLY6        0.0000 
     27 CA        -49.2000   42.2000  139.4800 C.3       5 GLY6        0.0000 
     28 CA        -47.5600   42.5100  142.3900 C.3       5 GLY6        0.0000 
     29 CA        -49.3100   43.5100  141.7200 C.3       5 GLY6        0.0000 
     30 CA        -48.0500   43.0100  141.0700 C.3       5 GLY6        0.0000 
     31 CA        -46.8000   42.5200  140.4100 C.3       5 GLY6        0.0000 
     32 CA        -48.5400   43.5200  139.7400 C.3       5 GLY6        0.0000 
     33 CA        -47.2900   43.0200  139.0900 C.3       5 GLY6        0.0000 
     34 CA        -47.7800   43.5300  137.7600 C.3       5 GLY6        0.0000 
     35 CA        -47.3900   44.3400  141.3300 C.3       5 GLY6        0.0000 
     36 CA        -47.8800   44.8400  140.0000 C.3       5 GLY6        0.0000 
     37 CA        -46.6300   44.3400  139.3500 C.3       5 GLY6        0.0000 
     38 CA        -48.3700   45.3500  138.6800 C.3       5 GLY6        0.0000 
     39 CA        -47.1200   44.8500  138.0200 C.3       5 GLY6        0.0000 
     40 CA        -44.7100   45.1600  138.9500 C.3       5 GLY6        0.0000 
     41 CA        -47.7100   46.6700  138.9400 C.3       5 GLY6        0.0000 
     42 CA        -46.4600   46.1700  138.2800 C.3       5 GLY6        0.0000 
     43 CA        -45.2000   45.6700  137.6300 C.3       5 GLY6        0.0000 
     44 CA        -45.6900   46.1800  136.3000 C.3       5 GLY6        0.0000 
     45 CA        -44.5400   46.9900  137.8900 C.3       5 GLY6        0.0000 
     46 DU        -47.0700   42.0000  143.7200 H         6 CUB7        0.0000 
     47 DU        -45.6500   43.3300  142.0000 H         6 CUB7        0.0000 
     48 DU        -46.1400   43.8400  140.6700 H         6 CUB7        0.0000 
     49 DU        -44.9900   44.6500  142.2600 H         6 CUB7        0.0000 
@<TRIPOS>BOND
@<TRIPOS>SUBSTRUCTURE
     1 SER1        1 GROUP   
     2 ALA2        5 GROUP   
     3 ASP3       11 GROUP   
     4 LYS4       15 GROUP   
     5 GLY6       19 GROUP   
     6 CUB7       46 GROUP   
@<TRIPOS>SET

