#    Name: 6g0z_2_GDP
#    Modification time : Fri May 22 19:28:25 2020

@<TRIPOS>MOLECULE
6g0z_2_GDP
   28    30     1     0     1
SMALL
NO_CHARGES


@<TRIPOS>ATOM
      1 PB        -48.6730   36.3970  146.7710 P.3       1 GDP301      0.0000 
      2 O1B       -48.8630   35.2710  145.8140 O.co2     1 GDP301      0.0000 
      3 O2B       -49.9540   36.5950  147.6620 O.co2     1 GDP301      0.0000 
      4 O3B       -47.5220   35.8810  147.5690 O.co2     1 GDP301      0.0000 
      5 O3A       -48.3300   37.7320  145.9780 O.3       1 GDP301      0.0000 
      6 PA        -48.8730   39.2010  146.2720 P.3       1 GDP301      0.0000 
      7 O1A       -50.3540   39.2750  146.1360 O.co2     1 GDP301      0.0000 
      8 O2A       -48.6000   39.5550  147.6930 O.co2     1 GDP301      0.0000 
      9 O5'       -48.2130   40.2480  145.2590 O.3       1 GDP301      0.0000 
     10 C5'       -46.8130   40.1430  144.9390 C.3       1 GDP301      0.0000 
     11 C4'       -46.3850   41.3880  144.2200 C.3       1 GDP301      0.0000 
     12 O4'       -46.7640   41.3650  142.7970 O.3       1 GDP301      0.0000 
     13 C3'       -47.0680   42.5640  144.8040 C.3       1 GDP301      0.0000 
     14 O3'       -46.1870   43.6980  144.7540 O.3       1 GDP301      0.0000 
     15 C2'       -48.2100   42.8280  143.9290 C.3       1 GDP301      0.0000 
     16 O2'       -48.5470   44.2240  144.0240 O.3       1 GDP301      0.0000 
     17 C1'       -47.7290   42.4660  142.5760 C.3       1 GDP301      0.0000 
     18 N9        -48.7610   42.0000  141.7470 N.pl3     1 GDP301      0.0000 
     19 C8        -49.5530   41.1590  142.1590 C.2       1 GDP301      0.0000 
     20 N7        -50.4290   40.8980  141.1250 N.2       1 GDP301      0.0000 
     21 C5        -49.9770   41.7710  140.0010 C.2       1 GDP301      0.0000 
     22 C6        -50.3150   42.0830  138.6670 C.2       1 GDP301      0.0000 
     23 O6        -51.2520   41.5420  138.1040 O.2       1 GDP301      0.0000 
     24 N1        -49.5610   43.0190  137.9700 N.am      1 GDP301      0.0000 
     25 C2        -48.4900   43.6360  138.5820 C.2       1 GDP301      0.0000 
     26 N2        -47.6980   44.5910  137.8620 N.pl3     1 GDP301      0.0000 
     27 N3        -48.1870   43.3320  139.8510 N.2       1 GDP301      0.0000 
     28 C4        -48.8480   42.4490  140.5730 C.2       1 GDP301      0.0000 
@<TRIPOS>BOND
     1    1    2 ar   
     2    1    3 ar   
     3    1    4 ar   
     4    1    5 1    
     5    5    6 1    
     6    6    7 ar   
     7    6    8 ar   
     8    6    9 1    
     9    9   10 1    
    10   10   11 1    
    11   11   12 1    
    12   11   13 1    
    13   12   17 1    
    14   13   14 1    
    15   13   15 1    
    16   15   16 1    
    17   15   17 1    
    18   17   18 1    
    19   18   19 1    
    20   18   28 1    
    21   19   20 2    
    22   20   21 1    
    23   21   22 1    
    24   21   28 2    
    25   22   23 2    
    26   22   24 am   
    27   24   25 1    
    28   25   26 1    
    29   25   27 2    
    30   27   28 1    
@<TRIPOS>SUBSTRUCTURE
     1 GDP301      1 GROUP   
@<TRIPOS>SET
ATOM$ORANGE STATIC     ATOMS   COLORGROUP SYSTEM 
20 10 10 11 11 13 13 15 15 17 17 19 19 21 21 22 22 25 \
25 28 28 

