#    Name: 6h77_2_ATP_CAVITY_N1_6
#    Modification time : Fri May 22 19:25:38 2020

@<TRIPOS>MOLECULE
6h77_2_ATP_CAVITY_N1_6
   23     0     6     0     0
SMALL
NO_CHARGES


@<TRIPOS>ATOM
      1 OG        -12.7600   -4.6900   53.0300 O.3       1 SER1        0.0000 
      2 N          -8.4800   -8.2900   41.3100 N.am      2 ALA2        0.0000 
      3 N         -10.2000   -7.8300   42.4500 N.am      2 ALA2        0.0000 
      4 N          -9.2500   -7.0400   41.6000 N.am      2 ALA2        0.0000 
      5 N         -11.2400   -9.1400   45.3600 N.am      2 ALA2        0.0000 
      6 N         -10.2900   -8.3600   44.5000 N.am      2 ALA2        0.0000 
      7 N          -9.0100  -13.4300   46.5300 N.am      2 ALA2        0.0000 
      8 N         -14.4900   -5.2000   50.6300 N.am      2 ALA2        0.0000 
      9 O         -11.9000   -5.4100   50.6900 O.2       2 ALA2        0.0000 
     10 OD1        -9.6000  -10.1400   46.2600 O.co2     3 ASP3        0.0000 
     11 NZ        -10.3700   -8.8900   46.5600 N.4       4 LYS4        0.0000 
     12 NZ        -13.6200   -4.9400   51.8300 N.4       4 LYS4        0.0000 
     13 CA        -10.3800   -9.8600   43.0100 C.3       5 GLY6        0.0000 
     14 CA         -9.4300   -9.0800   42.1600 C.3       5 GLY6        0.0000 
     15 CA         -9.6900  -11.6500   44.7700 C.3       5 GLY6        0.0000 
     16 CA        -12.0000   -6.9200   49.1900 C.3       5 GLY6        0.0000 
     17 CA        -12.7700   -5.6600   49.4900 C.3       5 GLY6        0.0000 
     18 DU        -10.4700  -10.4000   45.0700 H         6 CUB7        0.0000 
     19 DU         -9.7800  -12.1800   46.8200 H         6 CUB7        0.0000 
     20 DU        -10.5500  -10.9300   47.1200 H         6 CUB7        0.0000 
     21 DU        -11.3200   -9.6800   47.4100 H         6 CUB7        0.0000 
     22 DU         -9.6800  -10.6800   48.3200 H         6 CUB7        0.0000 
     23 DU        -12.8500   -6.2000   51.5400 H         6 CUB7        0.0000 
@<TRIPOS>BOND
@<TRIPOS>SUBSTRUCTURE
     1 SER1        1 GROUP   
     2 ALA2        2 GROUP   
     3 ASP3       10 GROUP   
     4 LYS4       11 GROUP   
     5 GLY6       13 GROUP   
     6 CUB7       18 GROUP   
@<TRIPOS>SET

