#    Name: 6h77_2_ATP
#    Modification time : Fri May 22 19:25:36 2020

@<TRIPOS>MOLECULE
6h77_2_ATP
   31    33     1     0     1
SMALL
NO_CHARGES


@<TRIPOS>ATOM
      1 PG         -4.1360   -9.4800   46.4550 P.3       1 ATP401      0.0000 
      2 O1G        -3.2820  -10.3290   45.5740 O.co2     1 ATP401      0.0000 
      3 O2G        -5.5130   -9.2600   45.9660 O.co2     1 ATP401      0.0000 
      4 O3G        -4.1210   -9.9750   47.8470 O.co2     1 ATP401      0.0000 
      5 PB         -3.8650   -6.8750   47.4410 P.3       1 ATP401      0.0000 
      6 O1B        -5.3420   -7.0230   47.7460 O.co2     1 ATP401      0.0000 
      7 O2B        -2.9600   -6.8120   48.6160 O.co2     1 ATP401      0.0000 
      8 O3B        -3.3950   -8.0620   46.5010 O.3       1 ATP401      0.0000 
      9 PA         -4.3230   -5.2120   45.1750 P.3       1 ATP401      0.0000 
     10 O1A        -3.2530   -4.8960   44.2180 O.co2     1 ATP401      0.0000 
     11 O2A        -5.2090   -6.3790   44.8570 O.co2     1 ATP401      0.0000 
     12 O3A        -3.6110   -5.5150   46.6140 O.3       1 ATP401      0.0000 
     13 O5'        -5.4370   -4.1580   45.5890 O.3       1 ATP401      0.0000 
     14 C5'        -5.1100   -2.8270   45.5870 C.3       1 ATP401      0.0000 
     15 C4'        -5.2720   -2.2110   46.9650 C.3       1 ATP401      0.0000 
     16 O4'        -6.5390   -1.6200   47.1580 O.3       1 ATP401      0.0000 
     17 C3'        -4.9310   -2.9980   48.2290 C.3       1 ATP401      0.0000 
     18 O3'        -3.6930   -2.4490   48.6880 O.3       1 ATP401      0.0000 
     19 C2'        -6.0740   -2.6150   49.1520 C.3       1 ATP401      0.0000 
     20 O2'        -5.7460   -2.6120   50.5390 O.3       1 ATP401      0.0000 
     21 C1'        -6.5770   -1.2760   48.5670 C.3       1 ATP401      0.0000 
     22 N9         -7.8930   -1.0000   49.2120 N.pl3     1 ATP401      0.0000 
     23 C8         -8.9830   -1.7890   49.0370 C.2       1 ATP401      0.0000 
     24 N7        -10.0210   -1.3360   49.7500 N.2       1 ATP401      0.0000 
     25 C5         -9.6410   -0.2460   50.4440 C.ar      1 ATP401      0.0000 
     26 C6        -10.2770    0.6570   51.4370 C.ar      1 ATP401      0.0000 
     27 N6        -11.5550    0.5280   51.8150 N.pl3     1 ATP401      0.0000 
     28 N1         -9.5590    1.6820   51.9100 N.ar      1 ATP401      0.0000 
     29 C2         -8.2650    1.8490   51.5270 C.ar      1 ATP401      0.0000 
     30 N3         -7.6180    1.0520   50.6440 N.ar      1 ATP401      0.0000 
     31 C4         -8.2280   -0.0190   50.0760 C.ar      1 ATP401      0.0000 
@<TRIPOS>BOND
     1    1    2 ar   
     2    1    3 ar   
     3    1    4 ar   
     4    1    8 1    
     5    5    6 ar   
     6    5    7 ar   
     7    5    8 1    
     8    5   12 1    
     9    9   10 ar   
    10    9   11 ar   
    11    9   12 1    
    12    9   13 1    
    13   13   14 1    
    14   14   15 1    
    15   15   16 1    
    16   15   17 1    
    17   16   21 1    
    18   17   18 1    
    19   17   19 1    
    20   19   20 1    
    21   19   21 1    
    22   21   22 1    
    23   22   23 1    
    24   22   31 1    
    25   23   24 2    
    26   24   25 1    
    27   25   26 ar   
    28   25   31 ar   
    29   26   27 1    
    30   26   28 ar   
    31   28   29 ar   
    32   29   30 ar   
    33   30   31 ar   
@<TRIPOS>SUBSTRUCTURE
     1 ATP401      1 GROUP   
@<TRIPOS>SET
ATOM$ORANGE STATIC     ATOMS   COLORGROUP SYSTEM 
20 14 14 15 15 17 17 19 19 21 21 23 23 25 25 26 26 29 \
29 31 31 

