#    Name: 6hf3_2_FAD
#    Modification time : Fri May 22 19:37:21 2020

@<TRIPOS>MOLECULE
6hf3_2_FAD
   53    58     1     0     1
SMALL
NO_CHARGES


@<TRIPOS>ATOM
      1 PA        -12.4850  -20.4410   -4.1910 P.3       1 FAD502      0.0000 
      2 O1A       -13.6260  -21.4150   -4.0970 O.co2     1 FAD502      0.0000 
      3 O2A       -11.0600  -20.8870   -4.4370 O.co2     1 FAD502      0.0000 
      4 O5B       -12.8140  -19.2890   -5.2130 O.3       1 FAD502      0.0000 
      5 C5B       -14.1730  -18.8690   -5.2800 C.3       1 FAD502      0.0000 
      6 C4B       -14.2300  -17.5310   -5.9720 C.3       1 FAD502      0.0000 
      7 O4B       -13.5040  -16.5550   -5.2080 O.3       1 FAD502      0.0000 
      8 C3B       -13.5820  -17.6090   -7.3370 C.3       1 FAD502      0.0000 
      9 O3B       -14.3550  -16.7850   -8.2000 O.3       1 FAD502      0.0000 
     10 C2B       -12.2670  -16.9000   -7.1500 C.3       1 FAD502      0.0000 
     11 O2B       -11.8330  -16.2870   -8.3690 O.3       1 FAD502      0.0000 
     12 C1B       -12.6090  -15.8630   -6.0800 C.3       1 FAD502      0.0000 
     13 N9A       -11.4150  -15.3810   -5.3460 N.pl3     1 FAD502      0.0000 
     14 C8A       -10.7250  -16.0900   -4.4290 C.2       1 FAD502      0.0000 
     15 N7A        -9.7030  -15.3390   -3.9580 N.2       1 FAD502      0.0000 
     16 C5A        -9.7480  -14.1460   -4.5820 C.ar      1 FAD502      0.0000 
     17 C6A        -8.9640  -13.0020   -4.5040 C.ar      1 FAD502      0.0000 
     18 N6A        -7.8960  -12.9380   -3.6720 N.pl3     1 FAD502      0.0000 
     19 N1A        -9.2730  -11.9380   -5.2780 N.ar      1 FAD502      0.0000 
     20 C2A       -10.3390  -11.9810   -6.1310 C.ar      1 FAD502      0.0000 
     21 N3A       -11.1090  -13.0770   -6.2160 N.ar      1 FAD502      0.0000 
     22 C4A       -10.8370  -14.1730   -5.4580 C.ar      1 FAD502      0.0000 
     23 N1        -21.1590  -20.1970    1.0630 N.2       1 FAD502      0.0000 
     24 C2        -22.0370  -19.3850    1.6890 C.2       1 FAD502      0.0000 
     25 O2        -22.2650  -18.1490    1.1810 O.2       1 FAD502      0.0000 
     26 N3        -22.6910  -19.7740    2.8040 N.am      1 FAD502      0.0000 
     27 C4        -22.4680  -21.0010    3.3440 C.2       1 FAD502      0.0000 
     28 O4        -23.1080  -21.4250    4.4660 O.2       1 FAD502      0.0000 
     29 C4X       -21.5210  -21.9080    2.6680 C.2       1 FAD502      0.0000 
     30 N5        -21.2870  -23.1400    3.1850 N.2       1 FAD502      0.0000 
     31 C5X       -20.4030  -23.9800    2.5870 C.ar      1 FAD502      0.0000 
     32 C6        -20.1670  -25.2480    3.1130 C.ar      1 FAD502      0.0000 
     33 C7        -19.2630  -26.0960    2.4790 C.ar      1 FAD502      0.0000 
     34 C7M       -19.0050  -27.4680    3.0480 C.3       1 FAD502      0.0000 
     35 C8        -18.5480  -25.6510    1.2480 C.ar      1 FAD502      0.0000 
     36 C8M       -17.5640  -26.5690    0.5570 C.3       1 FAD502      0.0000 
     37 C9        -18.7820  -24.3850    0.7240 C.ar      1 FAD502      0.0000 
     38 C9A       -19.6900  -23.5360    1.3510 C.ar      1 FAD502      0.0000 
     39 N10       -19.9640  -22.2430    0.8400 N.pl3     1 FAD502      0.0000 
     40 C10       -20.8950  -21.4390    1.5170 C.2       1 FAD502      0.0000 
     41 C1'       -19.2950  -21.7330   -0.3630 C.3       1 FAD502      0.0000 
     42 C2'       -18.0000  -21.0200    0.0260 C.3       1 FAD502      0.0000 
     43 O2'       -18.2280  -20.2190    1.1870 O.3       1 FAD502      0.0000 
     44 C3'       -17.6030  -20.0690   -1.0890 C.3       1 FAD502      0.0000 
     45 O3'       -17.6870  -20.7210   -2.3640 O.3       1 FAD502      0.0000 
     46 C4'       -16.2290  -19.4670   -0.8600 C.3       1 FAD502      0.0000 
     47 O4'       -16.0170  -18.4980   -1.8800 O.3       1 FAD502      0.0000 
     48 C5'       -15.0820  -20.4550   -0.9560 C.3       1 FAD502      0.0000 
     49 O5'       -13.9070  -19.6670   -0.7300 O.3       1 FAD502      0.0000 
     50 P         -12.4850  -20.0930   -1.3330 P.3       1 FAD502      0.0000 
     51 O1P       -11.4140  -19.2830   -0.6380 O.co2     1 FAD502      0.0000 
     52 O2P       -12.4400  -21.5910   -1.2750 O.co2     1 FAD502      0.0000 
     53 O3P       -12.5140  -19.5270   -2.8300 O.3       1 FAD502      0.0000 
@<TRIPOS>BOND
     1    1    2 ar   
     2    1    3 ar   
     3    1    4 1    
     4    1   53 1    
     5    4    5 1    
     6    5    6 1    
     7    6    7 1    
     8    6    8 1    
     9    7   12 1    
    10    8    9 1    
    11    8   10 1    
    12   10   11 1    
    13   10   12 1    
    14   12   13 1    
    15   13   14 1    
    16   13   22 1    
    17   14   15 2    
    18   15   16 1    
    19   16   17 ar   
    20   16   22 ar   
    21   17   18 1    
    22   17   19 ar   
    23   19   20 ar   
    24   20   21 ar   
    25   21   22 ar   
    26   23   24 1    
    27   23   40 2    
    28   24   25 2    
    29   24   26 am   
    30   26   27 am   
    31   27   28 2    
    32   27   29 1    
    33   29   30 2    
    34   29   40 1    
    35   30   31 1    
    36   31   32 ar   
    37   31   38 ar   
    38   32   33 ar   
    39   33   34 1    
    40   33   35 ar   
    41   35   36 1    
    42   35   37 ar   
    43   37   38 ar   
    44   38   39 1    
    45   39   40 1    
    46   39   41 1    
    47   41   42 1    
    48   42   43 1    
    49   42   44 1    
    50   44   45 1    
    51   44   46 1    
    52   46   47 1    
    53   46   48 1    
    54   48   49 1    
    55   49   50 1    
    56   50   51 ar   
    57   50   52 ar   
    58   50   53 1    
@<TRIPOS>SUBSTRUCTURE
     1 FAD502      1 GROUP   
@<TRIPOS>SET
ATOM$ORANGE STATIC     ATOMS   COLORGROUP SYSTEM 
54 5 5 6 6 8 8 10 10 12 12 14 14 16 16 17 17 20 \
20 22 22 24 24 27 27 29 29 31 31 32 32 33 33 34 34 35 \
35 36 36 37 37 38 38 40 40 41 41 42 42 44 44 46 46 48 \
48 

