#    Name: 6hf3_1_FAD
#    Modification time : Fri May 22 19:37:17 2020

@<TRIPOS>MOLECULE
6hf3_1_FAD
   53    58     1     0     1
SMALL
NO_CHARGES


@<TRIPOS>ATOM
      1 PA          3.3750   -8.0300   41.3350 P.3       1 FAD502      0.0000 
      2 O1A         4.2440   -9.1460   41.8970 O.co2     1 FAD502      0.0000 
      3 O2A         1.9100   -7.9410   41.7340 O.co2     1 FAD502      0.0000 
      4 O5B         4.0870   -6.5970   41.5320 O.3       1 FAD502      0.0000 
      5 C5B         5.5080   -6.4410   41.4340 C.3       1 FAD502      0.0000 
      6 C4B         5.8300   -4.9540   41.3620 C.3       1 FAD502      0.0000 
      7 O4B         5.2800   -4.4060   40.1410 O.3       1 FAD502      0.0000 
      8 C3B         5.1660   -4.2090   42.5090 C.3       1 FAD502      0.0000 
      9 O3B         6.0420   -3.1910   42.9800 O.3       1 FAD502      0.0000 
     10 C2B         4.0000   -3.5050   41.8700 C.3       1 FAD502      0.0000 
     11 O2B         3.7390   -2.2580   42.5260 O.3       1 FAD502      0.0000 
     12 C1B         4.5010   -3.2640   40.4580 C.3       1 FAD502      0.0000 
     13 N9A         3.3520   -3.1230   39.5450 N.pl3     1 FAD502      0.0000 
     14 C8A         2.4910   -4.0880   39.1940 C.2       1 FAD502      0.0000 
     15 N7A         1.5770   -3.5620   38.3510 N.2       1 FAD502      0.0000 
     16 C5A         1.8840   -2.2520   38.1710 C.ar      1 FAD502      0.0000 
     17 C6A         1.3140   -1.2220   37.4280 C.ar      1 FAD502      0.0000 
     18 N6A         0.2030   -1.4630   36.6580 N.pl3     1 FAD502      0.0000 
     19 N1A         1.8830    0.0130   37.4660 N.ar      1 FAD502      0.0000 
     20 C2A         2.9760    0.2490   38.2090 C.ar      1 FAD502      0.0000 
     21 N3A         3.5460   -0.7280   38.9310 N.ar      1 FAD502      0.0000 
     22 C4A         3.0140   -1.9840   38.9240 C.ar      1 FAD502      0.0000 
     23 N1         11.4990  -12.5330   37.4630 N.2       1 FAD502      0.0000 
     24 C2         12.4840  -12.3740   36.5680 C.2       1 FAD502      0.0000 
     25 O2         12.9520  -11.1290   36.3290 O.2       1 FAD502      0.0000 
     26 N3         13.0030  -13.4180   35.9050 N.am      1 FAD502      0.0000 
     27 C4         12.5270  -14.6560   36.1190 C.2       1 FAD502      0.0000 
     28 O4         13.0240  -15.7190   35.4510 O.2       1 FAD502      0.0000 
     29 C4X        11.4590  -14.8720   37.1140 C.2       1 FAD502      0.0000 
     30 N5         10.9580  -16.1200   37.3340 N.2       1 FAD502      0.0000 
     31 C5X         9.9510  -16.2840   38.2310 C.ar      1 FAD502      0.0000 
     32 C6          9.4210  -17.5480   38.4930 C.ar      1 FAD502      0.0000 
     33 C7          8.3990  -17.6860   39.4230 C.ar      1 FAD502      0.0000 
     34 C7M         7.8260  -19.0430   39.7290 C.3       1 FAD502      0.0000 
     35 C8          7.8620  -16.4910   40.1210 C.ar      1 FAD502      0.0000 
     36 C8M         6.7630  -16.6300   41.1350 C.3       1 FAD502      0.0000 
     37 C9          8.3830  -15.2360   39.8570 C.ar      1 FAD502      0.0000 
     38 C9A         9.4200  -15.0980   38.9540 C.ar      1 FAD502      0.0000 
     39 N10         9.9690  -13.8400   38.7010 N.pl3     1 FAD502      0.0000 
     40 C10        10.9890  -13.7450   37.7610 C.2       1 FAD502      0.0000 
     41 C1'         9.4650  -12.6230   39.3470 C.3       1 FAD502      0.0000 
     42 C2'         8.3610  -11.9820   38.4780 C.3       1 FAD502      0.0000 
     43 O2'         8.7440  -12.0170   37.1110 O.3       1 FAD502      0.0000 
     44 C3'         8.2500  -10.5290   38.8830 C.3       1 FAD502      0.0000 
     45 O3'         8.1880  -10.5120   40.3040 O.3       1 FAD502      0.0000 
     46 C4'         7.0640   -9.7780   38.2570 C.3       1 FAD502      0.0000 
     47 O4'         7.1820   -8.3830   38.5970 O.3       1 FAD502      0.0000 
     48 C5'         5.7320  -10.2920   38.7910 C.3       1 FAD502      0.0000 
     49 O5'         4.6670   -9.6060   38.1220 O.3       1 FAD502      0.0000 
     50 P           3.2470   -9.3640   38.8220 P.3       1 FAD502      0.0000 
     51 O1P         2.2840   -8.9210   37.7130 O.co2     1 FAD502      0.0000 
     52 O2P         2.9180  -10.5920   39.6170 O.co2     1 FAD502      0.0000 
     53 O3P         3.4280   -8.0650   39.7210 O.3       1 FAD502      0.0000 
@<TRIPOS>BOND
     1    1   53 1    
     2    1    2 ar   
     3    1    3 ar   
     4    1    4 1    
     5    4    5 1    
     6    5    6 1    
     7    6    7 1    
     8    6    8 1    
     9    7   12 1    
    10    8    9 1    
    11    8   10 1    
    12   10   11 1    
    13   10   12 1    
    14   12   13 1    
    15   13   14 1    
    16   13   22 1    
    17   14   15 2    
    18   15   16 1    
    19   16   17 ar   
    20   16   22 ar   
    21   17   18 1    
    22   17   19 ar   
    23   19   20 ar   
    24   20   21 ar   
    25   21   22 ar   
    26   23   40 2    
    27   23   24 1    
    28   24   25 2    
    29   24   26 am   
    30   26   27 am   
    31   27   28 2    
    32   27   29 1    
    33   29   30 2    
    34   29   40 1    
    35   30   31 1    
    36   31   32 ar   
    37   31   38 ar   
    38   32   33 ar   
    39   33   34 1    
    40   33   35 ar   
    41   35   36 1    
    42   35   37 ar   
    43   37   38 ar   
    44   38   39 1    
    45   39   40 1    
    46   39   41 1    
    47   41   42 1    
    48   42   43 1    
    49   42   44 1    
    50   44   45 1    
    51   44   46 1    
    52   46   47 1    
    53   46   48 1    
    54   48   49 1    
    55   49   50 1    
    56   50   51 ar   
    57   50   52 ar   
    58   50   53 1    
@<TRIPOS>SUBSTRUCTURE
     1 FAD502      1 GROUP   
@<TRIPOS>SET
ATOM$ORANGE STATIC     ATOMS   COLORGROUP SYSTEM 
54 5 5 6 6 8 8 10 10 12 12 14 14 16 16 17 17 20 \
20 22 22 24 24 27 27 29 29 31 31 32 32 33 33 34 34 35 \
35 36 36 37 37 38 38 40 40 41 41 42 42 44 44 46 46 48 \
48 

