#    Name: 5mzg_2_2GE
#    Modification time : Fri May 22 19:13:39 2020

@<TRIPOS>MOLECULE
5mzg_2_2GE
   19    21     1     0     0
SMALL
NO_CHARGES


@<TRIPOS>ATOM
      1 C13       -32.3970   -6.8470    1.4040           1 2GE201      0.0000 
      2 C17       -30.2440  -10.3500    0.5120           1 2GE201      0.0000 
      3 N01       -30.7870   -4.0210    3.8760           1 2GE201      0.0000 
      4 C02       -31.2800   -5.0210    3.0310           1 2GE201      0.0000 
      5 N03       -32.5790   -4.9190    2.7920           1 2GE201      0.0000 
      6 C04       -33.1410   -5.8350    1.9990           1 2GE201      0.0000 
      7 C05       -34.6310   -5.6900    1.6950           1 2GE201      0.0000 
      8 C06       -35.0480   -4.4140    1.3440           1 2GE201      0.0000 
      9 C07       -36.4140   -4.1750    1.0330           1 2GE201      0.0000 
     10 C08       -37.3200   -5.1920    1.0930           1 2GE201      0.0000 
     11 C09       -36.8880   -6.4590    1.4270           1 2GE201      0.0000 
     12 CL1       -37.9810   -7.8070    1.4730           1 2GE201      0.0000 
     13 C11       -35.5500   -6.7210    1.7480           1 2GE201      0.0000 
     14 CL2       -35.1180   -8.3340    2.2060           1 2GE201      0.0000 
     15 C14       -30.9950   -6.8840    1.6870           1 2GE201      0.0000 
     16 N15       -30.2270   -7.9260    1.1560           1 2GE201      0.0000 
     17 C16       -30.7570   -8.9450    0.3070           1 2GE201      0.0000 
     18 C18       -31.6550  -10.0060    0.9380           1 2GE201      0.0000 
     19 N19       -30.4620   -5.9260    2.4710           1 2GE201      0.0000 
@<TRIPOS>BOND
     1    1    6 du   
     2    1   15 du   
     3    2   17 du   
     4    2   18 du   
     5    3    4 du   
     6    4    5 du   
     7    4   19 du   
     8    5    6 du   
     9    6    7 du   
    10    7    8 du   
    11    7   13 du   
    12    8    9 du   
    13    9   10 du   
    14   10   11 du   
    15   11   12 du   
    16   11   13 du   
    17   13   14 du   
    18   15   16 du   
    19   15   19 du   
    20   16   17 du   
    21   17   18 du   
@<TRIPOS>SUBSTRUCTURE
     1 2GE201      1 GROUP   
@<TRIPOS>SET

