#    Name: 5mzg_2_2GE_CAVITY_N1_6
#    Modification time : Fri May 22 19:13:41 2020

@<TRIPOS>MOLECULE
5mzg_2_2GE_CAVITY_N1_6
   74     0     7     0     0
SMALL
NO_CHARGES


@<TRIPOS>ATOM
      1 OG        -40.5900  -10.4100   -1.2100 O.3       1 SER1        0.0000 
      2 OG        -38.6500   -9.8400   -0.5600 O.3       1 SER1        0.0000 
      3 O         -35.5000   -8.4900    2.7200 O.2       2 ALA2        0.0000 
      4 O         -34.1700   -8.3100    2.0500 O.2       2 ALA2        0.0000 
      5 O         -34.5000   -6.8700    1.7800 O.2       2 ALA2        0.0000 
      6 O         -36.1700   -5.6100    2.1700 O.2       2 ALA2        0.0000 
      7 O         -34.8400   -5.4300    1.5000 O.2       2 ALA2        0.0000 
      8 N         -36.5000   -4.1800    1.9000 N.am      2 ALA2        0.0000 
      9 O         -32.2300   -7.7300    2.7000 O.2       2 ALA2        0.0000 
     10 O         -33.9000   -6.4800    3.0900 O.2       2 ALA2        0.0000 
     11 O         -32.9000   -4.8600    2.1500 O.2       2 ALA2        0.0000 
     12 O         -32.2900   -4.4700    3.4600 O.2       2 ALA2        0.0000 
     13 OD1       -40.7100   -9.8100    2.0900 O.co2     3 ASP3        0.0000 
     14 OD1       -41.0400   -8.3700    1.8200 O.co2     3 ASP3        0.0000 
     15 OD1       -39.1000   -7.8000    2.4600 O.co2     3 ASP3        0.0000 
     16 OD1       -37.7700   -7.6200    1.8000 O.co2     3 ASP3        0.0000 
     17 OD1       -40.7700   -6.5500    2.8600 O.co2     3 ASP3        0.0000 
     18 OD1       -39.4400   -6.3700    2.1900 O.co2     3 ASP3        0.0000 
     19 OD1       -37.1700   -7.2300    3.1100 O.co2     3 ASP3        0.0000 
     20 OD1       -37.5000   -5.7900    2.8400 O.co2     3 ASP3        0.0000 
     21 NZ        -31.2400   -6.1200    1.7500 N.4       4 LYS4        0.0000 
     22 NZ        -31.5700   -4.6800    1.4800 N.4       4 LYS4        0.0000 
     23 NZ        -30.6300   -5.7200    3.0700 N.4       4 LYS4        0.0000 
     24 NZ        -30.9600   -4.2900    2.8000 N.4       4 LYS4        0.0000 
     25 CZ        -39.9800  -10.0200    0.1100 C.ar      5 PHE5        0.0000 
     26 CZ        -40.3200   -8.5800   -0.1700 C.ar      5 PHE5        0.0000 
     27 CZ        -38.0500   -9.4500    0.7500 C.ar      5 PHE5        0.0000 
     28 CZ        -39.7100   -8.1900    1.1500 C.ar      5 PHE5        0.0000 
     29 CZ        -38.3800   -8.0100    0.4800 C.ar      5 PHE5        0.0000 
     30 CZ        -40.0400   -6.7600    0.8800 C.ar      5 PHE5        0.0000 
     31 CZ        -31.4500  -11.2100   -0.0600 C.ar      5 PHE5        0.0000 
     32 CZ        -30.4500   -9.5900   -1.0000 C.ar      5 PHE5        0.0000 
     33 CZ        -37.4400   -9.0600    2.0700 C.ar      5 PHE5        0.0000 
     34 CZ        -36.1100   -8.8800    1.4000 C.ar      5 PHE5        0.0000 
     35 CZ        -38.1100   -6.1800    1.5200 C.ar      5 PHE5        0.0000 
     36 CZ        -36.7700   -6.0000    0.8600 C.ar      5 PHE5        0.0000 
     37 CZ        -30.8400  -10.8200    1.2600 C.ar      5 PHE5        0.0000 
     38 CZ        -32.5100   -9.5600    1.6500 C.ar      5 PHE5        0.0000 
     39 CZ        -31.1800   -9.3800    0.9900 C.ar      5 PHE5        0.0000 
     40 CZ        -29.8500   -9.2000    0.3200 C.ar      5 PHE5        0.0000 
     41 CZ        -32.8400   -8.1200    1.3800 C.ar      5 PHE5        0.0000 
     42 CZ        -31.5100   -7.9400    0.7100 C.ar      5 PHE5        0.0000 
     43 CZ        -30.1800   -7.7600    0.0400 C.ar      5 PHE5        0.0000 
     44 CZ        -31.8400   -6.5100    0.4400 C.ar      5 PHE5        0.0000 
     45 CZ        -32.1800   -5.0700    0.1700 C.ar      5 PHE5        0.0000 
     46 CZ        -30.5700   -8.9900    2.3000 C.ar      5 PHE5        0.0000 
     47 CZ        -30.9000   -7.5500    2.0300 C.ar      5 PHE5        0.0000 
     48 CZ        -32.5700   -6.3000    2.4200 C.ar      5 PHE5        0.0000 
     49 CZ        -30.2400   -4.5000    0.8100 C.ar      5 PHE5        0.0000 
     50 CA        -39.6500  -11.4600    0.3800 C.3       6 GLY6        0.0000 
     51 CA        -37.3200   -9.6600   -1.2300 C.3       6 GLY6        0.0000 
     52 CA        -39.3800   -9.6300    1.4200 C.3       6 GLY6        0.0000 
     53 CA        -36.7200   -9.2700    0.0900 C.3       6 GLY6        0.0000 
     54 CA        -37.0500   -7.8300   -0.1900 C.3       6 GLY6        0.0000 
     55 CA        -41.3700   -6.9400    1.5400 C.3       6 GLY6        0.0000 
     56 CA        -33.1100   -9.9500    0.3400 C.3       6 GLY6        0.0000 
     57 CA        -31.7800   -9.7700   -0.3300 C.3       6 GLY6        0.0000 
     58 CA        -34.7800   -8.7000    0.7300 C.3       6 GLY6        0.0000 
     59 CA        -32.1200   -8.3300   -0.6000 C.3       6 GLY6        0.0000 
     60 CA        -36.4400   -7.4400    1.1300 C.3       6 GLY6        0.0000 
     61 CA        -35.1100   -7.2600    0.4600 C.3       6 GLY6        0.0000 
     62 CA        -35.4400   -5.8200    0.1900 C.3       6 GLY6        0.0000 
     63 CA        -38.4400   -4.7500    1.2500 C.3       6 GLY6        0.0000 
     64 CA        -37.1100   -4.5700    0.5800 C.3       6 GLY6        0.0000 
     65 CA        -35.7800   -4.3800   -0.0900 C.3       6 GLY6        0.0000 
     66 CA        -33.1700   -6.6900    1.1100 C.3       6 GLY6        0.0000 
     67 CA        -33.5100   -5.2500    0.8300 C.3       6 GLY6        0.0000 
     68 CA        -35.1700   -3.9900    1.2300 C.3       6 GLY6        0.0000 
     69 CA        -33.8400   -3.8100    0.5600 C.3       6 GLY6        0.0000 
     70 CA        -35.8900   -3.7900    3.2100 C.3       6 GLY6        0.0000 
     71 CA        -34.5600   -3.6000    2.5400 C.3       6 GLY6        0.0000 
     72 CA        -33.2300   -3.4200    1.8800 C.3       6 GLY6        0.0000 
     73 CA        -31.9000   -3.2400    1.2100 C.3       6 GLY6        0.0000 
     74 DU        -35.8300   -7.0500    2.4400 H         7 CUB7        0.0000 
@<TRIPOS>BOND
@<TRIPOS>SUBSTRUCTURE
     1 SER1        1 GROUP   
     2 ALA2        3 GROUP   
     3 ASP3       13 GROUP   
     4 LYS4       21 GROUP   
     5 PHE5       25 GROUP   
     6 GLY6       50 GROUP   
     7 CUB7       74 GROUP   
@<TRIPOS>SET

