#    Name: 5yto_3_PS5_CAVITY_N1_8
#    Modification time : Fri May 22 19:24:54 2020

@<TRIPOS>MOLECULE
5yto_3_PS5_CAVITY_N1_8
   75     0     4     0     0
SMALL
NO_CHARGES


@<TRIPOS>ATOM
      1 N          57.2900   46.0400    3.5100 N.am      1 ALA2        0.0000 
      2 O          53.8100   48.0500    6.0400 O.2       1 ALA2        0.0000 
      3 N          57.8900   47.0900    4.4100 N.am      1 ALA2        0.0000 
      4 O          53.6200   49.0800    4.9600 O.2       1 ALA2        0.0000 
      5 N          57.7000   48.1100    3.3300 N.am      1 ALA2        0.0000 
      6 O          53.4300   50.1000    3.8800 O.2       1 ALA2        0.0000 
      7 N          54.0400   51.1500    4.7700 N.am      1 ALA2        0.0000 
      8 N          55.4000   50.8300    4.2300 N.am      1 ALA2        0.0000 
      9 N          57.7400   49.5000    6.7300 N.am      1 ALA2        0.0000 
     10 N          59.1000   49.1800    6.1900 N.am      1 ALA2        0.0000 
     11 N          54.8300   51.1700    6.7400 N.am      1 ALA2        0.0000 
     12 N          56.1900   50.8500    6.2000 N.am      1 ALA2        0.0000 
     13 N          56.0000   51.8700    5.1200 N.am      1 ALA2        0.0000 
     14 O          57.1700   52.5800    3.5000 O.2       1 ALA2        0.0000 
     15 N          58.5300   49.5200    8.7000 N.am      1 ALA2        0.0000 
     16 N          59.7000   50.2200    7.0800 N.am      1 ALA2        0.0000 
     17 N          61.0600   49.9000    6.5400 N.am      1 ALA2        0.0000 
     18 N          56.7900   51.8900    7.0900 N.am      1 ALA2        0.0000 
     19 N          58.1500   51.5700    6.5400 N.am      1 ALA2        0.0000 
     20 N          60.8700   50.9300    5.4600 N.am      1 ALA2        0.0000 
     21 N          57.9600   52.6000    5.4700 N.am      1 ALA2        0.0000 
     22 N          59.1400   53.3000    3.8500 N.am      1 ALA2        0.0000 
     23 N          58.9400   51.5900    8.5100 N.am      1 ALA2        0.0000 
     24 N          61.6600   50.9500    7.4300 N.am      1 ALA2        0.0000 
     25 N          58.7500   52.6200    7.4400 N.am      1 ALA2        0.0000 
     26 N          58.5700   53.6400    6.3600 N.am      1 ALA2        0.0000 
     27 N          59.7400   54.3500    4.7400 N.am      1 ALA2        0.0000 
     28 N          59.3600   53.6600    8.3300 N.am      1 ALA2        0.0000 
     29 N          60.3400   55.3900    5.6300 N.am      1 ALA2        0.0000 
     30 N          63.8500   54.7700    6.5100 N.am      1 ALA2        0.0000 
     31 N          62.3000   56.1200    5.9800 N.am      1 ALA2        0.0000 
     32 OD1        54.7500   45.6600    5.6800 O.co2     2 ASP3        0.0000 
     33 OD1        55.3600   46.7000    6.5700 O.co2     2 ASP3        0.0000 
     34 OD1        62.4900   55.0900    7.0500 O.co2     2 ASP3        0.0000 
     35 CA         55.3300   45.3200    3.1700 C.3       3 GLY6        0.0000 
     36 CA         53.2100   47.0100    5.1400 C.3       3 GLY6        0.0000 
     37 CA         54.5700   46.6900    4.6000 C.3       3 GLY6        0.0000 
     38 CA         55.9300   46.3600    4.0600 C.3       3 GLY6        0.0000 
     39 CA         55.7400   47.3900    2.9800 C.3       3 GLY6        0.0000 
     40 CA         54.0000   47.0300    7.1100 C.3       3 GLY6        0.0000 
     41 CA         55.1700   47.7300    5.4900 C.3       3 GLY6        0.0000 
     42 CA         54.9800   48.7600    4.4100 C.3       3 GLY6        0.0000 
     43 CA         54.7900   49.7800    3.3400 C.3       3 GLY6        0.0000 
     44 CA         54.6100   50.8100    2.2600 C.3       3 GLY6        0.0000 
     45 CA         54.4100   49.1000    6.9300 C.3       3 GLY6        0.0000 
     46 CA         58.4900   48.1300    5.3000 C.3       3 GLY6        0.0000 
     47 CA         54.2200   50.1200    5.8500 C.3       3 GLY6        0.0000 
     48 CA         56.5600   48.7900    8.3500 C.3       3 GLY6        0.0000 
     49 CA         55.0100   50.1400    7.8200 C.3       3 GLY6        0.0000 
     50 CA         57.1700   49.8400    9.2400 C.3       3 GLY6        0.0000 
     51 CA         56.9800   50.8700    8.1700 C.3       3 GLY6        0.0000 
     52 CA         59.1300   50.5600    9.5900 C.3       3 GLY6        0.0000 
     53 CA         57.5800   51.9100    9.0600 C.3       3 GLY6        0.0000 
     54 CA         60.3000   51.2700    7.9700 C.3       3 GLY6        0.0000 
     55 CA         60.9000   52.3200    8.8600 C.3       3 GLY6        0.0000 
     56 CA         60.7200   53.3400    7.7800 C.3       3 GLY6        0.0000 
     57 CA         62.0800   53.0200    7.2400 C.3       3 GLY6        0.0000 
     58 CA         59.1700   54.6900    7.2500 C.3       3 GLY6        0.0000 
     59 CA         60.5300   54.3700    6.7100 C.3       3 GLY6        0.0000 
     60 DU         56.5300   47.4100    4.9500 H         4 CUB7        0.0000 
     61 DU         56.3400   48.4400    3.8700 H         4 CUB7        0.0000 
     62 DU         55.7700   48.7800    6.3800 H         4 CUB7        0.0000 
     63 DU         57.1300   48.4500    5.8400 H         4 CUB7        0.0000 
     64 DU         55.5800   49.8000    5.3100 H         4 CUB7        0.0000 
     65 DU         58.3100   49.1600    4.2200 H         4 CUB7        0.0000 
     66 DU         56.3800   49.8200    7.2700 H         4 CUB7        0.0000 
     67 DU         57.5500   50.5300    5.6500 H         4 CUB7        0.0000 
     68 DU         58.9100   50.2100    5.1100 H         4 CUB7        0.0000 
     69 DU         58.3400   50.5500    7.6200 H         4 CUB7        0.0000 
     70 DU         59.5100   51.2500    6.0000 H         4 CUB7        0.0000 
     71 DU         59.3200   52.2800    4.9200 H         4 CUB7        0.0000 
     72 DU         60.1100   52.3000    6.8900 H         4 CUB7        0.0000 
     73 DU         61.4700   51.9700    6.3500 H         4 CUB7        0.0000 
     74 DU         59.9300   53.3200    5.8200 H         4 CUB7        0.0000 
     75 DU         61.8900   54.0500    6.1600 H         4 CUB7        0.0000 
@<TRIPOS>BOND
@<TRIPOS>SUBSTRUCTURE
     1 ALA2        1 GROUP   
     2 ASP3       32 GROUP   
     3 GLY6       35 GROUP   
     4 CUB7       60 GROUP   
@<TRIPOS>SET

