#    Name: 5yto_3_PS5
#    Modification time : Fri May 22 19:24:54 2020

@<TRIPOS>MOLECULE
5yto_3_PS5
    5     4     1     0     0
SMALL
NO_CHARGES


@<TRIPOS>ATOM
      1 S1         61.2300   52.7480    7.8040 S.3       1 PS5202      0.0000 
      2 S2         59.3510   52.7150    8.2550 S.3       1 PS5202      0.0000 
      3 S3         58.8670   50.7610    8.1380 S.3       1 PS5202      0.0000 
      4 S4         57.0440   50.8930    7.2960 S.3       1 PS5202      0.0000 
      5 S5         56.4490   49.0710    7.2810 S.3       1 PS5202      0.0000 
@<TRIPOS>BOND
     1    1    2 1    
     2    2    3 1    
     3    3    4 1    
     4    4    5 1    
@<TRIPOS>SUBSTRUCTURE
     1 PS5202      1 GROUP   
@<TRIPOS>SET

