#    Name: 5oqu_1_ADP
#    Modification time : Fri May 22 19:12:26 2020

@<TRIPOS>MOLECULE
5oqu_1_ADP
   27    29     1     0     1
SMALL
NO_CHARGES


@<TRIPOS>ATOM
      1 PB         16.9090  130.0240  356.9890 P.3       1 ADP401      0.0000 
      2 O1B        16.3230  130.1290  355.5360 O.co2     1 ADP401      0.0000 
      3 O2B        17.5550  128.6220  357.1390 O.co2     1 ADP401      0.0000 
      4 O3B        17.9520  131.0830  357.3070 O.co2     1 ADP401      0.0000 
      5 PA         14.4000  131.0540  358.2160 P.3       1 ADP401      0.0000 
      6 O1A        14.2630  132.0440  357.0440 O.co2     1 ADP401      0.0000 
      7 O2A        14.5370  131.8420  359.4670 O.co2     1 ADP401      0.0000 
      8 O3A        15.6640  130.0980  357.9910 O.3       1 ADP401      0.0000 
      9 O5'        13.0920  130.1050  358.1300 O.3       1 ADP401      0.0000 
     10 C5'        12.7620  129.2930  356.9810 C.3       1 ADP401      0.0000 
     11 C4'        11.2650  129.1990  356.8080 C.3       1 ADP401      0.0000 
     12 O4'        10.6390  128.7310  358.0260 O.3       1 ADP401      0.0000 
     13 C3'        10.5500  130.5030  356.4860 C.3       1 ADP401      0.0000 
     14 O3'        10.7150  130.8670  355.1220 O.3       1 ADP401      0.0000 
     15 C2'         9.1200  130.2070  356.9460 C.3       1 ADP401      0.0000 
     16 O2'         8.3760  129.4410  355.9990 O.3       1 ADP401      0.0000 
     17 C1'         9.3790  129.3640  358.2040 C.3       1 ADP401      0.0000 
     18 N9          9.3880  130.1250  359.4580 N.pl3     1 ADP401      0.0000 
     19 C8         10.4850  130.5670  360.1550 C.2       1 ADP401      0.0000 
     20 N7         10.1950  131.2630  361.2260 N.2       1 ADP401      0.0000 
     21 C5          8.8070  131.2690  361.2480 C.ar      1 ADP401      0.0000 
     22 C6          7.8750  131.7480  362.1930 C.ar      1 ADP401      0.0000 
     23 N6          8.2180  132.3740  363.3140 N.pl3     1 ADP401      0.0000 
     24 N1          6.5620  131.5010  361.9650 N.ar      1 ADP401      0.0000 
     25 C2          6.2140  130.8250  360.8640 C.ar      1 ADP401      0.0000 
     26 N3          6.9990  130.3260  359.9090 N.ar      1 ADP401      0.0000 
     27 C4          8.2960  130.5760  360.1620 C.ar      1 ADP401      0.0000 
@<TRIPOS>BOND
     1    1    2 ar   
     2    1    3 ar   
     3    1    4 ar   
     4    1    8 1    
     5    5    6 ar   
     6    5    7 ar   
     7    5    8 1    
     8    5    9 1    
     9    9   10 1    
    10   10   11 1    
    11   11   12 1    
    12   11   13 1    
    13   12   17 1    
    14   13   14 1    
    15   13   15 1    
    16   15   16 1    
    17   15   17 1    
    18   17   18 1    
    19   18   19 1    
    20   18   27 1    
    21   19   20 2    
    22   20   21 1    
    23   21   22 ar   
    24   21   27 ar   
    25   22   23 1    
    26   22   24 ar   
    27   24   25 ar   
    28   25   26 ar   
    29   26   27 ar   
@<TRIPOS>SUBSTRUCTURE
     1 ADP401      1 GROUP   
@<TRIPOS>SET
ATOM$ORANGE STATIC     ATOMS   COLORGROUP SYSTEM 
20 10 10 11 11 13 13 15 15 17 17 19 19 21 21 22 22 25 \
25 27 27 

