#    Name: 5oqu_2_ADP
#    Modification time : Fri May 22 19:12:32 2020

@<TRIPOS>MOLECULE
5oqu_2_ADP
   27    29     1     0     1
SMALL
NO_CHARGES


@<TRIPOS>ATOM
      1 PB         38.4990  118.5820  392.2890 P.3       1 ADP401      0.0000 
      2 O1B        37.6050  117.4990  391.7940 O.co2     1 ADP401      0.0000 
      3 O2B        39.9160  118.1540  392.4720 O.co2     1 ADP401      0.0000 
      4 O3B        37.9630  119.3390  393.4570 O.co2     1 ADP401      0.0000 
      5 PA         37.5040  120.8220  390.8310 P.3       1 ADP401      0.0000 
      6 O1A        36.9330  120.7350  389.4600 O.co2     1 ADP401      0.0000 
      7 O2A        36.6100  120.9530  392.0130 O.co2     1 ADP401      0.0000 
      8 O3A        38.5250  119.6200  391.0740 O.3       1 ADP401      0.0000 
      9 O5'        38.4840  122.0670  390.8890 O.3       1 ADP401      0.0000 
     10 C5'        39.2700  122.1850  392.0580 C.3       1 ADP401      0.0000 
     11 C4'        39.5740  123.6380  392.3180 C.3       1 ADP401      0.0000 
     12 O4'        40.1200  124.1730  391.1420 O.3       1 ADP401      0.0000 
     13 C3'        38.3570  124.4790  392.5820 C.3       1 ADP401      0.0000 
     14 O3'        38.0950  124.5630  393.9780 O.3       1 ADP401      0.0000 
     15 C2'        38.7590  125.8290  392.0500 C.3       1 ADP401      0.0000 
     16 O2'        39.5260  126.5520  393.0030 O.3       1 ADP401      0.0000 
     17 C1'        39.6830  125.4940  390.9250 C.3       1 ADP401      0.0000 
     18 N9         38.8840  125.5040  389.7010 N.pl3     1 ADP401      0.0000 
     19 C8         38.3270  124.4550  389.1030 C.2       1 ADP401      0.0000 
     20 N7         37.6550  124.8420  387.9990 N.2       1 ADP401      0.0000 
     21 C5         37.7880  126.1590  387.8870 C.ar      1 ADP401      0.0000 
     22 C6         37.3490  127.2090  386.9620 C.ar      1 ADP401      0.0000 
     23 N6         36.5990  126.9650  385.8810 N.pl3     1 ADP401      0.0000 
     24 N1         37.7140  128.4570  387.2350 N.ar      1 ADP401      0.0000 
     25 C2         38.4600  128.7760  388.2930 C.ar      1 ADP401      0.0000 
     26 N3         38.9010  127.8820  389.1660 N.ar      1 ADP401      0.0000 
     27 C4         38.5970  126.5840  389.0160 C.ar      1 ADP401      0.0000 
@<TRIPOS>BOND
     1    1    2 ar   
     2    1    3 ar   
     3    1    4 ar   
     4    1    8 1    
     5    5    6 ar   
     6    5    7 ar   
     7    5    8 1    
     8    5    9 1    
     9    9   10 1    
    10   10   11 1    
    11   11   12 1    
    12   11   13 1    
    13   12   17 1    
    14   13   14 1    
    15   13   15 1    
    16   15   16 1    
    17   15   17 1    
    18   17   18 1    
    19   18   19 1    
    20   18   27 1    
    21   19   20 2    
    22   20   21 1    
    23   21   22 ar   
    24   21   27 ar   
    25   22   23 1    
    26   22   24 ar   
    27   24   25 ar   
    28   25   26 ar   
    29   26   27 ar   
@<TRIPOS>SUBSTRUCTURE
     1 ADP401      1 GROUP   
@<TRIPOS>SET
ATOM$ORANGE STATIC     ATOMS   COLORGROUP SYSTEM 
20 10 10 11 11 13 13 15 15 17 17 19 19 21 21 22 22 25 \
25 27 27 

