#    Name: 6f32_1_FAD
#    Modification time : Fri May 22 19:32:03 2020

@<TRIPOS>MOLECULE
6f32_1_FAD
   53    58     1     0     1
SMALL
NO_CHARGES


@<TRIPOS>ATOM
      1 PA         32.4220    5.0930  -41.5970 P.3       1 FAD601      0.0000 
      2 O1A        32.9360    4.3270  -40.4340 O.co2     1 FAD601      0.0000 
      3 O2A        30.9040    5.2920  -41.4890 O.co2     1 FAD601      0.0000 
      4 O5B        32.7600    4.4980  -43.0230 O.3       1 FAD601      0.0000 
      5 C5B        33.9310    3.6760  -43.1660 C.3       1 FAD601      0.0000 
      6 C4B        33.5480    2.5500  -44.0870 C.3       1 FAD601      0.0000 
      7 O4B        34.7420    1.9890  -44.6860 O.3       1 FAD601      0.0000 
      8 C3B        32.7860    1.3850  -43.4360 C.3       1 FAD601      0.0000 
      9 O3B        31.6140    1.0790  -44.1840 O.3       1 FAD601      0.0000 
     10 C2B        33.8150    0.2420  -43.4590 C.3       1 FAD601      0.0000 
     11 O2B        33.2650   -1.0710  -43.5150 O.3       1 FAD601      0.0000 
     12 C1B        34.5940    0.5850  -44.7170 C.3       1 FAD601      0.0000 
     13 N9A        35.9010   -0.0390  -44.8230 N.pl3     1 FAD601      0.0000 
     14 C8A        36.7480   -0.4120  -43.8080 C.2       1 FAD601      0.0000 
     15 N7A        37.7970   -1.0970  -44.1980 N.2       1 FAD601      0.0000 
     16 C5A        37.6370   -1.1660  -45.5770 C.ar      1 FAD601      0.0000 
     17 C6A        38.4230   -1.7580  -46.5900 C.ar      1 FAD601      0.0000 
     18 N6A        39.5580   -2.4280  -46.3500 N.pl3     1 FAD601      0.0000 
     19 N1A        38.0080   -1.6130  -47.8710 N.ar      1 FAD601      0.0000 
     20 C2A        36.8850   -0.9290  -48.1120 C.ar      1 FAD601      0.0000 
     21 N3A        36.0550   -0.3470  -47.2410 N.ar      1 FAD601      0.0000 
     22 C4A        36.4920   -0.5110  -45.9790 C.ar      1 FAD601      0.0000 
     23 N1         27.5180   11.3500  -36.4990 N.2       1 FAD601      0.0000 
     24 C2         26.4640   12.2530  -36.4720 C.2       1 FAD601      0.0000 
     25 O2         26.4680   13.2990  -37.1370 O.2       1 FAD601      0.0000 
     26 N3         25.3740   12.0170  -35.6330 N.am      1 FAD601      0.0000 
     27 C4         25.2210   10.9300  -34.7860 C.2       1 FAD601      0.0000 
     28 O4         24.2150   10.8300  -34.0800 O.2       1 FAD601      0.0000 
     29 C4X        26.3420    9.9840  -34.8050 C.2       1 FAD601      0.0000 
     30 N5         26.2690    8.9220  -34.0310 N.2       1 FAD601      0.0000 
     31 C5X        27.3200    8.0260  -34.0640 C.ar      1 FAD601      0.0000 
     32 C6         27.2480    6.8710  -33.2640 C.ar      1 FAD601      0.0000 
     33 C7         28.2290    5.8890  -33.3090 C.ar      1 FAD601      0.0000 
     34 C7M        28.1050    4.6850  -32.4040 C.3       1 FAD601      0.0000 
     35 C8         29.3230    6.0420  -34.1850 C.ar      1 FAD601      0.0000 
     36 C8M        30.3990    4.9910  -34.2780 C.3       1 FAD601      0.0000 
     37 C9         29.4130    7.1950  -34.9650 C.ar      1 FAD601      0.0000 
     38 C9A        28.4550    8.1870  -34.9010 C.ar      1 FAD601      0.0000 
     39 N10        28.4880    9.4000  -35.6900 N.pl3     1 FAD601      0.0000 
     40 C10        27.4620   10.2850  -35.6900 C.2       1 FAD601      0.0000 
     41 C1'        29.6900    9.8080  -36.4760 C.3       1 FAD601      0.0000 
     42 C2'        30.0780    8.9410  -37.6690 C.3       1 FAD601      0.0000 
     43 O2'        31.3950    8.4190  -37.4800 O.3       1 FAD601      0.0000 
     44 C3'        29.9830    9.6720  -39.0130 C.3       1 FAD601      0.0000 
     45 O3'        28.7470   10.3510  -39.0670 O.3       1 FAD601      0.0000 
     46 C4'        30.0490    8.8760  -40.3130 C.3       1 FAD601      0.0000 
     47 O4'        30.3870    7.5550  -39.9060 O.3       1 FAD601      0.0000 
     48 C5'        31.1060    9.3770  -41.2690 C.3       1 FAD601      0.0000 
     49 O5'        31.1880    8.2440  -42.1760 O.3       1 FAD601      0.0000 
     50 P          32.5720    7.6640  -42.7750 P.3       1 FAD601      0.0000 
     51 O1P        32.1510    7.0730  -44.0610 O.co2     1 FAD601      0.0000 
     52 O2P        33.5750    8.8220  -42.9720 O.co2     1 FAD601      0.0000 
     53 O3P        33.0720    6.5390  -41.7600 O.3       1 FAD601      0.0000 
@<TRIPOS>BOND
     1    1    2 ar   
     2    1    3 ar   
     3    1    4 1    
     4    1   53 1    
     5    4    5 1    
     6    5    6 1    
     7    6    7 1    
     8    6    8 1    
     9    7   12 1    
    10    8    9 1    
    11    8   10 1    
    12   10   11 1    
    13   10   12 1    
    14   12   13 1    
    15   13   14 1    
    16   13   22 1    
    17   14   15 2    
    18   15   16 1    
    19   16   17 ar   
    20   16   22 ar   
    21   17   18 1    
    22   17   19 ar   
    23   19   20 ar   
    24   20   21 ar   
    25   21   22 ar   
    26   23   24 1    
    27   23   40 2    
    28   24   25 2    
    29   24   26 am   
    30   26   27 am   
    31   27   28 2    
    32   27   29 1    
    33   29   30 2    
    34   29   40 1    
    35   30   31 1    
    36   31   32 ar   
    37   31   38 ar   
    38   32   33 ar   
    39   33   34 1    
    40   33   35 ar   
    41   35   36 1    
    42   35   37 ar   
    43   37   38 ar   
    44   38   39 1    
    45   39   40 1    
    46   39   41 1    
    47   41   42 1    
    48   42   43 1    
    49   42   44 1    
    50   44   45 1    
    51   44   46 1    
    52   46   47 1    
    53   46   48 1    
    54   48   49 1    
    55   49   50 1    
    56   50   51 ar   
    57   50   52 ar   
    58   50   53 1    
@<TRIPOS>SUBSTRUCTURE
     1 FAD601      1 GROUP   
@<TRIPOS>SET
ATOM$ORANGE STATIC     ATOMS   COLORGROUP SYSTEM 
54 5 5 6 6 8 8 10 10 12 12 14 14 16 16 17 17 20 \
20 22 22 24 24 27 27 29 29 31 31 32 32 33 33 34 34 35 \
35 36 36 37 37 38 38 40 40 41 41 42 42 44 44 46 46 48 \
48 

