#    Name: 6f32_2_FAD
#    Modification time : Fri May 22 19:32:09 2020

@<TRIPOS>MOLECULE
6f32_2_FAD
   53    58     1     0     1
SMALL
NO_CHARGES


@<TRIPOS>ATOM
      1 PA          8.1980   51.4130  -20.7270 P.3       1 FAD601      0.0000 
      2 O1A         6.7370   51.1590  -20.6940 O.co2     1 FAD601      0.0000 
      3 O2A         8.9510   50.3690  -19.9040 O.co2     1 FAD601      0.0000 
      4 O5B         8.6540   52.8550  -20.2440 O.3       1 FAD601      0.0000 
      5 C5B         7.7150   53.9400  -20.3460 C.3       1 FAD601      0.0000 
      6 C4B         7.8690   54.7660  -19.0990 C.3       1 FAD601      0.0000 
      7 O4B         7.3930   56.1100  -19.3490 O.3       1 FAD601      0.0000 
      8 C3B         7.1230   54.2570  -17.8580 C.3       1 FAD601      0.0000 
      9 O3B         8.0070   54.2160  -16.7440 O.3       1 FAD601      0.0000 
     10 C2B         6.0130   55.2990  -17.6630 C.3       1 FAD601      0.0000 
     11 O2B         5.5700   55.4930  -16.3210 O.3       1 FAD601      0.0000 
     12 C1B         6.6940   56.5410  -18.2010 C.3       1 FAD601      0.0000 
     13 N9A         5.7940   57.6340  -18.5700 N.pl3     1 FAD601      0.0000 
     14 C8A         4.4980   57.5240  -19.0270 C.2       1 FAD601      0.0000 
     15 N7A         3.8800   58.6760  -19.1190 N.2       1 FAD601      0.0000 
     16 C5A         4.8330   59.6110  -18.7380 C.ar      1 FAD601      0.0000 
     17 C6A         4.8070   61.0100  -18.6290 C.ar      1 FAD601      0.0000 
     18 N6A         3.7380   61.7510  -18.9100 N.pl3     1 FAD601      0.0000 
     19 N1A         5.9450   61.6380  -18.2370 N.ar      1 FAD601      0.0000 
     20 C2A         7.0290   60.8990  -17.9760 C.ar      1 FAD601      0.0000 
     21 N3A         7.1670   59.5730  -18.0250 N.ar      1 FAD601      0.0000 
     22 C4A         6.0230   58.9690  -18.4160 C.ar      1 FAD601      0.0000 
     23 N1         10.6440   42.5460  -22.9670 N.2       1 FAD601      0.0000 
     24 C2         11.6220   41.5880  -22.9420 C.2       1 FAD601      0.0000 
     25 O2         12.6610   41.6950  -23.6040 O.2       1 FAD601      0.0000 
     26 N3         11.4420   40.4270  -22.1970 N.am      1 FAD601      0.0000 
     27 C4         10.3120   40.0960  -21.4700 C.2       1 FAD601      0.0000 
     28 O4         10.2700   39.0360  -20.8430 O.2       1 FAD601      0.0000 
     29 C4X         9.2530   41.1080  -21.5160 C.2       1 FAD601      0.0000 
     30 N5          8.1450   40.8800  -20.8440 N.2       1 FAD601      0.0000 
     31 C5X         7.1920   41.8890  -20.8110 C.ar      1 FAD601      0.0000 
     32 C6          6.0310   41.6920  -20.0480 C.ar      1 FAD601      0.0000 
     33 C7          5.0480   42.6710  -19.9490 C.ar      1 FAD601      0.0000 
     34 C7M         3.8000   42.3910  -19.1450 C.3       1 FAD601      0.0000 
     35 C8          5.2200   43.8930  -20.6270 C.ar      1 FAD601      0.0000 
     36 C8M         4.1540   44.9600  -20.5770 C.3       1 FAD601      0.0000 
     37 C9          6.3740   44.0980  -21.3830 C.ar      1 FAD601      0.0000 
     38 C9A         7.3510   43.1130  -21.4970 C.ar      1 FAD601      0.0000 
     39 N10         8.5470   43.2720  -22.2760 N.pl3     1 FAD601      0.0000 
     40 C10         9.5170   42.3170  -22.2850 C.2       1 FAD601      0.0000 
     41 C1'         8.7320   44.3990  -23.2300 C.3       1 FAD601      0.0000 
     42 C2'         8.8510   45.8090  -22.6580 C.3       1 FAD601      0.0000 
     43 O2'         7.8140   46.6250  -23.1980 O.3       1 FAD601      0.0000 
     44 C3'        10.2140   46.4600  -22.9010 C.3       1 FAD601      0.0000 
     45 O3'        11.2030   45.4830  -22.6670 O.3       1 FAD601      0.0000 
     46 C4'        10.6380   47.6960  -22.1000 C.3       1 FAD601      0.0000 
     47 O4'         9.9970   47.8280  -20.8330 O.3       1 FAD601      0.0000 
     48 C5'        10.3940   48.9750  -22.8310 C.3       1 FAD601      0.0000 
     49 O5'        10.9420   50.0170  -22.0610 O.3       1 FAD601      0.0000 
     50 P          10.3830   51.4330  -22.5110 P.3       1 FAD601      0.0000 
     51 O1P        11.0190   52.4590  -21.6740 O.co2     1 FAD601      0.0000 
     52 O2P        10.7160   51.7260  -23.9870 O.co2     1 FAD601      0.0000 
     53 O3P         8.8200   51.4040  -22.1930 O.3       1 FAD601      0.0000 
@<TRIPOS>BOND
     1    1    2 ar   
     2    1    3 ar   
     3    1    4 1    
     4    1   53 1    
     5    4    5 1    
     6    5    6 1    
     7    6    7 1    
     8    6    8 1    
     9    7   12 1    
    10    8    9 1    
    11    8   10 1    
    12   10   11 1    
    13   10   12 1    
    14   12   13 1    
    15   13   14 1    
    16   13   22 1    
    17   14   15 2    
    18   15   16 1    
    19   16   17 ar   
    20   16   22 ar   
    21   17   18 1    
    22   17   19 ar   
    23   19   20 ar   
    24   20   21 ar   
    25   21   22 ar   
    26   23   24 1    
    27   23   40 2    
    28   24   25 2    
    29   24   26 am   
    30   26   27 am   
    31   27   28 2    
    32   27   29 1    
    33   29   30 2    
    34   29   40 1    
    35   30   31 1    
    36   31   32 ar   
    37   31   38 ar   
    38   32   33 ar   
    39   33   34 1    
    40   33   35 ar   
    41   35   36 1    
    42   35   37 ar   
    43   37   38 ar   
    44   38   39 1    
    45   39   40 1    
    46   39   41 1    
    47   41   42 1    
    48   42   43 1    
    49   42   44 1    
    50   44   45 1    
    51   44   46 1    
    52   46   47 1    
    53   46   48 1    
    54   48   49 1    
    55   49   50 1    
    56   50   51 ar   
    57   50   52 ar   
    58   50   53 1    
@<TRIPOS>SUBSTRUCTURE
     1 FAD601      1 GROUP   
@<TRIPOS>SET
ATOM$ORANGE STATIC     ATOMS   COLORGROUP SYSTEM 
54 5 5 6 6 8 8 10 10 12 12 14 14 16 16 17 17 20 \
20 22 22 24 24 27 27 29 29 31 31 32 32 33 33 34 34 35 \
35 36 36 37 37 38 38 40 40 41 41 42 42 44 44 46 46 48 \
48 

