#    Name: 6rnw_1_NAP
#    Modification time : Fri May 22 19:32:59 2020

@<TRIPOS>MOLECULE
6rnw_1_NAP
   73    77     1     0     1
SMALL
NO_CHARGES


@<TRIPOS>ATOM
      1 PA        -16.9940   18.1900  -12.5240 P.3       1 NAP401      0.0000 
      2 O1A       -17.7870   18.5900  -13.7540 O.co2     1 NAP401      0.0000 
      3 O2A       -17.7600   17.2060  -11.6740 O.co2     1 NAP401      0.0000 
      4 O5B       -16.7100   19.5320  -11.6010 O.3       1 NAP401      0.0000 
      5 C5B       -16.1410   20.6440  -12.2380 C.3       1 NAP401      0.0000 
      6 C4B       -16.3190   21.8550  -11.2910 C.3       1 NAP401      0.0000 
      7 O4B       -15.6780   22.8310  -11.9140 O.3       1 NAP401      0.0000 
      8 C3B       -17.8090   22.2080  -11.0970 C.3       1 NAP401      0.0000 
      9 O3B       -18.0630   22.4470   -9.7850 O.3       1 NAP401      0.0000 
     10 C2B       -17.8950   23.4570  -11.9800 C.3       1 NAP401      0.0000 
     11 O2B       -19.0440   24.3000  -11.5280 O.3       1 NAP401      0.0000 
     12 C1B       -16.7130   24.0540  -11.9260 C.3       1 NAP401      0.0000 
     13 N9A       -16.7100   24.9500  -13.0490 N.pl3     1 NAP401      0.0000 
     14 C8A       -16.8860   24.8400  -14.3740 C.2       1 NAP401      0.0000 
     15 N7A       -16.7960   26.0730  -14.8850 N.2       1 NAP401      0.0000 
     16 C5A       -16.5880   26.9300  -13.8880 C.ar      1 NAP401      0.0000 
     17 C6A       -16.4160   28.2860  -13.8780 C.ar      1 NAP401      0.0000 
     18 N6A       -16.4560   29.1680  -15.0280 N.pl3     1 NAP401      0.0000 
     19 N1A       -16.2280   28.9220  -12.7350 N.ar      1 NAP401      0.0000 
     20 C2A       -16.1800   28.2320  -11.5710 C.ar      1 NAP401      0.0000 
     21 N3A       -16.3410   26.8920  -11.5820 N.ar      1 NAP401      0.0000 
     22 C4A       -16.5420   26.2410  -12.7440 C.ar      1 NAP401      0.0000 
     23 O3        -15.5310   17.5490  -13.0080 O.3       1 NAP401      0.0000 
     24 PN        -14.4120   16.7120  -12.1050 P.3       1 NAP401      0.0000 
     25 O1N       -14.7940   16.5590  -10.6500 O.co2     1 NAP401      0.0000 
     26 O2N       -14.2670   15.3430  -12.7290 O.co2     1 NAP401      0.0000 
     27 O5D       -12.9360   17.4820  -12.3090 O.3       1 NAP401      0.0000 
     28 C5D       -12.3400   18.3230  -11.3440 C.3       1 NAP401      0.0000 
     29 C4D       -10.8120   18.4190  -11.6950 C.3       1 NAP401      0.0000 
     30 O4D       -10.2720   17.2130  -11.7900 O.3       1 NAP401      0.0000 
     31 C3D       -10.5800   19.0610  -13.0800 C.3       1 NAP401      0.0000 
     32 O3D        -9.5210   19.9240  -13.0110 O.3       1 NAP401      0.0000 
     33 C2D       -10.2650   17.8650  -14.0240 C.3       1 NAP401      0.0000 
     34 O2D        -9.4550   18.3490  -15.1830 O.3       1 NAP401      0.0000 
     35 C1D        -9.5800   17.0560  -13.2490 C.3       1 NAP401      0.0000 
     36 N1N        -9.5640   15.6650  -13.6750 N.pl3     1 NAP401      0.0000 
     37 C2N       -10.6810   14.8940  -13.7330 C.ar      1 NAP401      0.0000 
     38 C3N       -10.5920   13.5670  -14.1460 C.ar      1 NAP401      0.0000 
     39 C7N       -11.8530   12.6990  -14.2280 C.2       1 NAP401      0.0000 
     40 O7N       -11.7740   11.5310  -14.4160 O.2       1 NAP401      0.0000 
     41 N7N       -13.1590   13.3240  -14.0880 N.am      1 NAP401      0.0000 
     42 C4N        -9.3890   13.0390  -14.4820 C.ar      1 NAP401      0.0000 
     43 C5N        -8.2720   13.8100  -14.4140 C.ar      1 NAP401      0.0000 
     44 C6N        -8.3660   15.1280  -14.0020 C.ar      1 NAP401      0.0000 
     45 P2B       -20.6190   23.8170  -11.7730 P.3       1 NAP401      0.0000 
     46 O1X       -21.4430   25.0650  -11.6620 O.co2     1 NAP401      0.0000 
     47 O2X       -20.8310   23.1670  -13.1140 O.co2     1 NAP401      0.0000 
     48 O3X       -21.0020   22.8320  -10.6880 O.co2     1 NAP401      0.0000 
     49 H51A      -15.1980   20.4860  -12.4020 H         1 NAP401      0.0000 
     50 H52A      -16.5920   20.8110  -13.0800 H         1 NAP401      0.0000 
     51 H4B       -15.9930   21.7340  -10.3850 H         1 NAP401      0.0000 
     52 H3B       -18.4360   21.5260  -11.3840 H         1 NAP401      0.0000 
     53 HO3A      -18.4840   21.7790   -9.4650 H         1 NAP401      0.0000 
     54 H2B       -18.0270   23.2240  -12.9130 H         1 NAP401      0.0000 
     55 H1B       -16.4880   24.5640  -11.1310 H         1 NAP401      0.0000 
     56 H8A       -17.0420   24.0540  -14.8470 H         1 NAP401      0.0000 
     57 H61A      -16.5470   28.8380  -15.8180 H         1 NAP401      0.0000 
     58 H62A      -16.4120   30.0220  -14.9250 H         1 NAP401      0.0000 
     59 H2A       -16.0360   28.6790  -10.7680 H         1 NAP401      0.0000 
     60 H51N      -12.4550   17.9460  -10.4580 H         1 NAP401      0.0000 
     61 H52N      -12.7450   19.2040  -11.3760 H         1 NAP401      0.0000 
     62 H4D       -10.3650   18.9430  -11.0110 H         1 NAP401      0.0000 
     63 H3D       -11.3730   19.5260  -13.3920 H         1 NAP401      0.0000 
     64 HO3N       -9.7280   20.6680  -13.3670 H         1 NAP401      0.0000 
     65 H2D       -11.0610   17.4220  -14.3570 H         1 NAP401      0.0000 
     66 HO2N       -8.7870   17.8380  -15.2940 H         1 NAP401      0.0000 
     67 H1D        -8.6560   17.3520  -13.2480 H         1 NAP401      0.0000 
     68 H2N       -11.5060   15.2530  -13.4970 H         1 NAP401      0.0000 
     69 H71N      -13.8760   12.8500  -14.1340 H         1 NAP401      0.0000 
     70 H72N      -13.2110   14.1700  -13.9550 H         1 NAP401      0.0000 
     71 H4N        -9.3290   12.1530  -14.7580 H         1 NAP401      0.0000 
     72 H5N        -7.4450   13.4530  -14.6440 H         1 NAP401      0.0000 
     73 H6N        -7.5980   15.6500  -13.9490 H         1 NAP401      0.0000 
@<TRIPOS>BOND
     1    1    2 ar   
     2    1    3 ar   
     3    1    4 1    
     4    1   23 1    
     5    4    5 1    
     6    5    6 1    
     7    5   49 1    
     8    5   50 1    
     9    6    7 1    
    10    6    8 1    
    11    6   51 1    
    12    7   12 1    
    13    8    9 1    
    14    8   10 1    
    15    8   52 1    
    16    9   53 1    
    17   10   11 1    
    18   10   12 1    
    19   10   54 1    
    20   11   45 1    
    21   12   13 1    
    22   12   55 1    
    23   13   14 1    
    24   13   22 1    
    25   14   15 2    
    26   15   16 1    
    27   14   56 1    
    28   16   17 ar   
    29   16   22 ar   
    30   17   18 1    
    31   17   19 ar   
    32   19   20 ar   
    33   18   57 1    
    34   18   58 1    
    35   20   21 ar   
    36   21   22 ar   
    37   20   59 1    
    38   23   24 1    
    39   24   25 ar   
    40   24   26 ar   
    41   24   27 1    
    42   27   28 1    
    43   28   29 1    
    44   28   60 1    
    45   28   61 1    
    46   29   30 1    
    47   29   31 1    
    48   29   62 1    
    49   30   35 1    
    50   31   32 1    
    51   31   33 1    
    52   31   63 1    
    53   32   64 1    
    54   33   34 1    
    55   33   35 1    
    56   33   65 1    
    57   35   67 1    
    58   35   36 1    
    59   34   66 1    
    60   36   37 ar   
    61   36   44 ar   
    62   37   38 ar   
    63   38   39 1    
    64   37   68 1    
    65   38   42 ar   
    66   39   40 2    
    67   39   41 am   
    68   42   43 ar   
    69   41   69 1    
    70   41   70 1    
    71   43   44 ar   
    72   42   71 1    
    73   45   46 ar   
    74   43   72 1    
    75   44   73 1    
    76   45   47 ar   
    77   45   48 ar   
@<TRIPOS>SUBSTRUCTURE
     1 NAP401      1 GROUP   
@<TRIPOS>SET
ATOM$ORANGE STATIC     ATOMS   COLORGROUP SYSTEM 
42 5 5 6 6 8 8 10 10 12 12 14 14 16 16 17 17 20 \
20 22 22 28 28 29 29 31 31 33 33 35 35 37 37 38 38 39 \
39 42 42 43 43 44 44 

