#    Name: 6rnw_1_NAP_CAVITY_N1_ALL
#    Modification time : Fri May 22 19:33:01 2020

@<TRIPOS>MOLECULE
6rnw_1_NAP_CAVITY_N1_ALL
   72     0     6     0     0
SMALL
NO_CHARGES


@<TRIPOS>ATOM
      1 OG        -11.3500   14.3400  -17.0900 O.3       1 SER1        0.0000 
      2 OG         -9.0100   10.5400  -16.5600 O.3       1 SER1        0.0000 
      3 OG        -12.4600   15.7000  -15.1700 O.3       1 SER1        0.0000 
      4 OG        -12.1900   17.4900  -16.2800 O.3       1 SER1        0.0000 
      5 OG        -10.6300   14.9500  -15.9200 O.3       1 SER1        0.0000 
      6 OG        -11.4600   18.1000  -15.1100 O.3       1 SER1        0.0000 
      7 OG        -10.6800   16.8300  -14.9400 O.3       1 SER1        0.0000 
      8 OG         -9.9000   15.5600  -14.7600 O.3       1 SER1        0.0000 
      9 OG         -9.9600   17.4400  -13.7700 O.3       1 SER1        0.0000 
     10 N         -13.8000   13.3900  -13.1300 N.am      2 ALA2        0.0000 
     11 O         -11.9600   12.6400  -13.8900 O.2       2 ALA2        0.0000 
     12 N         -10.1200   11.8900  -14.6400 N.am      2 ALA2        0.0000 
     13 N          -9.4000   12.5000  -13.4800 N.am      2 ALA2        0.0000 
     14 O         -13.9000   17.1500  -11.1600 O.2       2 ALA2        0.0000 
     15 N         -13.6300   18.9300  -12.2700 N.am      2 ALA2        0.0000 
     16 N         -11.7900   18.1800  -13.0200 N.am      2 ALA2        0.0000 
     17 N          -9.1800   16.1700  -13.6000 N.am      2 ALA2        0.0000 
     18 N          -8.4000   14.9000  -13.4200 N.am      2 ALA2        0.0000 
     19 N         -12.1200   18.2700  -10.9300 N.am      2 ALA2        0.0000 
     20 N         -11.3400   17.0000  -10.7500 N.am      2 ALA2        0.0000 
     21 N         -11.0700   18.7900  -11.8600 N.am      2 ALA2        0.0000 
     22 N         -10.2900   17.5200  -11.6800 N.am      2 ALA2        0.0000 
     23 N         -10.0100   19.3100  -12.7900 N.am      2 ALA2        0.0000 
     24 OD1        -9.6800   19.2200  -14.8800 O.co2     3 ASP3        0.0000 
     25 OD1        -8.9000   17.9500  -14.7000 O.co2     3 ASP3        0.0000 
     26 OD1        -8.1700   18.5600  -13.5400 O.co2     3 ASP3        0.0000 
     27 CZ         -9.0700   12.4100  -15.5700 C.ar      4 PHE5        0.0000 
     28 CZ         -8.3400   13.0200  -14.4100 C.ar      4 PHE5        0.0000 
     29 CZ         -7.6200   13.6300  -13.2400 C.ar      4 PHE5        0.0000 
     30 CA        -10.8500   11.2900  -15.8100 C.3       5 GLY6        0.0000 
     31 CA        -14.0200   18.2400  -15.5200 C.3       5 GLY6        0.0000 
     32 CA        -12.9700   18.7600  -16.4500 C.3       5 GLY6        0.0000 
     33 CA        -15.6900   16.0200  -11.3900 C.3       5 GLY6        0.0000 
     34 CA        -13.8500   15.2700  -12.1500 C.3       5 GLY6        0.0000 
     35 CA        -13.0700   14.0000  -11.9700 C.3       5 GLY6        0.0000 
     36 CA        -11.2300   13.2500  -12.7200 C.3       5 GLY6        0.0000 
     37 CA        -13.3000   18.8500  -14.3600 C.3       5 GLY6        0.0000 
     38 CA        -13.1200   15.8800  -10.9800 C.3       5 GLY6        0.0000 
     39 CA        -12.0700   16.4000  -11.9100 C.3       5 GLY6        0.0000 
     40 CA        -11.2900   15.1300  -11.7400 C.3       5 GLY6        0.0000 
     41 CA        -10.5100   13.8600  -11.5600 C.3       5 GLY6        0.0000 
     42 CA        -12.5700   19.4500  -13.2000 C.3       5 GLY6        0.0000 
     43 CA         -9.4500   14.3800  -12.4900 C.3       5 GLY6        0.0000 
     44 CA         -8.6700   13.1100  -12.3100 C.3       5 GLY6        0.0000 
     45 CA        -10.7400   18.7000  -13.9500 C.3       5 GLY6        0.0000 
     46 CA        -10.5600   15.7300  -10.5700 C.3       5 GLY6        0.0000 
     47 CA         -9.5100   16.2500  -11.5000 C.3       5 GLY6        0.0000 
     48 CA         -8.7300   14.9900  -11.3300 C.3       5 GLY6        0.0000 
     49 CA         -9.2300   18.0400  -12.6100 C.3       5 GLY6        0.0000 
     50 CA         -8.4500   16.7700  -12.4300 C.3       5 GLY6        0.0000 
     51 CA         -7.6700   15.5000  -12.2600 C.3       5 GLY6        0.0000 
     52 DU        -11.6300   12.5500  -15.9800 H         6 CUB7        0.0000 
     53 DU        -10.5700   13.0700  -16.9100 H         6 CUB7        0.0000 
     54 DU         -9.7900   11.8000  -16.7400 H         6 CUB7        0.0000 
     55 DU        -15.3600   15.9300  -13.4900 H         6 CUB7        0.0000 
     56 DU        -12.7400   13.9100  -14.0600 H         6 CUB7        0.0000 
     57 DU        -11.6800   14.4300  -14.9900 H         6 CUB7        0.0000 
     58 DU        -10.9000   13.1600  -14.8200 H         6 CUB7        0.0000 
     59 DU         -9.8500   13.6800  -15.7500 H         6 CUB7        0.0000 
     60 DU        -15.4100   17.8100  -12.5000 H         6 CUB7        0.0000 
     61 DU        -14.6300   16.5400  -12.3200 H         6 CUB7        0.0000 
     62 DU        -14.3500   18.3300  -13.4300 H         6 CUB7        0.0000 
     63 DU        -12.7900   15.7900  -13.0800 H         6 CUB7        0.0000 
     64 DU        -12.0100   14.5200  -12.9000 H         6 CUB7        0.0000 
     65 DU        -12.5200   17.5800  -14.1800 H         6 CUB7        0.0000 
     66 DU        -11.7400   16.3100  -14.0100 H         6 CUB7        0.0000 
     67 DU        -10.9600   15.0400  -13.8300 H         6 CUB7        0.0000 
     68 DU        -10.1800   13.7700  -13.6500 H         6 CUB7        0.0000 
     69 DU         -9.1200   14.2900  -14.5800 H         6 CUB7        0.0000 
     70 DU        -12.8500   17.6700  -12.0900 H         6 CUB7        0.0000 
     71 DU        -11.0100   16.9200  -12.8400 H         6 CUB7        0.0000 
     72 DU        -10.2300   15.6500  -12.6700 H         6 CUB7        0.0000 
@<TRIPOS>BOND
@<TRIPOS>SUBSTRUCTURE
     1 SER1        1 GROUP   
     2 ALA2       10 GROUP   
     3 ASP3       24 GROUP   
     4 PHE5       27 GROUP   
     5 GLY6       30 GROUP   
     6 CUB7       52 GROUP   
@<TRIPOS>SET

