#    Name: 5vop_2_C2F_CAVITY_N1_8
#    Modification time : Fri May 22 19:14:24 2020

@<TRIPOS>MOLECULE
5vop_2_C2F_CAVITY_N1_8
  101     0     6     0     0
SMALL
NO_CHARGES


@<TRIPOS>ATOM
      1 N         -57.7300   58.9300    6.1800 N.am      1 ALA2        0.0000 
      2 O         -57.7800   60.7900    5.1700 O.2       1 ALA2        0.0000 
      3 N         -53.5900   60.5800    6.8000 N.am      1 ALA2        0.0000 
      4 N         -54.1300   61.0600    5.4900 N.am      1 ALA2        0.0000 
      5 O         -52.5600   61.4800    8.4200 O.2       1 ALA2        0.0000 
      6 O         -55.7300   62.6000    8.4100 O.2       1 ALA2        0.0000 
      7 N         -54.4100   62.2800    7.7600 N.am      1 ALA2        0.0000 
      8 N         -53.1000   61.9700    7.1100 N.am      1 ALA2        0.0000 
      9 O         -56.2600   63.0800    7.1000 O.2       1 ALA2        0.0000 
     10 N         -54.9500   62.7600    6.4500 N.am      1 ALA2        0.0000 
     11 O         -54.7000   63.5000   10.0400 O.2       1 ALA2        0.0000 
     12 O         -52.0800   62.8700    8.7300 O.2       1 ALA2        0.0000 
     13 O         -55.2400   63.9900    8.7200 O.2       1 ALA2        0.0000 
     14 O         -52.6100   63.3500    7.4200 O.2       1 ALA2        0.0000 
     15 N         -54.4600   64.1500    6.7500 N.am      1 ALA2        0.0000 
     16 O         -51.0500   63.7700   10.3500 O.2       1 ALA2        0.0000 
     17 O         -49.7400   63.4500    9.7000 O.2       1 ALA2        0.0000 
     18 O         -51.5900   64.2500    9.0400 O.2       1 ALA2        0.0000 
     19 O         -54.7500   65.3700    9.0300 O.2       1 ALA2        0.0000 
     20 O         -52.1300   64.7300    7.7200 O.2       1 ALA2        0.0000 
     21 N         -52.6600   65.2200    6.4100 N.am      1 ALA2        0.0000 
     22 N         -51.3400   64.9900   12.6300 N.am      1 ALA2        0.0000 
     23 O         -51.1000   65.6400    9.3500 O.2       1 ALA2        0.0000 
     24 O         -49.7900   65.3200    8.6900 O.2       1 ALA2        0.0000 
     25 O         -51.6400   66.1200    8.0300 O.2       1 ALA2        0.0000 
     26 O         -50.3200   65.8000    7.3800 O.2       1 ALA2        0.0000 
     27 N         -51.3900   66.8600   11.6200 N.am      1 ALA2        0.0000 
     28 N         -51.9200   67.3400   10.3100 N.am      1 ALA2        0.0000 
     29 N         -52.4600   67.8200    8.9900 N.am      1 ALA2        0.0000 
     30 N         -51.9700   69.2100    9.3000 N.am      1 ALA2        0.0000 
     31 N         -50.9500   70.1100   10.9200 N.am      1 ALA2        0.0000 
     32 OD1       -49.3000   66.7000    9.0000 O.co2     2 ASP3        0.0000 
     33 OD1       -51.1500   67.5000    8.3400 O.co2     2 ASP3        0.0000 
     34 OD1       -49.8400   67.1900    7.6900 O.co2     2 ASP3        0.0000 
     35 OD1       -50.1200   68.4100    9.9600 O.co2     2 ASP3        0.0000 
     36 OD1       -48.8100   68.0900    9.3100 O.co2     2 ASP3        0.0000 
     37 OD1       -50.6600   68.8900    8.6500 O.co2     2 ASP3        0.0000 
     38 OD1       -49.6400   69.7900   10.2700 O.co2     2 ASP3        0.0000 
     39 NZ        -56.6500   57.9700    8.8100 N.4       3 LYS4        0.0000 
     40 NZ        -57.1900   58.4500    7.4900 N.4       3 LYS4        0.0000 
     41 NZ        -56.4200   58.6100    5.5200 N.4       3 LYS4        0.0000 
     42 NZ        -55.1000   58.2900    4.8700 N.4       3 LYS4        0.0000 
     43 NZ        -56.9500   59.0900    4.2100 N.4       3 LYS4        0.0000 
     44 NZ        -56.7000   59.8300    7.8000 N.4       3 LYS4        0.0000 
     45 NZ        -57.2400   60.3100    6.4800 N.4       3 LYS4        0.0000 
     46 NZ        -54.6100   59.6800    5.1800 N.4       3 LYS4        0.0000 
     47 NZ        -55.1500   60.1600    3.8600 N.4       3 LYS4        0.0000 
     48 NZ        -56.9900   61.0500   10.0700 N.4       3 LYS4        0.0000 
     49 NZ        -56.2100   61.2200    8.1100 N.4       3 LYS4        0.0000 
     50 NZ        -56.7500   61.7000    6.7900 N.4       3 LYS4        0.0000 
     51 NZ        -53.9800   65.5300    7.0600 N.4       3 LYS4        0.0000 
     52 NZ        -53.4900   66.9200    7.3700 N.4       3 LYS4        0.0000 
     53 NZ        -51.2000   69.3700    7.3300 N.4       3 LYS4        0.0000 
     54 CZ        -49.2500   64.8400   10.0100 C.ar      4 PHE5        0.0000 
     55 CZ        -50.0700   66.5400   10.9700 C.ar      4 PHE5        0.0000 
     56 CZ        -48.7600   66.2200   10.3200 C.ar      4 PHE5        0.0000 
     57 CZ        -47.9900   66.3900    8.3500 C.ar      4 PHE5        0.0000 
     58 CZ        -49.5900   67.9300   11.2800 C.ar      4 PHE5        0.0000 
     59 CZ        -47.7900   68.9900   10.9300 C.ar      4 PHE5        0.0000 
     60 CA        -55.8300   56.2600    7.8500 C.3       5 GLY6        0.0000 
     61 CA        -54.5200   55.9500    7.1900 C.3       5 GLY6        0.0000 
     62 CA        -56.3700   56.7400    6.5300 C.3       5 GLY6        0.0000 
     63 CA        -55.0500   56.4300    5.8800 C.3       5 GLY6        0.0000 
     64 CA        -56.9000   57.2300    5.2200 C.3       5 GLY6        0.0000 
     65 CA        -54.5700   57.8100    6.1900 C.3       5 GLY6        0.0000 
     66 CA        -56.4600   60.4800    4.5200 C.3       5 GLY6        0.0000 
     67 CA        -57.2900   62.1800    5.4800 C.3       5 GLY6        0.0000 
     68 CA        -55.9800   61.8600    4.8200 C.3       5 GLY6        0.0000 
     69 CA        -54.6600   61.5400    4.1700 C.3       5 GLY6        0.0000 
     70 CA        -56.8000   63.5600    5.7800 C.3       5 GLY6        0.0000 
     71 CA        -55.4900   63.2500    5.1300 C.3       5 GLY6        0.0000 
     72 CA        -55.0000   64.6300    5.4400 C.3       5 GLY6        0.0000 
     73 CA        -52.3600   64.0900   11.0100 C.3       5 GLY6        0.0000 
     74 CA        -54.2100   64.8900   10.3400 C.3       5 GLY6        0.0000 
     75 CA        -52.9000   64.5700    9.6900 C.3       5 GLY6        0.0000 
     76 CA        -55.2900   65.8500    7.7100 C.3       5 GLY6        0.0000 
     77 CA        -51.8800   65.4700   11.3100 C.3       5 GLY6        0.0000 
     78 CA        -52.4100   65.9600   10.0000 C.3       5 GLY6        0.0000 
     79 CA        -54.2600   66.7500    9.3400 C.3       5 GLY6        0.0000 
     80 CA        -52.9500   66.4400    8.6800 C.3       5 GLY6        0.0000 
     81 CA        -54.8000   67.2400    8.0200 C.3       5 GLY6        0.0000 
     82 CA        -52.1700   66.6000    6.7200 C.3       5 GLY6        0.0000 
     83 CA        -51.6900   67.9900    7.0200 C.3       5 GLY6        0.0000 
     84 DU        -53.4900   56.8500    8.8200 H         6 CUB7        0.0000 
     85 DU        -55.3400   57.6500    8.1500 H         6 CUB7        0.0000 
     86 DU        -54.0300   57.3300    7.5000 H         6 CUB7        0.0000 
     87 DU        -52.7200   57.0100    6.8500 H         6 CUB7        0.0000 
     88 DU        -55.8800   58.1300    6.8400 H         6 CUB7        0.0000 
     89 DU        -56.1700   59.3500    9.1100 H         6 CUB7        0.0000 
     90 DU        -52.2300   58.4000    7.1600 H         6 CUB7        0.0000 
     91 DU        -55.3900   59.5100    7.1500 H         6 CUB7        0.0000 
     92 DU        -54.0800   59.2000    6.4900 H         6 CUB7        0.0000 
     93 DU        -55.9300   60.0000    5.8300 H         6 CUB7        0.0000 
     94 DU        -54.9000   60.9000    7.4500 H         6 CUB7        0.0000 
     95 DU        -55.4400   61.3800    6.1400 H         6 CUB7        0.0000 
     96 DU        -53.3900   63.1900    9.3800 H         6 CUB7        0.0000 
     97 DU        -53.9300   63.6700    8.0700 H         6 CUB7        0.0000 
     98 DU        -53.4400   65.0500    8.3800 H         6 CUB7        0.0000 
     99 DU        -50.0300   64.6800   11.9800 H         6 CUB7        0.0000 
    100 DU        -50.5600   65.1600   10.6600 H         6 CUB7        0.0000 
    101 DU        -50.6100   67.0200    9.6500 H         6 CUB7        0.0000 
@<TRIPOS>BOND
@<TRIPOS>SUBSTRUCTURE
     1 ALA2        1 GROUP   
     2 ASP3       32 GROUP   
     3 LYS4       39 GROUP   
     4 PHE5       54 GROUP   
     5 GLY6       60 GROUP   
     6 CUB7       84 GROUP   
@<TRIPOS>SET

