#    Name: 5vop_2_C2F
#    Modification time : Fri May 22 19:14:23 2020

@<TRIPOS>MOLECULE
5vop_2_C2F
   56    58     1     0     0
SMALL
NO_CHARGES


@<TRIPOS>ATOM
      1 N1        -57.2700   60.0280    5.3120 N.2       1 C2F3001     0.0000 
      2 C2        -56.8360   59.3830    4.2060 C.2       1 C2F3001     0.0000 
      3 NA2       -57.7380   58.7120    3.4630 N.pl3     1 C2F3001     0.0000 
      4 N3        -55.5460   59.3740    3.8050 N.am      1 C2F3001     0.0000 
      5 C4        -54.5910   59.9980    4.4800 C.2       1 C2F3001     0.0000 
      6 O4        -53.4160   59.9470    4.0670 O.2       1 C2F3001     0.0000 
      7 C4A       -54.9990   60.7410    5.6980 C.2       1 C2F3001     0.0000 
      8 N5        -54.1800   61.4050    6.6030 N.3       1 C2F3001     0.0000 
      9 C6        -54.6420   62.6390    7.2160 C.3       1 C2F3001     0.0000 
     10 C7        -55.9080   62.1880    7.9810 C.3       1 C2F3001     0.0000 
     11 N8        -56.8280   61.3670    7.1920 N.pl3     1 C2F3001     0.0000 
     12 C8A       -56.4180   60.6970    6.0890 C.2       1 C2F3001     0.0000 
     13 C9        -54.9710   63.7260    6.1890 C.3       1 C2F3001     0.0000 
     14 N10       -55.1880   64.9520    6.9580 N.pl3     1 C2F3001     0.0000 
     15 C11       -53.0250   60.6970    7.1550 C.3       1 C2F3001     0.0000 
     16 C12       -52.2150   67.4400    8.5220 C.ar      1 C2F3001     0.0000 
     17 C13       -53.5810   67.7010    8.7350 C.ar      1 C2F3001     0.0000 
     18 C14       -54.5570   66.8580    8.2150 C.ar      1 C2F3001     0.0000 
     19 C15       -54.1990   65.7450    7.4530 C.ar      1 C2F3001     0.0000 
     20 C16       -52.8390   65.4940    7.2300 C.ar      1 C2F3001     0.0000 
     21 C17       -51.8630   66.3280    7.7560 C.ar      1 C2F3001     0.0000 
     22 C         -51.1190   68.3370    9.0520 C.2       1 C2F3001     0.0000 
     23 O         -50.0250   68.2760    8.5060 O.2       1 C2F3001     0.0000 
     24 N         -51.3520   69.1990   10.0550 N.am      1 C2F3001     0.0000 
     25 CA        -50.3740   70.1440   10.5810 C.3       1 C2F3001     0.0000 
     26 CB        -51.0790   71.0340   11.6120 C.3       1 C2F3001     0.0000 
     27 CG        -50.4220   72.3640   11.9570 C.3       1 C2F3001     0.0000 
     28 CD        -51.4870   73.2250   12.6040 C.2       1 C2F3001     0.0000 
     29 OE1       -51.8140   74.2940   12.0490 O.co2     1 C2F3001     0.0000 
     30 OE2       -52.0320   72.8340   13.6570 O.co2     1 C2F3001     0.0000 
     31 CT        -49.2020   69.3980   11.1650 C.2       1 C2F3001     0.0000 
     32 O1        -48.0580   69.6340   10.7200 O.co2     1 C2F3001     0.0000 
     33 O2        -49.4140   68.5340   12.0420 O.co2     1 C2F3001     0.0000 
     34 HN21      -58.5660   58.7020    3.6970 H         1 C2F3001     0.0000 
     35 HN22      -57.4860   58.2940    2.7550 H         1 C2F3001     0.0000 
     36 HN3       -55.3370   58.9490    3.0870 H         1 C2F3001     0.0000 
     37 H6        -53.9660   63.0460    7.7810 H         1 C2F3001     0.0000 
     38 H71       -56.3810   62.9750    8.2950 H         1 C2F3001     0.0000 
     39 H72       -55.6370   61.6880    8.7670 H         1 C2F3001     0.0000 
     40 HN8       -57.6510   61.3090    7.4350 H         1 C2F3001     0.0000 
     41 H91       -55.7610   63.4930    5.6770 H         1 C2F3001     0.0000 
     42 H92       -54.2450   63.8370    5.5560 H         1 C2F3001     0.0000 
     43 HN1       -56.0010   65.1890    7.1080 H         1 C2F3001     0.0000 
     44 H111      -52.5500   61.2800    7.7670 H         1 C2F3001     0.0000 
     45 H112      -52.4320   60.4340    6.4340 H         1 C2F3001     0.0000 
     46 H113      -53.3260   59.9070    7.6300 H         1 C2F3001     0.0000 
     47 H13       -53.8450   68.4790    9.2510 H         1 C2F3001     0.0000 
     48 H14       -55.4940   67.0450    8.3830 H         1 C2F3001     0.0000 
     49 H16       -52.5760   64.7260    6.7000 H         1 C2F3001     0.0000 
     50 H17       -50.9270   66.1360    7.5900 H         1 C2F3001     0.0000 
     51 HN        -52.1340   69.1930   10.4130 H         1 C2F3001     0.0000 
     52 HA        -50.0190   70.7100    9.8780 H         1 C2F3001     0.0000 
     53 HB1       -51.1740   70.5250   12.4320 H         1 C2F3001     0.0000 
     54 HB2       -51.9740   71.2180   11.2870 H         1 C2F3001     0.0000 
     55 HG1       -50.0720   72.7910   11.1600 H         1 C2F3001     0.0000 
     56 HG2       -49.6740   72.2320   12.5600 H         1 C2F3001     0.0000 
@<TRIPOS>BOND
     1    1    2 2    
     2    1   12 1    
     3    2    3 1    
     4    2    4 1    
     5    4    5 am   
     6    3   34 1    
     7    3   35 1    
     8    5    6 2    
     9    4   36 1    
    10    5    7 1    
    11    7    8 1    
    12    7   12 2    
    13    8    9 1    
    14    8   15 1    
    15    9   10 1    
    16    9   13 1    
    17    9   37 1    
    18   10   11 1    
    19   10   38 1    
    20   10   39 1    
    21   11   12 1    
    22   13   14 1    
    23   11   40 1    
    24   13   41 1    
    25   13   42 1    
    26   14   19 1    
    27   15   44 1    
    28   14   43 1    
    29   15   45 1    
    30   15   46 1    
    31   16   17 ar   
    32   16   21 ar   
    33   16   22 1    
    34   17   18 ar   
    35   17   47 1    
    36   18   19 ar   
    37   18   48 1    
    38   19   20 ar   
    39   20   21 ar   
    40   20   49 1    
    41   21   50 1    
    42   22   23 2    
    43   22   24 am   
    44   24   25 1    
    45   25   26 1    
    46   24   51 1    
    47   25   31 1    
    48   25   52 1    
    49   26   27 1    
    50   26   53 1    
    51   26   54 1    
    52   27   28 1    
    53   27   55 1    
    54   27   56 1    
    55   28   29 ar   
    56   28   30 ar   
    57   31   32 ar   
    58   31   33 ar   
@<TRIPOS>SUBSTRUCTURE
     1 C2F3001     1 GROUP   
@<TRIPOS>SET

