#    Name: 6qau_1_1FV
#    Modification time : Fri May 22 19:32:34 2020

@<TRIPOS>MOLECULE
6qau_1_1FV
   34    38     1     0     0
SMALL
NO_CHARGES


@<TRIPOS>ATOM
      1 CAM        37.5730  -44.4250  -31.3450 C.3       1 1FV301      0.0000 
      2 CAH        36.8910  -45.5950  -32.0600 C.3       1 1FV301      0.0000 
      3 CAN        37.4030  -45.0350  -33.3730 C.3       1 1FV301      0.0000 
      4 CBF        37.6270  -43.7010  -32.6770 C.3       1 1FV301      0.0000 
      5 CAZ        38.8850  -42.9200  -32.9890 C.2       1 1FV301      0.0000 
      6 OAA        39.6440  -43.2440  -33.8980 O.2       1 1FV301      0.0000 
      7 NAV        39.0950  -41.8450  -32.2330 N.am      1 1FV301      0.0000 
      8 CAI        40.2700  -40.9970  -32.3750 C.3       1 1FV301      0.0000 
      9 CAG        41.2850  -41.2820  -31.2970 C.3       1 1FV301      0.0000 
     10 CAJ        41.7520  -42.7190  -31.2790 C.3       1 1FV301      0.0000 
     11 NAW        42.4430  -43.0740  -32.5060 N.pl3     1 1FV301      0.0000 
     12 C4         43.6730  -42.6320  -32.8080 C.ar      1 1FV301      0.0000 
     13 N3         44.4220  -42.1220  -31.8260 N.ar      1 1FV301      0.0000 
     14 C5         44.1600  -42.7470  -34.1150 C.ar      1 1FV301      0.0000 
     15 CBG        43.2380  -43.1160  -35.2590 C.3       1 1FV301      0.0000 
     16 CAO        43.7540  -43.6570  -36.5530 C.3       1 1FV301      0.0000 
     17 CAP        43.0210  -44.5440  -35.6390 C.3       1 1FV301      0.0000 
     18 C6         45.4720  -42.3580  -34.3010 C.ar      1 1FV301      0.0000 
     19 N1         46.2560  -41.8740  -33.3280 N.ar      1 1FV301      0.0000 
     20 C2         45.6820  -41.7870  -32.1240 C.ar      1 1FV301      0.0000 
     21 NAX        46.4550  -41.4770  -31.0570 N.pl3     1 1FV301      0.0000 
     22 CBB        46.1360  -41.1370  -29.7400 C.ar      1 1FV301      0.0000 
     23 CAF        47.0960  -41.1800  -28.7410 C.ar      1 1FV301      0.0000 
     24 CAD        44.8640  -40.6840  -29.4420 C.ar      1 1FV301      0.0000 
     25 CAB        44.5410  -40.3490  -28.1410 C.ar      1 1FV301      0.0000 
     26 CAC        45.4790  -40.4790  -27.1350 C.ar      1 1FV301      0.0000 
     27 CBA        46.7650  -40.9050  -27.4190 C.ar      1 1FV301      0.0000 
     28 CAS        47.7350  -41.2050  -26.3020 C.3       1 1FV301      0.0000 
     29 NBH        48.5990  -40.0760  -25.9360 N.4       1 1FV301      0.0000 
     30 CAQ        49.1840  -40.2920  -24.6020 C.3       1 1FV301      0.0000 
     31 CAK        50.4900  -39.5560  -24.4760 C.3       1 1FV301      0.0000 
     32 OAY        50.4860  -38.3590  -25.2360 O.3       1 1FV301      0.0000 
     33 CAL        50.5010  -38.6690  -26.6200 C.3       1 1FV301      0.0000 
     34 CAR        49.6820  -39.9060  -26.9290 C.3       1 1FV301      0.0000 
@<TRIPOS>BOND
     1    1    2 1    
     2    1    4 1    
     3    2    3 1    
     4    3    4 1    
     5    4    5 1    
     6    5    6 2    
     7    5    7 am   
     8    7    8 1    
     9    8    9 1    
    10    9   10 1    
    11   10   11 1    
    12   11   12 1    
    13   12   13 ar   
    14   12   14 ar   
    15   13   20 ar   
    16   14   15 1    
    17   14   18 ar   
    18   15   16 1    
    19   15   17 1    
    20   16   17 1    
    21   18   19 ar   
    22   19   20 ar   
    23   20   21 1    
    24   21   22 1    
    25   22   23 ar   
    26   22   24 ar   
    27   23   27 ar   
    28   24   25 ar   
    29   25   26 ar   
    30   26   27 ar   
    31   27   28 1    
    32   28   29 1    
    33   29   30 1    
    34   29   34 1    
    35   30   31 1    
    36   31   32 1    
    37   32   33 1    
    38   33   34 1    
@<TRIPOS>SUBSTRUCTURE
     1 1FV301      1 GROUP   
@<TRIPOS>SET

