#    Name: 6qau_2_1FV
#    Modification time : Fri May 22 19:32:40 2020

@<TRIPOS>MOLECULE
6qau_2_1FV
   34    38     1     0     0
SMALL
NO_CHARGES


@<TRIPOS>ATOM
      1 CAM        18.3560  -45.0630    4.6030 C.3       1 1FV301      0.0000 
      2 CAH        17.8420  -43.6140    4.8070 C.3       1 1FV301      0.0000 
      3 CAN        17.6550  -43.5040    3.2640 C.3       1 1FV301      0.0000 
      4 CBF        18.5570  -44.7380    3.1070 C.3       1 1FV301      0.0000 
      5 CAZ        18.1800  -45.8220    2.1250 C.2       1 1FV301      0.0000 
      6 OAA        17.1010  -45.8200    1.5320 O.2       1 1FV301      0.0000 
      7 NAV        19.0940  -46.7680    1.9490 N.am      1 1FV301      0.0000 
      8 CAI        18.8920  -47.9380    1.1060 C.3       1 1FV301      0.0000 
      9 CAG        18.6010  -49.1600    1.9380 C.3       1 1FV301      0.0000 
     10 CAJ        17.2500  -49.0650    2.6110 C.3       1 1FV301      0.0000 
     11 NAW        16.1910  -48.7900    1.6520 N.pl3     1 1FV301      0.0000 
     12 C4         15.6600  -49.7360    0.8590 C.ar      1 1FV301      0.0000 
     13 N3         15.8770  -51.0150    1.1680 N.ar      1 1FV301      0.0000 
     14 C5         14.8310  -49.3730   -0.2360 C.ar      1 1FV301      0.0000 
     15 CBG        14.7560  -47.9360   -0.7160 C.3       1 1FV301      0.0000 
     16 CAO        13.5630  -47.4060   -1.4530 C.3       1 1FV301      0.0000 
     17 CAP        13.8310  -46.9470   -0.0760 C.3       1 1FV301      0.0000 
     18 C6         14.2340  -50.4230   -0.9060 C.ar      1 1FV301      0.0000 
     19 N1         14.4110  -51.7110   -0.5890 N.ar      1 1FV301      0.0000 
     20 C2         15.2270  -51.9400    0.4510 C.ar      1 1FV301      0.0000 
     21 NAX        15.3710  -53.2120    0.9120 N.pl3     1 1FV301      0.0000 
     22 CBB        16.3030  -53.7660    1.8150 C.ar      1 1FV301      0.0000 
     23 CAF        16.0760  -55.0330    2.3370 C.ar      1 1FV301      0.0000 
     24 CAD        17.4770  -53.0940    2.1380 C.ar      1 1FV301      0.0000 
     25 CAB        18.3710  -53.6640    3.0260 C.ar      1 1FV301      0.0000 
     26 CAC        18.0950  -54.8910    3.6070 C.ar      1 1FV301      0.0000 
     27 CBA        16.9420  -55.5890    3.2750 C.ar      1 1FV301      0.0000 
     28 CAS        16.5570  -56.8500    4.0140 C.3       1 1FV301      0.0000 
     29 NBH        17.1210  -58.0820    3.4430 N.4       1 1FV301      0.0000 
     30 CAQ        16.9640  -59.2070    4.3810 C.3       1 1FV301      0.0000 
     31 CAK        16.8330  -60.5150    3.6260 C.3       1 1FV301      0.0000 
     32 OAY        17.6490  -60.5370    2.4600 O.3       1 1FV301      0.0000 
     33 CAL        17.1950  -59.5740    1.5180 C.3       1 1FV301      0.0000 
     34 CAR        16.4720  -58.4250    2.1810 C.3       1 1FV301      0.0000 
@<TRIPOS>BOND
     1    1    2 1    
     2    1    4 1    
     3    2    3 1    
     4    3    4 1    
     5    4    5 1    
     6    5    6 2    
     7    5    7 am   
     8    7    8 1    
     9    8    9 1    
    10    9   10 1    
    11   10   11 1    
    12   11   12 1    
    13   12   13 ar   
    14   12   14 ar   
    15   13   20 ar   
    16   14   15 1    
    17   14   18 ar   
    18   15   16 1    
    19   15   17 1    
    20   16   17 1    
    21   18   19 ar   
    22   19   20 ar   
    23   20   21 1    
    24   21   22 1    
    25   22   23 ar   
    26   22   24 ar   
    27   23   27 ar   
    28   24   25 ar   
    29   25   26 ar   
    30   26   27 ar   
    31   27   28 1    
    32   28   29 1    
    33   29   30 1    
    34   29   34 1    
    35   30   31 1    
    36   31   32 1    
    37   32   33 1    
    38   33   34 1    
@<TRIPOS>SUBSTRUCTURE
     1 1FV301      1 GROUP   
@<TRIPOS>SET

