#    Name: 6qau_3_1FV
#    Modification time : Fri May 22 19:32:45 2020

@<TRIPOS>MOLECULE
6qau_3_1FV
   34    38     1     0     0
SMALL
NO_CHARGES


@<TRIPOS>ATOM
      1 CAM        15.4080  -10.9400  -13.2560 C.3       1 1FV301      0.0000 
      2 CAH        14.4230  -12.1140  -13.4730 C.3       1 1FV301      0.0000 
      3 CAN        14.1960  -12.1750  -11.9260 C.3       1 1FV301      0.0000 
      4 CBF        15.3820  -11.2380  -11.7540 C.3       1 1FV301      0.0000 
      5 CAZ        15.2010  -10.0670  -10.8390 C.2       1 1FV301      0.0000 
      6 OAA        14.4300  -10.1130   -9.8820 O.2       1 1FV301      0.0000 
      7 NAV        15.9470   -8.9910  -11.1280 N.am      1 1FV301      0.0000 
      8 CAI        15.9420   -7.7650  -10.3420 C.3       1 1FV301      0.0000 
      9 CAG        15.2820   -6.6260  -11.0950 C.3       1 1FV301      0.0000 
     10 CAJ        13.7880   -6.8280  -11.2840 C.3       1 1FV301      0.0000 
     11 NAW        13.1150   -7.0440  -10.0120 N.pl3     1 1FV301      0.0000 
     12 C4         12.6810   -6.0340   -9.2430 C.ar      1 1FV301      0.0000 
     13 N3         12.7020   -4.7950   -9.7520 N.ar      1 1FV301      0.0000 
     14 C5         12.2030   -6.2840   -7.9590 C.ar      1 1FV301      0.0000 
     15 CBG        12.3530   -7.6610   -7.3360 C.3       1 1FV301      0.0000 
     16 CAO        11.3930   -8.1760   -6.3020 C.3       1 1FV301      0.0000 
     17 CAP        11.3960   -8.7730   -7.6540 C.3       1 1FV301      0.0000 
     18 C6         11.7150   -5.1780   -7.2740 C.ar      1 1FV301      0.0000 
     19 N1         11.7010   -3.9320   -7.7680 N.ar      1 1FV301      0.0000 
     20 C2         12.2080   -3.8040   -9.0000 C.ar      1 1FV301      0.0000 
     21 NAX        12.1920   -2.5880   -9.6140 N.pl3     1 1FV301      0.0000 
     22 CBB        12.8570   -2.1310  -10.7810 C.ar      1 1FV301      0.0000 
     23 CAF        12.4810   -0.9430  -11.4000 C.ar      1 1FV301      0.0000 
     24 CAD        13.9480   -2.8400  -11.2760 C.ar      1 1FV301      0.0000 
     25 CAB        14.6160   -2.3810  -12.4010 C.ar      1 1FV301      0.0000 
     26 CAC        14.1780   -1.2430  -13.0590 C.ar      1 1FV301      0.0000 
     27 CBA        13.0920   -0.5240  -12.5840 C.ar      1 1FV301      0.0000 
     28 CAS        12.4620    0.5510  -13.4350 C.3       1 1FV301      0.0000 
     29 NBH        12.8930    1.9120  -13.0910 N.4       1 1FV301      0.0000 
     30 CAQ        12.8260    2.7920  -14.2720 C.3       1 1FV301      0.0000 
     31 CAK        12.6830    4.2270  -13.8450 C.3       1 1FV301      0.0000 
     32 OAY        13.3090    4.4610  -12.5920 O.3       1 1FV301      0.0000 
     33 CAL        12.5950    3.7950  -11.5590 C.3       1 1FV301      0.0000 
     34 CAR        12.0520    2.4670  -12.0180 C.3       1 1FV301      0.0000 
@<TRIPOS>BOND
     1    1    2 1    
     2    1    4 1    
     3    2    3 1    
     4    3    4 1    
     5    4    5 1    
     6    5    6 2    
     7    5    7 am   
     8    7    8 1    
     9    8    9 1    
    10    9   10 1    
    11   10   11 1    
    12   11   12 1    
    13   12   13 ar   
    14   12   14 ar   
    15   13   20 ar   
    16   14   15 1    
    17   14   18 ar   
    18   15   16 1    
    19   15   17 1    
    20   16   17 1    
    21   18   19 ar   
    22   19   20 ar   
    23   20   21 1    
    24   21   22 1    
    25   22   23 ar   
    26   22   24 ar   
    27   23   27 ar   
    28   24   25 ar   
    29   25   26 ar   
    30   26   27 ar   
    31   27   28 1    
    32   28   29 1    
    33   29   30 1    
    34   29   34 1    
    35   30   31 1    
    36   31   32 1    
    37   32   33 1    
    38   33   34 1    
@<TRIPOS>SUBSTRUCTURE
     1 1FV301      1 GROUP   
@<TRIPOS>SET

