#    Name: 6i0o_1_GTP
#    Modification time : Fri May 22 19:42:45 2020

@<TRIPOS>MOLECULE
6i0o_1_GTP
   43    45     1     0     1
SMALL
NO_CHARGES


@<TRIPOS>ATOM
      1 PG        -28.8610  -24.2050  -46.6420 P.3       1 GTP601      0.0000 
      2 O1G       -29.4170  -24.0390  -48.0380 O.co2     1 GTP601      0.0000 
      3 O2G       -27.5010  -24.8620  -46.7180 O.co2     1 GTP601      0.0000 
      4 O3G       -29.8040  -25.0600  -45.8250 O.co2     1 GTP601      0.0000 
      5 O3B       -28.7170  -22.7180  -45.9380 O.3       1 GTP601      0.0000 
      6 PB        -28.8480  -21.3060  -46.7860 P.3       1 GTP601      0.0000 
      7 O1B       -27.8560  -21.3180  -47.9280 O.co2     1 GTP601      0.0000 
      8 O2B       -30.2500  -21.1870  -47.3420 O.co2     1 GTP601      0.0000 
      9 O3A       -28.5360  -20.0270  -45.7800 O.3       1 GTP601      0.0000 
     10 PA        -27.1090  -19.1850  -45.7510 P.3       1 GTP601      0.0000 
     11 O1A       -25.9600  -20.1420  -45.5230 O.co2     1 GTP601      0.0000 
     12 O2A       -27.1400  -18.1820  -44.6170 O.co2     1 GTP601      0.0000 
     13 O5'       -26.9190  -18.3810  -47.1940 O.3       1 GTP601      0.0000 
     14 C5'       -26.0910  -18.9420  -48.1920 C.3       1 GTP601      0.0000 
     15 C4'       -25.0580  -17.8820  -48.6900 C.3       1 GTP601      0.0000 
     16 O4'       -24.6750  -17.1630  -47.6680 O.3       1 GTP601      0.0000 
     17 C3'       -23.7810  -18.5800  -49.2040 C.3       1 GTP601      0.0000 
     18 O3'       -23.1120  -17.7950  -50.0940 O.3       1 GTP601      0.0000 
     19 C2'       -22.9700  -18.7510  -47.9090 C.3       1 GTP601      0.0000 
     20 O2'       -21.5230  -19.0210  -48.1940 O.3       1 GTP601      0.0000 
     21 C1'       -23.1330  -17.5640  -47.3650 C.3       1 GTP601      0.0000 
     22 N9        -22.8620  -17.3560  -45.9340 N.pl3     1 GTP601      0.0000 
     23 C8        -23.0960  -18.5950  -45.4320 C.2       1 GTP601      0.0000 
     24 N7        -22.8940  -18.5780  -44.0940 N.2       1 GTP601      0.0000 
     25 C5        -22.5440  -17.3430  -43.7550 C.2       1 GTP601      0.0000 
     26 C6        -22.1920  -16.7130  -42.4000 C.2       1 GTP601      0.0000 
     27 O6        -22.2050  -17.3730  -41.4140 O.2       1 GTP601      0.0000 
     28 N1        -21.8470  -15.3270  -42.3380 N.am      1 GTP601      0.0000 
     29 C2        -21.8330  -14.5280  -43.5420 C.2       1 GTP601      0.0000 
     30 N2        -21.4810  -13.1110  -43.4870 N.pl3     1 GTP601      0.0000 
     31 N3        -22.1690  -15.1410  -44.8280 N.2       1 GTP601      0.0000 
     32 C4        -22.5290  -16.5890  -44.8950 C.2       1 GTP601      0.0000 
     33 H5'       -25.6160  -19.7040  -47.8240 H         1 GTP601      0.0000 
     34 H5''      -26.6380  -19.2330  -48.9380 H         1 GTP601      0.0000 
     35 H4'       -25.4410  -17.3180  -49.3800 H         1 GTP601      0.0000 
     36 H3'       -23.9940  -19.4430  -49.5900 H         1 GTP601      0.0000 
     37 H2'       -23.3560  -19.4430  -47.3490 H         1 GTP601      0.0000 
     38 HO2'      -21.2710  -19.7070  -47.7590 H         1 GTP601      0.0000 
     39 H1'       -22.5700  -16.9470  -47.8580 H         1 GTP601      0.0000 
     40 H8        -23.3140  -19.4990  -45.4420 H         1 GTP601      0.0000 
     41 HN1       -21.6490  -14.9670  -41.5830 H         1 GTP601      0.0000 
     42 HN21      -21.4730  -12.6410  -44.2070 H         1 GTP601      0.0000 
     43 HN22      -21.2810  -12.7460  -42.7340 H         1 GTP601      0.0000 
@<TRIPOS>BOND
     1    1    2 ar   
     2    1    3 ar   
     3    1    4 ar   
     4    1    5 1    
     5    5    6 1    
     6    6    7 ar   
     7    6    8 ar   
     8    6    9 1    
     9    9   10 1    
    10   10   11 ar   
    11   10   12 ar   
    12   10   13 1    
    13   13   14 1    
    14   14   15 1    
    15   14   33 1    
    16   14   34 1    
    17   15   16 1    
    18   15   17 1    
    19   15   35 1    
    20   16   21 1    
    21   17   18 1    
    22   17   19 1    
    23   17   36 1    
    24   19   20 1    
    25   19   21 1    
    26   19   37 1    
    27   21   39 1    
    28   21   22 1    
    29   20   38 1    
    30   22   23 1    
    31   22   32 1    
    32   23   24 2    
    33   24   25 1    
    34   23   40 1    
    35   25   26 1    
    36   25   32 2    
    37   26   27 2    
    38   26   28 am   
    39   28   29 1    
    40   29   30 1    
    41   28   41 1    
    42   29   31 2    
    43   31   32 1    
    44   30   42 1    
    45   30   43 1    
@<TRIPOS>SUBSTRUCTURE
     1 GTP601      1 GROUP   
@<TRIPOS>SET
ATOM$ORANGE STATIC     ATOMS   COLORGROUP SYSTEM 
20 14 14 15 15 17 17 19 19 21 21 23 23 25 25 26 26 29 \
29 32 32 

