#    Name: 6i0o_4_GTP
#    Modification time : Fri May 22 19:42:59 2020

@<TRIPOS>MOLECULE
6i0o_4_GTP
   43    45     1     0     1
SMALL
NO_CHARGES


@<TRIPOS>ATOM
      1 PG        -41.2030  -19.1920  -47.2820 P.3       1 GTP602      0.0000 
      2 O1G       -40.6840  -20.2360  -48.2450 O.co2     1 GTP602      0.0000 
      3 O2G       -42.4200  -19.7270  -46.5590 O.co2     1 GTP602      0.0000 
      4 O3G       -40.1290  -18.8670  -46.2670 O.co2     1 GTP602      0.0000 
      5 O3B       -41.6190  -17.8230  -48.1150 O.3       1 GTP602      0.0000 
      6 PB        -41.3060  -17.5670  -49.7200 P.3       1 GTP602      0.0000 
      7 O1B       -41.9250  -16.2580  -50.1560 O.co2     1 GTP602      0.0000 
      8 O2B       -39.8190  -17.5030  -49.9550 O.co2     1 GTP602      0.0000 
      9 O3A       -41.9280  -18.8000  -50.6280 O.3       1 GTP602      0.0000 
     10 PA        -41.0000  -19.8120  -51.5520 P.3       1 GTP602      0.0000 
     11 O1A       -39.6510  -19.1900  -51.8340 O.co2     1 GTP602      0.0000 
     12 O2A       -40.8000  -21.1180  -50.8170 O.co2     1 GTP602      0.0000 
     13 O5'       -41.7840  -20.0840  -52.9880 O.3       1 GTP602      0.0000 
     14 C5'       -43.1720  -19.8300  -53.0730 C.3       1 GTP602      0.0000 
     15 C4'       -43.7020  -20.4440  -54.4100 C.3       1 GTP602      0.0000 
     16 O4'       -44.8910  -19.9780  -54.6900 O.3       1 GTP602      0.0000 
     17 C3'       -42.7710  -20.0200  -55.5610 C.3       1 GTP602      0.0000 
     18 O3'       -42.5840  -21.0460  -56.4320 O.3       1 GTP602      0.0000 
     19 C2'       -43.4970  -18.8500  -56.2530 C.3       1 GTP602      0.0000 
     20 O2'       -43.3300  -18.9480  -57.7400 O.3       1 GTP602      0.0000 
     21 C1'       -44.7570  -18.9480  -55.9300 C.3       1 GTP602      0.0000 
     22 N9        -45.1830  -17.6360  -55.5020 N.pl3     1 GTP602      0.0000 
     23 C8        -46.3140  -17.6010  -56.2430 C.2       1 GTP602      0.0000 
     24 N7        -46.9220  -16.4110  -56.0160 N.2       1 GTP602      0.0000 
     25 C5        -46.1730  -15.7240  -55.1500 C.2       1 GTP602      0.0000 
     26 C6        -46.3200  -14.3340  -54.5100 C.2       1 GTP602      0.0000 
     27 O6        -47.2580  -13.6550  -54.7710 O.2       1 GTP602      0.0000 
     28 N1        -45.3230  -13.8600  -53.5910 N.am      1 GTP602      0.0000 
     29 C2        -44.1840  -14.6920  -53.2730 C.2       1 GTP602      0.0000 
     30 N2        -43.1570  -14.2330  -52.3420 N.pl3     1 GTP602      0.0000 
     31 N3        -44.0500  -16.0100  -53.8840 N.2       1 GTP602      0.0000 
     32 C4        -45.0900  -16.4940  -54.8360 C.2       1 GTP602      0.0000 
     33 H5'       -43.3300  -18.8730  -53.0670 H         1 GTP602      0.0000 
     34 H5''      -43.6260  -20.2420  -52.3210 H         1 GTP602      0.0000 
     35 H4'       -43.7320  -21.4110  -54.3490 H         1 GTP602      0.0000 
     36 H3'       -41.9200  -19.7180  -55.2050 H         1 GTP602      0.0000 
     37 H2'       -43.1410  -18.0070  -55.9310 H         1 GTP602      0.0000 
     38 HO2'      -42.8330  -18.3140  -58.0120 H         1 GTP602      0.0000 
     39 H1'       -45.2810  -19.2550  -56.6870 H         1 GTP602      0.0000 
     40 H8        -46.9660  -17.8950  -56.8370 H         1 GTP602      0.0000 
     41 HN1       -45.4040  -13.0840  -53.2300 H         1 GTP602      0.0000 
     42 HN21      -43.2250  -13.4580  -51.9750 H         1 GTP602      0.0000 
     43 HN22      -42.4840  -14.7370  -52.1620 H         1 GTP602      0.0000 
@<TRIPOS>BOND
     1    1    5 1    
     2    5    6 1    
     3    6    7 ar   
     4    6    8 ar   
     5    6    9 1    
     6    9   10 1    
     7   10   11 ar   
     8   10   12 ar   
     9   10   13 1    
    10   13   14 1    
    11   14   15 1    
    12   14   33 1    
    13   14   34 1    
    14   15   16 1    
    15   15   17 1    
    16   15   35 1    
    17   16   21 1    
    18   17   18 1    
    19   17   19 1    
    20   17   36 1    
    21   19   20 1    
    22   19   21 1    
    23   19   37 1    
    24   21   39 1    
    25   21   22 1    
    26   20   38 1    
    27   22   23 1    
    28   22   32 1    
    29   23   24 2    
    30   24   25 1    
    31   23   40 1    
    32   25   26 1    
    33   25   32 2    
    34   26   27 2    
    35   26   28 am   
    36   28   29 1    
    37   29   30 1    
    38   28   41 1    
    39   29   31 2    
    40   31   32 1    
    41   30   42 1    
    42   30   43 1    
    43    1    2 ar   
    44    1    3 ar   
    45    1    4 ar   
@<TRIPOS>SUBSTRUCTURE
     1 GTP602      1 GROUP   
@<TRIPOS>SET
ATOM$ORANGE STATIC     ATOMS   COLORGROUP SYSTEM 
20 14 14 15 15 17 17 19 19 21 21 23 23 25 25 26 26 29 \
29 32 32 

