#    Name: 6i0o_2_GTP
#    Modification time : Fri May 22 19:42:49 2020

@<TRIPOS>MOLECULE
6i0o_2_GTP
   43    45     1     0     1
SMALL
NO_CHARGES


@<TRIPOS>ATOM
      1 PG        -28.9290  -28.1140  -47.2780 P.3       1 GTP602      0.0000 
      2 O1G       -28.9800  -29.3080  -48.2080 O.co2     1 GTP602      0.0000 
      3 O2G       -28.9420  -26.8460  -48.1010 O.co2     1 GTP602      0.0000 
      4 O3G       -30.1360  -28.1330  -46.3660 O.co2     1 GTP602      0.0000 
      5 O3B       -27.5470  -28.1680  -46.3690 O.3       1 GTP602      0.0000 
      6 PB        -27.4270  -27.6770  -44.7920 P.3       1 GTP602      0.0000 
      7 O1B       -27.9190  -26.2580  -44.6360 O.co2     1 GTP602      0.0000 
      8 O2B       -25.9830  -27.7410  -44.3540 O.co2     1 GTP602      0.0000 
      9 O3A       -28.3240  -28.6690  -43.8220 O.3       1 GTP602      0.0000 
     10 PA        -29.6260  -28.1460  -42.9480 P.3       1 GTP602      0.0000 
     11 O1A       -30.8800  -28.2960  -43.7820 O.co2     1 GTP602      0.0000 
     12 O2A       -29.4420  -26.6920  -42.5750 O.co2     1 GTP602      0.0000 
     13 O5'       -29.7540  -29.0540  -41.5640 O.3       1 GTP602      0.0000 
     14 C5'       -29.1600  -30.3360  -41.5200 C.3       1 GTP602      0.0000 
     15 C4'       -29.5340  -31.0400  -40.1720 C.3       1 GTP602      0.0000 
     16 O4'       -28.6810  -31.9940  -39.9110 O.3       1 GTP602      0.0000 
     17 C3'       -29.4460  -30.0360  -39.0060 C.3       1 GTP602      0.0000 
     18 O3'       -30.4810  -30.2170  -38.1430 O.3       1 GTP602      0.0000 
     19 C2'       -28.1110  -30.3400  -38.2980 C.3       1 GTP602      0.0000 
     20 O2'       -28.3000  -30.2760  -36.8110 O.3       1 GTP602      0.0000 
     21 C1'       -27.7660  -31.5450  -38.6510 C.3       1 GTP602      0.0000 
     22 N9        -26.3760  -31.5090  -39.0570 N.pl3     1 GTP602      0.0000 
     23 C8        -25.9960  -32.5550  -38.2910 C.2       1 GTP602      0.0000 
     24 N7        -24.6700  -32.7550  -38.4790 N.2       1 GTP602      0.0000 
     25 C5        -24.2370  -31.8430  -39.3500 C.2       1 GTP602      0.0000 
     26 C6        -22.8500  -31.5610  -39.9520 C.2       1 GTP602      0.0000 
     27 O6        -21.9190  -32.2310  -39.6480 O.2       1 GTP602      0.0000 
     28 N1        -22.6840  -30.4870  -40.8870 N.am      1 GTP602      0.0000 
     29 C2        -23.8240  -29.6770  -41.2540 C.2       1 GTP602      0.0000 
     30 N2        -23.6760  -28.5780  -42.2020 N.pl3     1 GTP602      0.0000 
     31 N3        -25.1390  -29.9500  -40.6760 N.2       1 GTP602      0.0000 
     32 C4        -25.3040  -31.0690  -39.7060 C.2       1 GTP602      0.0000 
     33 H5'       -28.1960  -30.2480  -41.5830 H         1 GTP602      0.0000 
     34 H5''      -29.4850  -30.8680  -42.2640 H         1 GTP602      0.0000 
     35 H4'       -30.4310  -31.4060  -40.2230 H         1 GTP602      0.0000 
     36 H3'       -29.4430  -29.1280  -39.3470 H         1 GTP602      0.0000 
     37 H2'       -27.4350  -29.7050  -38.5800 H         1 GTP602      0.0000 
     38 HO2'      -27.8100  -29.6600  -36.4900 H         1 GTP602      0.0000 
     39 H1'       -27.8900  -32.1600  -37.9110 H         1 GTP602      0.0000 
     40 H8        -26.0800  -33.2570  -37.6870 H         1 GTP602      0.0000 
     41 HN1       -21.9110  -30.3250  -41.2280 H         1 GTP602      0.0000 
     42 HN21      -22.9070  -28.4090  -42.5480 H         1 GTP602      0.0000 
     43 HN22      -24.3580  -28.1000  -42.4160 H         1 GTP602      0.0000 
@<TRIPOS>BOND
     1    1    2 ar   
     2    1    3 ar   
     3    1    4 ar   
     4    1    5 1    
     5    5    6 1    
     6    6    7 ar   
     7    6    8 ar   
     8    6    9 1    
     9    9   10 1    
    10   10   11 ar   
    11   10   12 ar   
    12   10   13 1    
    13   13   14 1    
    14   14   15 1    
    15   14   33 1    
    16   14   34 1    
    17   15   16 1    
    18   15   17 1    
    19   15   35 1    
    20   16   21 1    
    21   17   18 1    
    22   17   19 1    
    23   17   36 1    
    24   19   20 1    
    25   19   21 1    
    26   19   37 1    
    27   21   39 1    
    28   21   22 1    
    29   20   38 1    
    30   22   23 1    
    31   22   32 1    
    32   23   24 2    
    33   24   25 1    
    34   23   40 1    
    35   25   26 1    
    36   25   32 2    
    37   26   27 2    
    38   26   28 am   
    39   28   29 1    
    40   29   30 1    
    41   28   41 1    
    42   29   31 2    
    43   31   32 1    
    44   30   42 1    
    45   30   43 1    
@<TRIPOS>SUBSTRUCTURE
     1 GTP602      1 GROUP   
@<TRIPOS>SET
ATOM$ORANGE STATIC     ATOMS   COLORGROUP SYSTEM 
20 14 14 15 15 17 17 19 19 21 21 23 23 25 25 26 26 29 \
29 32 32 

