#    Name: 6i0o_3_GTP
#    Modification time : Fri May 22 19:42:56 2020

@<TRIPOS>MOLECULE
6i0o_3_GTP
   43    45     1     0     1
SMALL
NO_CHARGES


@<TRIPOS>ATOM
      1 PG        -37.7230  -17.2550  -48.1020 P.3       1 GTP601      0.0000 
      2 O1G       -37.4440  -16.3200  -49.2590 O.co2     1 GTP601      0.0000 
      3 O2G       -37.9030  -18.6630  -48.6260 O.co2     1 GTP601      0.0000 
      4 O3G       -38.9840  -16.8060  -47.3980 O.co2     1 GTP601      0.0000 
      5 O3B       -36.4540  -17.2180  -47.0470 O.3       1 GTP601      0.0000 
      6 PB        -34.9130  -16.9080  -47.5480 P.3       1 GTP601      0.0000 
      7 O1B       -34.3680  -18.1270  -48.2600 O.co2     1 GTP601      0.0000 
      8 O2B       -34.0470  -16.5760  -46.3530 O.co2     1 GTP601      0.0000 
      9 O3A       -34.9490  -15.6280  -48.5960 O.3       1 GTP601      0.0000 
     10 PA        -33.7110  -14.5460  -48.7760 P.3       1 GTP601      0.0000 
     11 O1A       -34.0440  -13.5730  -49.8860 O.co2     1 GTP601      0.0000 
     12 O2A       -32.4440  -15.2950  -49.1200 O.co2     1 GTP601      0.0000 
     13 O5'       -33.4750  -13.7170  -47.3570 O.3       1 GTP601      0.0000 
     14 C5'       -32.1560  -13.3220  -47.0370 C.3       1 GTP601      0.0000 
     15 C4'       -32.1650  -12.1140  -46.0390 C.3       1 GTP601      0.0000 
     16 O4'       -31.7330  -11.0370  -46.6340 O.3       1 GTP601      0.0000 
     17 C3'       -33.5960  -11.7350  -45.6300 C.3       1 GTP601      0.0000 
     18 O3'       -33.5920  -10.9400  -44.5250 O.3       1 GTP601      0.0000 
     19 C2'       -34.0710  -10.9550  -46.8680 C.3       1 GTP601      0.0000 
     20 O2'       -35.2460  -10.0810  -46.5330 O.3       1 GTP601      0.0000 
     21 C1'       -33.0280  -10.2110  -47.1720 C.3       1 GTP601      0.0000 
     22 N9        -32.7290   -9.8600  -48.5700 N.pl3     1 GTP601      0.0000 
     23 C8        -33.8500  -10.2710  -49.2210 C.2       1 GTP601      0.0000 
     24 N7        -33.7120  -10.0140  -50.5440 N.2       1 GTP601      0.0000 
     25 C5        -32.5300   -9.4370  -50.7250 C.2       1 GTP601      0.0000 
     26 C6        -31.8170   -8.9170  -51.9830 C.2       1 GTP601      0.0000 
     27 O6        -32.3440   -9.0010  -53.0440 O.2       1 GTP601      0.0000 
     28 N1        -30.5130   -8.3330  -51.8670 N.am      1 GTP601      0.0000 
     29 C2        -29.8800   -8.2330  -50.5710 C.2       1 GTP601      0.0000 
     30 N2        -28.5510   -7.6380  -50.4370 N.pl3     1 GTP601      0.0000 
     31 N3        -30.5710   -8.7330  -49.3820 N.2       1 GTP601      0.0000 
     32 C4        -31.9280   -9.3430  -49.5030 C.2       1 GTP601      0.0000 
     33 H5'       -31.6890  -14.0680  -46.6310 H         1 GTP601      0.0000 
     34 H5''      -31.6960  -13.0610  -47.8500 H         1 GTP601      0.0000 
     35 H4'       -31.6280  -12.3080  -45.2550 H         1 GTP601      0.0000 
     36 H3'       -34.1380  -12.5280  -45.4930 H         1 GTP601      0.0000 
     37 H2'       -34.2830  -11.5610  -47.5950 H         1 GTP601      0.0000 
     38 HO2'      -35.0860   -9.2830  -46.7800 H         1 GTP601      0.0000 
     39 H1'       -33.0940   -9.3880  -46.6620 H         1 GTP601      0.0000 
     40 H8        -34.6920  -10.6510  -49.3260 H         1 GTP601      0.0000 
     41 HN1       -30.1100   -8.0380  -52.5670 H         1 GTP601      0.0000 
     42 HN21      -28.1800   -7.5850  -49.6630 H         1 GTP601      0.0000 
     43 HN22      -28.1400   -7.3430  -51.1320 H         1 GTP601      0.0000 
@<TRIPOS>BOND
     1    1    2 ar   
     2    1    3 ar   
     3    1    4 ar   
     4    1    5 1    
     5    5    6 1    
     6    6    7 ar   
     7    6    8 ar   
     8    6    9 1    
     9    9   10 1    
    10   10   11 ar   
    11   10   12 ar   
    12   10   13 1    
    13   13   14 1    
    14   14   15 1    
    15   14   33 1    
    16   14   34 1    
    17   15   16 1    
    18   15   17 1    
    19   15   35 1    
    20   16   21 1    
    21   17   18 1    
    22   17   19 1    
    23   17   36 1    
    24   19   20 1    
    25   19   21 1    
    26   19   37 1    
    27   21   39 1    
    28   21   22 1    
    29   20   38 1    
    30   22   23 1    
    31   22   32 1    
    32   23   24 2    
    33   24   25 1    
    34   23   40 1    
    35   25   26 1    
    36   25   32 2    
    37   26   27 2    
    38   26   28 am   
    39   28   29 1    
    40   29   30 1    
    41   28   41 1    
    42   29   31 2    
    43   31   32 1    
    44   30   42 1    
    45   30   43 1    
@<TRIPOS>SUBSTRUCTURE
     1 GTP601      1 GROUP   
@<TRIPOS>SET
ATOM$ORANGE STATIC     ATOMS   COLORGROUP SYSTEM 
20 14 14 15 15 17 17 19 19 21 21 23 23 25 25 26 26 29 \
29 32 32 

