#    Name: 6hlq_1_G2P
#    Modification time : Fri May 22 19:28:14 2020

@<TRIPOS>MOLECULE
6hlq_1_G2P
   32    34     1     0     0
SMALL
NO_CHARGES


@<TRIPOS>ATOM
      1 PG        147.5220  128.1310  152.1030 P.3       1 G2P3000     0.0000 
      2 O1G       147.1690  128.8300  153.3930 O.co2     1 G2P3000     0.0000 
      3 O2G       149.0040  128.0360  151.8420 O.co2     1 G2P3000     0.0000 
      4 O3G       146.7650  126.8480  151.8610 O.co2     1 G2P3000     0.0000 
      5 O3B       146.9690  129.1270  150.9640 O.3       1 G2P3000     0.0000 
      6 PB        145.5730  129.9070  151.1610 P.3       1 G2P3000     0.0000 
      7 O1B       145.7600  131.0450  152.0870 O.co2     1 G2P3000     0.0000 
      8 O2B       144.4870  128.8940  151.7810 O.co2     1 G2P3000     0.0000 
      9 C3A       144.9740  130.5550  149.5770 C.3       1 G2P3000     0.0000 
     10 PA        143.9180  129.3370  148.7490 P.3       1 G2P3000     0.0000 
     11 O1A       143.3290  128.4340  149.7630 O.co2     1 G2P3000     0.0000 
     12 O2A       142.7310  130.0960  147.9670 O.co2     1 G2P3000     0.0000 
     13 O5'       144.7690  128.4680  147.6950 O.3       1 G2P3000     0.0000 
     14 C5'       144.0920  127.5000  146.8980 C.3       1 G2P3000     0.0000 
     15 C4'       144.8590  127.2050  145.6160 C.3       1 G2P3000     0.0000 
     16 O4'       143.9220  126.7230  144.6520 O.3       1 G2P3000     0.0000 
     17 C3'       145.4970  128.4530  145.0290 C.3       1 G2P3000     0.0000 
     18 O3'       146.8850  128.2170  144.7790 O.3       1 G2P3000     0.0000 
     19 C2'       144.7790  128.7320  143.7240 C.3       1 G2P3000     0.0000 
     20 O2'       145.7120  128.6910  142.6420 O.3       1 G2P3000     0.0000 
     21 C1'       143.7700  127.6140  143.5430 C.3       1 G2P3000     0.0000 
     22 N9        142.3900  128.1710  143.5250 N.pl3     1 G2P3000     0.0000 
     23 C8        141.5170  128.1190  144.5490 C.2       1 G2P3000     0.0000 
     24 N7        140.3440  128.7170  144.2310 N.2       1 G2P3000     0.0000 
     25 C5        140.4540  129.1670  142.9710 C.2       1 G2P3000     0.0000 
     26 C6        139.5770  129.8940  142.0250 C.2       1 G2P3000     0.0000 
     27 O6        138.4190  130.2310  142.3480 O.2       1 G2P3000     0.0000 
     28 N1        140.0640  130.1750  140.8130 N.am      1 G2P3000     0.0000 
     29 C2        141.3060  129.8240  140.4390 C.2       1 G2P3000     0.0000 
     30 N2        141.7060  130.1550  139.1920 N.pl3     1 G2P3000     0.0000 
     31 N3        142.1670  129.1570  141.2520 N.2       1 G2P3000     0.0000 
     32 C4        141.8020  128.8070  142.5080 C.2       1 G2P3000     0.0000 
@<TRIPOS>BOND
     1    1    2 ar   
     2    1    3 ar   
     3    1    4 ar   
     4    1    5 1    
     5    5    6 1    
     6    6    7 ar   
     7    6    8 ar   
     8    6    9 1    
     9    9   10 1    
    10   10   11 ar   
    11   10   12 ar   
    12   10   13 1    
    13   13   14 1    
    14   14   15 1    
    15   15   16 1    
    16   15   17 1    
    17   16   21 1    
    18   17   18 1    
    19   17   19 1    
    20   19   20 1    
    21   19   21 1    
    22   21   22 1    
    23   22   23 1    
    24   22   32 1    
    25   23   24 2    
    26   24   25 1    
    27   25   26 1    
    28   25   32 2    
    29   26   27 2    
    30   26   28 am   
    31   28   29 1    
    32   29   30 1    
    33   29   31 2    
    34   31   32 1    
@<TRIPOS>SUBSTRUCTURE
     1 G2P3000     1 GROUP   
@<TRIPOS>SET

