#    Name: 6hlq_1_G2P_CAVITY_N1_4
#    Modification time : Fri May 22 19:28:16 2020

@<TRIPOS>MOLECULE
6hlq_1_G2P_CAVITY_N1_4
   14     0     5     0     0
SMALL
NO_CHARGES


@<TRIPOS>ATOM
      1 N         146.2300  126.7300  144.7400 N.am      1 ALA2        0.0000 
      2 N         148.5600  126.1600  145.7300 N.am      1 ALA2        0.0000 
      3 N         149.3500  127.0400  146.6500 N.am      1 ALA2        0.0000 
      4 OD1       151.5300  126.4400  150.2400 O.co2     2 ASP3        0.0000 
      5 NZ        146.5300  125.5500  145.6100 N.4       3 LYS4        0.0000 
      6 NZ        145.2900  125.8200  146.4000 N.4       3 LYS4        0.0000 
      7 NZ        147.3200  126.4300  146.5300 N.4       3 LYS4        0.0000 
      8 NZ        146.0800  126.7000  147.3300 N.4       3 LYS4        0.0000 
      9 NZ        148.4100  126.1300  148.3200 N.4       3 LYS4        0.0000 
     10 NZ        147.1700  126.4000  149.1200 N.4       3 LYS4        0.0000 
     11 NZ        150.7400  125.5600  149.3200 N.4       3 LYS4        0.0000 
     12 CA        148.7100  124.9400  149.1900 C.3       4 GLY6        0.0000 
     13 CA        152.3100  127.3200  151.1700 C.3       4 GLY6        0.0000 
     14 DU        150.4400  126.7400  148.4500 H         5 CUB7        0.0000 
@<TRIPOS>BOND
@<TRIPOS>SUBSTRUCTURE
     1 ALA2        1 GROUP   
     2 ASP3        4 GROUP   
     3 LYS4        5 GROUP   
     4 GLY6       12 GROUP   
     5 CUB7       14 GROUP   
@<TRIPOS>SET

