#    Name: 6hlq_1_G2P_CAVITY_N1_6
#    Modification time : Fri May 22 19:28:16 2020

@<TRIPOS>MOLECULE
6hlq_1_G2P_CAVITY_N1_6
   28     0     5     0     0
SMALL
NO_CHARGES


@<TRIPOS>ATOM
      1 N         146.2300  126.7300  144.7400 N.am      1 ALA2        0.0000 
      2 N         148.5600  126.1600  145.7300 N.am      1 ALA2        0.0000 
      3 N         150.8900  125.5900  146.7200 N.am      1 ALA2        0.0000 
      4 N         149.3500  127.0400  146.6500 N.am      1 ALA2        0.0000 
      5 N         152.6100  127.3900  145.9800 N.am      1 ALA2        0.0000 
      6 O         153.0700  124.9800  150.3100 O.2       1 ALA2        0.0000 
      7 O         153.8600  125.8700  151.2400 O.2       1 ALA2        0.0000 
      8 OD1       151.8300  125.2500  151.1100 O.co2     2 ASP3        0.0000 
      9 OD1       151.5300  126.4400  150.2400 O.co2     2 ASP3        0.0000 
     10 NZ        146.5300  125.5500  145.6100 N.4       3 LYS4        0.0000 
     11 NZ        145.2900  125.8200  146.4000 N.4       3 LYS4        0.0000 
     12 NZ        147.3200  126.4300  146.5300 N.4       3 LYS4        0.0000 
     13 NZ        146.0800  126.7000  147.3300 N.4       3 LYS4        0.0000 
     14 NZ        148.4100  126.1300  148.3200 N.4       3 LYS4        0.0000 
     15 NZ        147.1700  126.4000  149.1200 N.4       3 LYS4        0.0000 
     16 NZ        151.9800  125.2900  148.5200 N.4       3 LYS4        0.0000 
     17 NZ        150.7400  125.5600  149.3200 N.4       3 LYS4        0.0000 
     18 NZ        152.7700  126.1700  149.4400 N.4       3 LYS4        0.0000 
     19 CA        150.1000  124.7100  145.8000 C.3       4 GLY6        0.0000 
     20 CA        148.8600  124.9800  146.6000 C.3       4 GLY6        0.0000 
     21 CA        149.9500  124.6800  148.3900 C.3       4 GLY6        0.0000 
     22 CA        149.6500  125.8600  147.5200 C.3       4 GLY6        0.0000 
     23 CA        148.7100  124.9400  149.1900 C.3       4 GLY6        0.0000 
     24 CA        153.5500  127.0500  150.3700 C.3       4 GLY6        0.0000 
     25 CA        152.3100  127.3200  151.1700 C.3       4 GLY6        0.0000 
     26 CA        154.3400  127.9300  151.2900 C.3       4 GLY6        0.0000 
     27 DU        151.6800  126.4700  147.6500 H         5 CUB7        0.0000 
     28 DU        150.4400  126.7400  148.4500 H         5 CUB7        0.0000 
@<TRIPOS>BOND
@<TRIPOS>SUBSTRUCTURE
     1 ALA2        1 GROUP   
     2 ASP3        8 GROUP   
     3 LYS4       10 GROUP   
     4 GLY6       19 GROUP   
     5 CUB7       27 GROUP   
@<TRIPOS>SET

