#    Name: 6hlq_1_G2P_CAVITY_N1_8
#    Modification time : Fri May 22 19:28:16 2020

@<TRIPOS>MOLECULE
6hlq_1_G2P_CAVITY_N1_8
   48     0     5     0     0
SMALL
NO_CHARGES


@<TRIPOS>ATOM
      1 N         146.2300  126.7300  144.7400 N.am      1 ALA2        0.0000 
      2 N         148.5600  126.1600  145.7300 N.am      1 ALA2        0.0000 
      3 N         152.4300  124.1400  146.7900 N.am      1 ALA2        0.0000 
      4 N         152.1300  125.3200  145.9200 N.am      1 ALA2        0.0000 
      5 N         150.8900  125.5900  146.7200 N.am      1 ALA2        0.0000 
      6 N         149.3500  127.0400  146.6500 N.am      1 ALA2        0.0000 
      7 N         152.6100  127.3900  145.9800 N.am      1 ALA2        0.0000 
      8 O         153.0700  124.9800  150.3100 O.2       1 ALA2        0.0000 
      9 O         155.1000  125.6000  150.4400 O.2       1 ALA2        0.0000 
     10 O         153.8600  125.8700  151.2400 O.2       1 ALA2        0.0000 
     11 N         156.1900  125.2900  152.2300 N.am      1 ALA2        0.0000 
     12 N         156.6700  127.3600  152.2900 N.am      1 ALA2        0.0000 
     13 OD1       151.8300  125.2500  151.1100 O.co2     2 ASP3        0.0000 
     14 OD1       151.5300  126.4400  150.2400 O.co2     2 ASP3        0.0000 
     15 NZ        146.5300  125.5500  145.6100 N.4       3 LYS4        0.0000 
     16 NZ        145.2900  125.8200  146.4000 N.4       3 LYS4        0.0000 
     17 NZ        147.3200  126.4300  146.5300 N.4       3 LYS4        0.0000 
     18 NZ        146.0800  126.7000  147.3300 N.4       3 LYS4        0.0000 
     19 NZ        151.1900  124.4100  147.5900 N.4       3 LYS4        0.0000 
     20 NZ        148.4100  126.1300  148.3200 N.4       3 LYS4        0.0000 
     21 NZ        147.1700  126.4000  149.1200 N.4       3 LYS4        0.0000 
     22 NZ        153.2200  125.0200  147.7200 N.4       3 LYS4        0.0000 
     23 NZ        151.9800  125.2900  148.5200 N.4       3 LYS4        0.0000 
     24 NZ        150.7400  125.5600  149.3200 N.4       3 LYS4        0.0000 
     25 NZ        154.3100  124.7200  149.5100 N.4       3 LYS4        0.0000 
     26 NZ        154.0100  125.9000  148.6400 N.4       3 LYS4        0.0000 
     27 NZ        152.7700  126.1700  149.4400 N.4       3 LYS4        0.0000 
     28 CA        150.1000  124.7100  145.8000 C.3       4 GLY6        0.0000 
     29 CA        148.8600  124.9800  146.6000 C.3       4 GLY6        0.0000 
     30 CA        153.0700  126.2400  144.2600 C.3       4 GLY6        0.0000 
     31 CA        149.9500  124.6800  148.3900 C.3       4 GLY6        0.0000 
     32 CA        149.6500  125.8600  147.5200 C.3       4 GLY6        0.0000 
     33 CA        148.7100  124.9400  149.1900 C.3       4 GLY6        0.0000 
     34 CA        154.1600  125.9300  146.0500 C.3       4 GLY6        0.0000 
     35 CA        153.8500  127.1200  145.1800 C.3       4 GLY6        0.0000 
     36 CA        155.2500  125.6300  147.8400 C.3       4 GLY6        0.0000 
     37 CA        153.5500  127.0500  150.3700 C.3       4 GLY6        0.0000 
     38 CA        152.3100  127.3200  151.1700 C.3       4 GLY6        0.0000 
     39 CA        155.8900  126.4800  151.3600 C.3       4 GLY6        0.0000 
     40 CA        155.5800  127.6600  150.4900 C.3       4 GLY6        0.0000 
     41 CA        154.3400  127.9300  151.2900 C.3       4 GLY6        0.0000 
     42 CA        156.3700  128.5400  151.4200 C.3       4 GLY6        0.0000 
     43 DU        152.9200  126.2000  146.8500 H         5 CUB7        0.0000 
     44 DU        151.6800  126.4700  147.6500 H         5 CUB7        0.0000 
     45 DU        150.4400  126.7400  148.4500 H         5 CUB7        0.0000 
     46 DU        154.9400  126.8200  146.9700 H         5 CUB7        0.0000 
     47 DU        156.0400  126.5100  148.7700 H         5 CUB7        0.0000 
     48 DU        154.7900  126.7800  149.5700 H         5 CUB7        0.0000 
@<TRIPOS>BOND
@<TRIPOS>SUBSTRUCTURE
     1 ALA2        1 GROUP   
     2 ASP3       13 GROUP   
     3 LYS4       15 GROUP   
     4 GLY6       28 GROUP   
     5 CUB7       43 GROUP   
@<TRIPOS>SET

