#    Name: 6hlq_1_G2P_CAVITY_N1_ALL
#    Modification time : Fri May 22 19:28:16 2020

@<TRIPOS>MOLECULE
6hlq_1_G2P_CAVITY_N1_ALL
   76     0     5     0     0
SMALL
NO_CHARGES


@<TRIPOS>ATOM
      1 N         146.2300  126.7300  144.7400 N.am      1 ALA2        0.0000 
      2 N         148.5600  126.1600  145.7300 N.am      1 ALA2        0.0000 
      3 N         153.6700  123.8700  145.9900 N.am      1 ALA2        0.0000 
      4 N         152.4300  124.1400  146.7900 N.am      1 ALA2        0.0000 
      5 N         152.1300  125.3200  145.9200 N.am      1 ALA2        0.0000 
      6 N         150.8900  125.5900  146.7200 N.am      1 ALA2        0.0000 
      7 N         149.3500  127.0400  146.6500 N.am      1 ALA2        0.0000 
      8 N         154.7900  128.0300  143.5100 N.am      1 ALA2        0.0000 
      9 N         152.6100  127.3900  145.9800 N.am      1 ALA2        0.0000 
     10 O         153.0700  124.9800  150.3100 O.2       1 ALA2        0.0000 
     11 O         155.1000  125.6000  150.4400 O.2       1 ALA2        0.0000 
     12 O         153.8600  125.8700  151.2400 O.2       1 ALA2        0.0000 
     13 N         158.3700  125.9400  149.7600 N.am      1 ALA2        0.0000 
     14 N         157.4300  125.0300  151.4300 N.am      1 ALA2        0.0000 
     15 N         157.1300  126.2100  150.5600 N.am      1 ALA2        0.0000 
     16 N         156.1900  125.2900  152.2300 N.am      1 ALA2        0.0000 
     17 N         159.1500  126.8200  150.6900 N.am      1 ALA2        0.0000 
     18 N         157.9100  127.0900  151.4900 N.am      1 ALA2        0.0000 
     19 N         156.6700  127.3600  152.2900 N.am      1 ALA2        0.0000 
     20 N         157.1600  129.4200  152.3400 N.am      1 ALA2        0.0000 
     21 OD1       151.8300  125.2500  151.1100 O.co2     2 ASP3        0.0000 
     22 OD1       151.5300  126.4400  150.2400 O.co2     2 ASP3        0.0000 
     23 OD1       157.7600  128.3100  148.0200 O.co2     2 ASP3        0.0000 
     24 OD1       158.8500  128.0100  149.8200 O.co2     2 ASP3        0.0000 
     25 OD1       157.6100  128.2700  150.6200 O.co2     2 ASP3        0.0000 
     26 OD1       158.4000  129.1600  151.5400 O.co2     2 ASP3        0.0000 
     27 NZ        146.5300  125.5500  145.6100 N.4       3 LYS4        0.0000 
     28 NZ        145.2900  125.8200  146.4000 N.4       3 LYS4        0.0000 
     29 NZ        147.3200  126.4300  146.5300 N.4       3 LYS4        0.0000 
     30 NZ        146.0800  126.7000  147.3300 N.4       3 LYS4        0.0000 
     31 NZ        151.1900  124.4100  147.5900 N.4       3 LYS4        0.0000 
     32 NZ        148.4100  126.1300  148.3200 N.4       3 LYS4        0.0000 
     33 NZ        147.1700  126.4000  149.1200 N.4       3 LYS4        0.0000 
     34 NZ        154.7700  123.5700  147.7900 N.4       3 LYS4        0.0000 
     35 NZ        153.2200  125.0200  147.7200 N.4       3 LYS4        0.0000 
     36 NZ        151.9800  125.2900  148.5200 N.4       3 LYS4        0.0000 
     37 NZ        150.7400  125.5600  149.3200 N.4       3 LYS4        0.0000 
     38 NZ        154.3100  124.7200  149.5100 N.4       3 LYS4        0.0000 
     39 NZ        154.0100  125.9000  148.6400 N.4       3 LYS4        0.0000 
     40 NZ        152.7700  126.1700  149.4400 N.4       3 LYS4        0.0000 
     41 CA        150.1000  124.7100  145.8000 C.3       4 GLY6        0.0000 
     42 CA        148.8600  124.9800  146.6000 C.3       4 GLY6        0.0000 
     43 CA        153.0700  126.2400  144.2600 C.3       4 GLY6        0.0000 
     44 CA        149.9500  124.6800  148.3900 C.3       4 GLY6        0.0000 
     45 CA        149.6500  125.8600  147.5200 C.3       4 GLY6        0.0000 
     46 CA        148.7100  124.9400  149.1900 C.3       4 GLY6        0.0000 
     47 CA        155.7000  124.4800  146.1200 C.3       4 GLY6        0.0000 
     48 CA        155.4000  125.6700  145.2500 C.3       4 GLY6        0.0000 
     49 CA        155.0900  126.8500  144.3800 C.3       4 GLY6        0.0000 
     50 CA        154.4600  124.7500  146.9200 C.3       4 GLY6        0.0000 
     51 CA        154.1600  125.9300  146.0500 C.3       4 GLY6        0.0000 
     52 CA        153.8500  127.1200  145.1800 C.3       4 GLY6        0.0000 
     53 CA        156.4900  125.3600  147.0400 C.3       4 GLY6        0.0000 
     54 CA        156.1800  126.5500  146.1700 C.3       4 GLY6        0.0000 
     55 CA        155.8800  127.7300  145.3000 C.3       4 GLY6        0.0000 
     56 CA        155.5500  124.4500  148.7100 C.3       4 GLY6        0.0000 
     57 CA        155.2500  125.6300  147.8400 C.3       4 GLY6        0.0000 
     58 CA        157.5800  125.0600  148.8400 C.3       4 GLY6        0.0000 
     59 CA        157.2800  126.2400  147.9700 C.3       4 GLY6        0.0000 
     60 CA        156.6400  124.1400  150.5100 C.3       4 GLY6        0.0000 
     61 CA        156.3400  125.3300  149.6400 C.3       4 GLY6        0.0000 
     62 CA        153.5500  127.0500  150.3700 C.3       4 GLY6        0.0000 
     63 CA        152.3100  127.3200  151.1700 C.3       4 GLY6        0.0000 
     64 CA        158.0600  127.1300  148.8900 C.3       4 GLY6        0.0000 
     65 CA        155.8900  126.4800  151.3600 C.3       4 GLY6        0.0000 
     66 CA        155.5800  127.6600  150.4900 C.3       4 GLY6        0.0000 
     67 CA        154.3400  127.9300  151.2900 C.3       4 GLY6        0.0000 
     68 CA        156.3700  128.5400  151.4200 C.3       4 GLY6        0.0000 
     69 DU        152.9200  126.2000  146.8500 H         5 CUB7        0.0000 
     70 DU        151.6800  126.4700  147.6500 H         5 CUB7        0.0000 
     71 DU        150.4400  126.7400  148.4500 H         5 CUB7        0.0000 
     72 DU        154.9400  126.8200  146.9700 H         5 CUB7        0.0000 
     73 DU        156.9700  127.4300  147.1000 H         5 CUB7        0.0000 
     74 DU        156.0400  126.5100  148.7700 H         5 CUB7        0.0000 
     75 DU        154.7900  126.7800  149.5700 H         5 CUB7        0.0000 
     76 DU        156.8200  127.3900  149.6900 H         5 CUB7        0.0000 
@<TRIPOS>BOND
@<TRIPOS>SUBSTRUCTURE
     1 ALA2        1 GROUP   
     2 ASP3       21 GROUP   
     3 LYS4       27 GROUP   
     4 GLY6       41 GROUP   
     5 CUB7       69 GROUP   
@<TRIPOS>SET

