#    Name: 5z97_3_ZER
#    Modification time : Fri May 22 19:33:13 2020

@<TRIPOS>MOLECULE
5z97_3_ZER
   23    24     1     0     0
SMALL
NO_CHARGES


@<TRIPOS>ATOM
      1 O12        -6.3690   -0.3710  101.0690           1 ZER301      0.0000 
      2 C12        -6.1460    0.2220  102.1320           1 ZER301      0.0000 
      3 O10        -5.1850    1.1820  102.2220           1 ZER301      0.0000 
      4 C10        -4.5560    1.5800  100.9600           1 ZER301      0.0000 
      5 C11        -5.5660    2.2360   99.9980           1 ZER301      0.0000 
      6 C9P        -3.3990    2.5540  101.2980           1 ZER301      0.0000 
      7 C1         -7.0710    0.2050  103.2030           1 ZER301      0.0000 
      8 C2         -8.3730   -0.2870  102.9740           1 ZER301      0.0000 
      9 O2         -8.6800   -0.8350  101.7530           1 ZER301      0.0000 
     10 C3         -9.3460   -0.2670  103.9560           1 ZER301      0.0000 
     11 C4         -9.0430    0.2210  105.2140           1 ZER301      0.0000 
     12 O4        -10.0080    0.2280  106.1570           1 ZER301      0.0000 
     13 C5         -7.7820    0.7510  105.4750           1 ZER301      0.0000 
     14 C6         -6.7860    0.7680  104.4840           1 ZER301      0.0000 
     15 C1P        -5.5240    1.3130  104.8340           1 ZER301      0.0000 
     16 C2P        -4.9890    1.2580  106.1220           1 ZER301      0.0000 
     17 C3P        -3.6780    1.6830  106.3920           1 ZER301      0.0000 
     18 C4P        -3.5660    3.1980  106.2680           1 ZER301      0.0000 
     19 C5P        -2.5590    3.6240  105.1650           1 ZER301      0.0000 
     20 C6P        -3.1650    4.5030  104.2510           1 ZER301      0.0000 
     21 O6P        -3.8620    5.4310  104.6790           1 ZER301      0.0000 
     22 C7P        -2.7950    4.4740  102.8780           1 ZER301      0.0000 
     23 C8P        -3.9000    3.8450  102.0040           1 ZER301      0.0000 
@<TRIPOS>BOND
     1    1    2 du   
     2    2    3 du   
     3    2    7 du   
     4    3    4 du   
     5    4    5 du   
     6    4    6 du   
     7    6   23 du   
     8    7    8 du   
     9    7   14 du   
    10    8    9 du   
    11    8   10 du   
    12   10   11 du   
    13   11   12 du   
    14   11   13 du   
    15   13   14 du   
    16   14   15 du   
    17   15   16 du   
    18   16   17 du   
    19   17   18 du   
    20   18   19 du   
    21   19   20 du   
    22   20   21 du   
    23   20   22 du   
    24   22   23 du   
@<TRIPOS>SUBSTRUCTURE
     1 ZER301      1 GROUP   
@<TRIPOS>SET

