#    Name: 5z97_2_ZER
#    Modification time : Fri May 22 19:33:10 2020

@<TRIPOS>MOLECULE
5z97_2_ZER
   23    24     1     0     0
SMALL
NO_CHARGES


@<TRIPOS>ATOM
      1 O12        -0.2820    9.4590   50.5260           1 ZER301      0.0000 
      2 C12        -0.5910    9.4900   51.7320           1 ZER301      0.0000 
      3 O10        -1.8190    9.9320   52.1650           1 ZER301      0.0000 
      4 C10        -2.8140   10.1860   51.1240           1 ZER301      0.0000 
      5 C11        -3.4820    8.8720   50.7170           1 ZER301      0.0000 
      6 C9P        -3.8660   11.1790   51.6510           1 ZER301      0.0000 
      7 C1          0.1400    8.7600   52.7090           1 ZER301      0.0000 
      8 C2          0.8570    7.6150   52.2930           1 ZER301      0.0000 
      9 O2          0.8590    7.3170   50.9500           1 ZER301      0.0000 
     10 C3          1.5120    6.7870   53.1910           1 ZER301      0.0000 
     11 C4          1.4780    7.0960   54.5460           1 ZER301      0.0000 
     12 O4          2.1310    6.3000   55.4150           1 ZER301      0.0000 
     13 C5          0.7730    8.2180   54.9840           1 ZER301      0.0000 
     14 C6          0.0780    9.0460   54.0900           1 ZER301      0.0000 
     15 C1P        -0.5480   10.2220   54.5750           1 ZER301      0.0000 
     16 C2P        -0.8470   10.5430   55.9200           1 ZER301      0.0000 
     17 C3P        -1.4150   11.8130   56.2320           1 ZER301      0.0000 
     18 C4P        -2.8940   11.6500   56.6390           1 ZER301      0.0000 
     19 C5P        -3.8500   12.3410   55.6290           1 ZER301      0.0000 
     20 C6P        -4.6810   11.3890   55.0140           1 ZER301      0.0000 
     21 O6P        -4.9530   10.3460   55.6070           1 ZER301      0.0000 
     22 C7P        -5.2650   11.6150   53.7440           1 ZER301      0.0000 
     23 C8P        -4.7300   10.5520   52.7530           1 ZER301      0.0000 
@<TRIPOS>BOND
     1    1    2 du   
     2    2    3 du   
     3    2    7 du   
     4    3    4 du   
     5    4    5 du   
     6    4    6 du   
     7    6   23 du   
     8    7    8 du   
     9    7   14 du   
    10    8    9 du   
    11    8   10 du   
    12   10   11 du   
    13   11   12 du   
    14   11   13 du   
    15   13   14 du   
    16   14   15 du   
    17   15   16 du   
    18   16   17 du   
    19   17   18 du   
    20   18   19 du   
    21   19   20 du   
    22   20   21 du   
    23   20   22 du   
    24   22   23 du   
@<TRIPOS>SUBSTRUCTURE
     1 ZER301      1 GROUP   
@<TRIPOS>SET

