#    Name: 5z97_1_ZER
#    Modification time : Fri May 22 19:33:07 2020

@<TRIPOS>MOLECULE
5z97_1_ZER
   23    24     1     0     0
SMALL
NO_CHARGES


@<TRIPOS>ATOM
      1 O12        -0.6240   34.2000   74.9940           1 ZER301      0.0000 
      2 C12        -0.8500   34.2140   73.7820           1 ZER301      0.0000 
      3 O10        -1.9310   33.5670   73.2780           1 ZER301      0.0000 
      4 C10        -3.0820   33.4040   74.1760           1 ZER301      0.0000 
      5 C11        -3.7760   34.7460   74.4440           1 ZER301      0.0000 
      6 C9P        -4.1250   32.4700   73.5300           1 ZER301      0.0000 
      7 C1         -0.1030   34.9920   72.8580           1 ZER301      0.0000 
      8 C2          0.6060   36.1120   73.3200           1 ZER301      0.0000 
      9 O2          0.6340   36.3240   74.6620           1 ZER301      0.0000 
     10 C3          1.3270   36.9520   72.4790           1 ZER301      0.0000 
     11 C4          1.3400   36.7080   71.1060           1 ZER301      0.0000 
     12 O4          2.0280   37.5270   70.2490           1 ZER301      0.0000 
     13 C5          0.6450   35.6070   70.6140           1 ZER301      0.0000 
     14 C6         -0.0530   34.7340   71.4610           1 ZER301      0.0000 
     15 C1P        -0.6660   33.6170   70.8610           1 ZER301      0.0000 
     16 C2P        -0.9000   33.4890   69.4770           1 ZER301      0.0000 
     17 C3P        -1.4640   32.3130   68.9090           1 ZER301      0.0000 
     18 C4P        -2.8760   32.5880   68.3930           1 ZER301      0.0000 
     19 C5P        -3.8860   31.6100   69.0370           1 ZER301      0.0000 
     20 C6P        -4.8510   32.2930   69.8050           1 ZER301      0.0000 
     21 O6P        -5.6050   33.1150   69.2650           1 ZER301      0.0000 
     22 C7P        -5.0310   31.8910   71.1660           1 ZER301      0.0000 
     23 C8P        -4.7280   33.0170   72.1900           1 ZER301      0.0000 
@<TRIPOS>BOND
     1    1    2 du   
     2    2    3 du   
     3    2    7 du   
     4    3    4 du   
     5    4    5 du   
     6    4    6 du   
     7    6   23 du   
     8    7    8 du   
     9    7   14 du   
    10    8    9 du   
    11    8   10 du   
    12   10   11 du   
    13   11   12 du   
    14   11   13 du   
    15   13   14 du   
    16   14   15 du   
    17   15   16 du   
    18   16   17 du   
    19   17   18 du   
    20   18   19 du   
    21   19   20 du   
    22   20   21 du   
    23   20   22 du   
    24   22   23 du   
@<TRIPOS>SUBSTRUCTURE
     1 ZER301      1 GROUP   
@<TRIPOS>SET

