#    Name: 6jon_1_DTP_CAVITY_N1_6
#    Modification time : Fri May 22 19:36:27 2020

@<TRIPOS>MOLECULE
6jon_1_DTP_CAVITY_N1_6
   83     0     7     0     0
SMALL
NO_CHARGES


@<TRIPOS>ATOM
      1 OG        -16.2400   20.8300    0.9500 O.3       1 SER1        0.0000 
      2 OG        -14.9300   21.0300    0.2500 O.3       1 SER1        0.0000 
      3 OG        -13.9600   21.2400    2.1200 O.3       1 SER1        0.0000 
      4 OG        -12.3600   25.8300    3.1800 O.3       1 SER1        0.0000 
      5 N         -17.8400   20.4000   -5.3800 N.am      2 ALA2        0.0000 
      6 N         -14.5500   21.9200   -8.4400 N.am      2 ALA2        0.0000 
      7 N         -16.2100   19.6700   -2.5400 N.am      2 ALA2        0.0000 
      8 N         -16.8700   20.6100   -3.5000 N.am      2 ALA2        0.0000 
      9 N         -14.2400   21.0000   -4.9000 N.am      2 ALA2        0.0000 
     10 N         -14.9000   21.9400   -5.8700 N.am      2 ALA2        0.0000 
     11 O         -15.2400   19.8800   -0.6600 O.2       2 ALA2        0.0000 
     12 N         -15.9000   20.8200   -1.6300 N.am      2 ALA2        0.0000 
     13 N         -14.5800   23.0900   -4.9600 N.am      2 ALA2        0.0000 
     14 O         -13.2700   23.2800   -5.6600 O.2       2 ALA2        0.0000 
     15 O         -12.3000   23.4900   -3.7800 O.2       2 ALA2        0.0000 
     16 O         -12.9600   24.4400   -4.7500 O.2       2 ALA2        0.0000 
     17 OD1       -17.1800   21.5300   -7.0400 O.co2     3 ASP3        0.0000 
     18 OD1       -17.5200   21.5500   -4.4700 O.co2     3 ASP3        0.0000 
     19 OD1       -16.8600   22.6900   -6.1300 O.co2     3 ASP3        0.0000 
     20 OD1       -17.8600   21.5600   -1.8900 O.co2     3 ASP3        0.0000 
     21 OD1       -16.5500   21.7600   -2.5900 O.co2     3 ASP3        0.0000 
     22 OD1       -15.9000   22.9000   -4.2600 O.co2     3 ASP3        0.0000 
     23 OD1       -16.5500   23.8400   -5.2300 O.co2     3 ASP3        0.0000 
     24 OD1       -17.5500   22.7200   -0.9800 O.co2     3 ASP3        0.0000 
     25 OD1       -16.2400   22.9100   -1.6800 O.co2     3 ASP3        0.0000 
     26 OD1       -16.8900   23.8500   -2.6500 O.co2     3 ASP3        0.0000 
     27 OD1       -15.5800   24.0500   -3.3500 O.co2     3 ASP3        0.0000 
     28 OD1       -16.2400   24.9900   -4.3200 O.co2     3 ASP3        0.0000 
     29 OD1       -18.2000   25.7400   -4.5800 O.co2     3 ASP3        0.0000 
     30 OD1       -14.6100   22.1800    1.1600 O.co2     3 ASP3        0.0000 
     31 OD1       -15.2700   23.1200    0.1900 O.co2     3 ASP3        0.0000 
     32 OD1       -13.9600   23.3100   -0.5100 O.co2     3 ASP3        0.0000 
     33 OD1       -13.3000   24.4500   -2.1800 O.co2     3 ASP3        0.0000 
     34 OD1       -11.9900   24.6500   -2.8800 O.co2     3 ASP3        0.0000 
     35 OD1       -12.9900   23.5200    1.3700 O.co2     3 ASP3        0.0000 
     36 OD1       -13.6400   24.4700    0.4000 O.co2     3 ASP3        0.0000 
     37 OD1       -15.6100   25.2100    0.1300 O.co2     3 ASP3        0.0000 
     38 OD1       -12.9900   25.6000   -1.2700 O.co2     3 ASP3        0.0000 
     39 OD1       -12.6700   24.6700    2.2800 O.co2     3 ASP3        0.0000 
     40 OD1       -13.3300   25.6200    1.3100 O.co2     3 ASP3        0.0000 
     41 OD1       -12.0200   25.8100    0.6100 O.co2     3 ASP3        0.0000 
     42 NZ        -16.5800   22.9200    0.8900 N.4       4 LYS4        0.0000 
     43 NZ        -17.2400   23.8700   -0.0800 N.4       4 LYS4        0.0000 
     44 NZ        -16.5800   25.0000   -1.7400 N.4       4 LYS4        0.0000 
     45 NZ        -17.2300   25.9400   -2.7100 N.4       4 LYS4        0.0000 
     46 NZ        -16.2700   26.1500   -0.8300 N.4       4 LYS4        0.0000 
     47 NZ        -16.9200   27.1000   -1.8000 N.4       4 LYS4        0.0000 
     48 NZ        -15.3000   26.3600    1.0400 N.4       4 LYS4        0.0000 
     49 NZ        -13.9800   26.5600    0.3400 N.4       4 LYS4        0.0000 
     50 NZ        -15.9500   27.3100    0.0800 N.4       4 LYS4        0.0000 
     51 NZ        -14.6400   27.5000   -0.6200 N.4       4 LYS4        0.0000 
     52 NZ        -13.6700   27.7100    1.2500 N.4       4 LYS4        0.0000 
     53 CZ        -17.4900   20.3800   -7.9500 C.ar      5 PHE5        0.0000 
     54 CZ        -16.5200   20.5900   -6.0800 C.ar      5 PHE5        0.0000 
     55 CZ        -15.2100   20.7900   -6.7800 C.ar      5 PHE5        0.0000 
     56 CZ        -14.9000   19.8600   -3.2400 C.ar      5 PHE5        0.0000 
     57 CZ        -15.5500   20.8000   -4.2000 C.ar      5 PHE5        0.0000 
     58 CZ        -16.2100   21.7400   -5.1700 C.ar      5 PHE5        0.0000 
     59 CZ        -17.2100   20.6200   -0.9300 C.ar      5 PHE5        0.0000 
     60 CZ        -16.9000   21.7700   -0.0200 C.ar      5 PHE5        0.0000 
     61 CA        -14.5800   21.0100   -2.3300 C.3       6 GLY6        0.0000 
     62 CA        -13.9300   22.1500   -3.9900 C.3       6 GLY6        0.0000 
     63 CA        -13.6200   21.2200   -0.4500 C.3       6 GLY6        0.0000 
     64 CA        -14.2700   22.1600   -1.4200 C.3       6 GLY6        0.0000 
     65 CA        -13.6100   23.3000   -3.0800 C.3       6 GLY6        0.0000 
     66 CA        -13.3000   22.3700    0.4600 C.3       6 GLY6        0.0000 
     67 CA        -12.6400   25.5900   -3.8400 C.3       6 GLY6        0.0000 
     68 DU        -16.1800   20.5800   -8.6500 H         7 CUB7        0.0000 
     69 DU        -15.8700   21.7300   -7.7400 H         7 CUB7        0.0000 
     70 DU        -15.5500   22.8800   -6.8300 H         7 CUB7        0.0000 
     71 DU        -15.2400   21.9500   -3.2900 H         7 CUB7        0.0000 
     72 DU        -15.5800   21.9700   -0.7200 H         7 CUB7        0.0000 
     73 DU        -14.9300   23.1000   -2.3800 H         7 CUB7        0.0000 
     74 DU        -14.2700   24.2400   -4.0500 H         7 CUB7        0.0000 
     75 DU        -14.9200   25.1800   -5.0200 H         7 CUB7        0.0000 
     76 DU        -15.9200   24.0600   -0.7800 H         7 CUB7        0.0000 
     77 DU        -14.6100   24.2600   -1.4800 H         7 CUB7        0.0000 
     78 DU        -15.2700   25.2000   -2.4400 H         7 CUB7        0.0000 
     79 DU        -13.9600   25.3900   -3.1400 H         7 CUB7        0.0000 
     80 DU        -15.9200   26.1400   -3.4100 H         7 CUB7        0.0000 
     81 DU        -14.3000   25.4100   -0.5700 H         7 CUB7        0.0000 
     82 DU        -14.9500   26.3500   -1.5300 H         7 CUB7        0.0000 
     83 DU        -13.6400   26.5400   -2.2300 H         7 CUB7        0.0000 
@<TRIPOS>BOND
@<TRIPOS>SUBSTRUCTURE
     1 SER1        1 GROUP   
     2 ALA2        5 GROUP   
     3 ASP3       17 GROUP   
     4 LYS4       42 GROUP   
     5 PHE5       53 GROUP   
     6 GLY6       61 GROUP   
     7 CUB7       68 GROUP   
@<TRIPOS>SET

