#    Name: 6jon_1_DTP
#    Modification time : Fri May 22 19:36:26 2020

@<TRIPOS>MOLECULE
6jon_1_DTP
   30    32     1     0     0
SMALL
NO_CHARGES


@<TRIPOS>ATOM
      1 PG        -12.4070   24.2030    3.4590 P.3       1 DTP401      0.0000 
      2 O1G       -11.3770   24.8560    2.5550 O.co2     1 DTP401      0.0000 
      3 O2G       -13.7690   24.8500    3.3800 O.co2     1 DTP401      0.0000 
      4 O3G       -11.9250   24.0720    4.8930 O.co2     1 DTP401      0.0000 
      5 PB        -13.7810   22.1340    1.6960 P.3       1 DTP401      0.0000 
      6 O1B       -13.4850   20.8580    0.9610 O.co2     1 DTP401      0.0000 
      7 O2B       -15.2010   22.2150    2.2170 O.co2     1 DTP401      0.0000 
      8 O3B       -12.6870   22.5400    2.7390 O.3       1 DTP401      0.0000 
      9 PA        -14.7580   24.4640   -0.0130 P.3       1 DTP401      0.0000 
     10 O1A       -14.3050   25.5600   -0.9350 O.co2     1 DTP401      0.0000 
     11 O2A       -15.5740   24.9220    1.1800 O.co2     1 DTP401      0.0000 
     12 O3A       -13.8100   23.2560    0.2170 O.3       1 DTP401      0.0000 
     13 O5'       -16.1140   23.7830   -1.1360 O.3       1 DTP401      0.0000 
     14 C5'       -17.0590   22.9730   -0.5970 C.3       1 DTP401      0.0000 
     15 C4'       -17.1510   21.5900   -1.4140 C.3       1 DTP401      0.0000 
     16 O4'       -17.2980   21.7700   -2.8310 O.3       1 DTP401      0.0000 
     17 C3'       -15.8780   20.8100   -1.1850 C.3       1 DTP401      0.0000 
     18 O3'       -16.0160   20.0250   -0.0140 O.3       1 DTP401      0.0000 
     19 C2'       -15.8320   19.9560   -2.4820 C.3       1 DTP401      0.0000 
     20 C1'       -16.5190   20.8690   -3.5700 C.3       1 DTP401      0.0000 
     21 N9        -15.5730   21.6590   -4.5050 N.pl3     1 DTP401      0.0000 
     22 C8        -14.6660   22.6270   -4.0390 C.2       1 DTP401      0.0000 
     23 N7        -13.9400   23.1910   -5.0370 N.2       1 DTP401      0.0000 
     24 C5        -14.3740   22.5790   -6.2380 C.ar      1 DTP401      0.0000 
     25 C6        -13.9940   22.7400   -7.6320 C.ar      1 DTP401      0.0000 
     26 N6        -13.0040   23.6530   -8.0610 N.pl3     1 DTP401      0.0000 
     27 N1        -14.6290   21.9690   -8.5690 N.ar      1 DTP401      0.0000 
     28 C2        -15.6070   21.0670   -8.1510 C.ar      1 DTP401      0.0000 
     29 N3        -16.0260   20.8500   -6.8780 N.ar      1 DTP401      0.0000 
     30 C4        -15.3990   21.6170   -5.9130 C.ar      1 DTP401      0.0000 
@<TRIPOS>BOND
     1    1    2 ar   
     2    1    3 ar   
     3    1    4 ar   
     4    1    8 1    
     5    5    6 ar   
     6    5    7 ar   
     7    5    8 1    
     8    5   12 1    
     9    9   10 ar   
    10    9   11 ar   
    11    9   12 1    
    12    9   13 1    
    13   13   14 1    
    14   14   15 1    
    15   15   16 1    
    16   15   17 1    
    17   16   20 1    
    18   17   18 1    
    19   17   19 1    
    20   19   20 1    
    21   20   21 1    
    22   21   22 1    
    23   21   30 1    
    24   22   23 2    
    25   23   24 1    
    26   24   25 ar   
    27   24   30 ar   
    28   25   26 1    
    29   25   27 ar   
    30   27   28 ar   
    31   28   29 ar   
    32   29   30 ar   
@<TRIPOS>SUBSTRUCTURE
     1 DTP401      1 GROUP   
@<TRIPOS>SET

