#    Name: 5zza_1_LAB
#    Modification time : Fri May 22 19:33:10 2020

@<TRIPOS>MOLECULE
5zza_1_LAB
   27    29     1     0     0
SMALL
NO_CHARGES


@<TRIPOS>ATOM
      1 O5          2.6160   45.1630   25.8640 O.2       1 LAB401      0.0000 
      2 C18         1.7060   44.3500   25.8120 C.2       1 LAB401      0.0000 
      3 N1          1.1670   43.9720   24.6770 N.am      1 LAB401      0.0000 
      4 C16        -0.0050   43.1350   24.7410 C.3       1 LAB401      0.0000 
      5 C17         0.0110   42.5610   26.1600 C.3       1 LAB401      0.0000 
      6 S1          0.9940   43.6460   27.1500 S.3       1 LAB401      0.0000 
      7 C15        -1.2730   43.9350   24.3990 C.3       1 LAB401      0.0000 
      8 O4         -1.5980   44.8600   25.4380 O.3       1 LAB401      0.0000 
      9 C14        -1.0880   44.7240   23.0960 C.3       1 LAB401      0.0000 
     10 C13        -2.3730   45.1610   22.3920 C.3       1 LAB401      0.0000 
     11 O2         -3.0420   46.2240   23.0620 O.3       1 LAB401      0.0000 
     12 C12        -3.3570   44.0010   22.3600 C.3       1 LAB401      0.0000 
     13 C11        -3.5750   43.5500   23.7960 C.3       1 LAB401      0.0000 
     14 O3         -2.3530   42.9980   24.2860 O.3       1 LAB401      0.0000 
     15 C10        -4.6940   42.5310   23.9160 C.3       1 LAB401      0.0000 
     16 C9         -5.0380   42.2530   25.3790 C.3       1 LAB401      0.0000 
     17 C8         -5.4860   43.4780   26.1870 C.3       1 LAB401      0.0000 
     18 C20        -5.9320   43.0370   27.5760 C.3       1 LAB401      0.0000 
     19 C7         -6.6370   44.2130   25.5230 C.2       1 LAB401      0.0000 
     20 C6         -6.6730   45.5050   25.1610 C.2       1 LAB401      0.0000 
     21 C5         -5.5740   46.5470   25.3060 C.3       1 LAB401      0.0000 
     22 C4         -5.5010   47.3290   23.9980 C.3       1 LAB401      0.0000 
     23 C3         -4.6090   48.5620   24.0510 C.2       1 LAB401      0.0000 
     24 C19        -5.2370   49.8040   24.6200 C.3       1 LAB401      0.0000 
     25 C2         -3.3130   48.6560   23.6500 C.2       1 LAB401      0.0000 
     26 C1         -2.5370   47.5710   23.0080 C.2       1 LAB401      0.0000 
     27 O1         -1.5080   47.8100   22.4080 O.2       1 LAB401      0.0000 
@<TRIPOS>BOND
     1    1    2 2    
     2    2    3 am   
     3    2    6 1    
     4    3    4 1    
     5    4    5 1    
     6    4    7 1    
     7    5    6 1    
     8    7    8 1    
     9    7    9 1    
    10    7   14 1    
    11    9   10 1    
    12   10   11 1    
    13   10   12 1    
    14   11   26 1    
    15   12   13 1    
    16   13   14 1    
    17   13   15 1    
    18   15   16 1    
    19   16   17 1    
    20   17   18 1    
    21   17   19 1    
    22   19   20 2    
    23   20   21 1    
    24   21   22 1    
    25   22   23 1    
    26   23   24 1    
    27   23   25 2    
    28   25   26 1    
    29   26   27 2    
@<TRIPOS>SUBSTRUCTURE
     1 LAB401      1 GROUP   
@<TRIPOS>SET

