#    Name: 5zza_1_LAB_CAVITY_N1_12
#    Modification time : Fri May 22 19:33:11 2020

@<TRIPOS>MOLECULE
5zza_1_LAB_CAVITY_N1_12
   70     0     7     0     0
SMALL
NO_CHARGES


@<TRIPOS>ATOM
      1 OG         -1.4900   42.7400   23.2500 O.3       1 SER1        0.0000 
      2 OG         -2.8200   43.2400   23.7300 O.3       1 SER1        0.0000 
      3 OG         -4.8600   40.9700   25.1200 O.3       1 SER1        0.0000 
      4 OG         -4.5100   42.3600   24.6600 O.3       1 SER1        0.0000 
      5 OG         -0.8900   43.0300   24.5900 O.3       1 SER1        0.0000 
      6 OG         -4.2600   41.2600   26.4600 O.3       1 SER1        0.0000 
      7 OG          1.9800   44.4900   26.3500 O.3       1 SER1        0.0000 
      8 N          -3.0600   44.3400   21.9300 N.am      2 ALA2        0.0000 
      9 N          -2.7100   45.7200   21.4700 N.am      2 ALA2        0.0000 
     10 N          -5.5900   41.7600   26.9400 N.am      2 ALA2        0.0000 
     11 N          -6.5700   43.6400   26.9700 N.am      2 ALA2        0.0000 
     12 OD1         0.4400   42.5300   24.1100 O.co2     3 ASP3        0.0000 
     13 OD1        -1.8700   44.9200   24.6200 O.co2     3 ASP3        0.0000 
     14 OD1        -2.8400   46.8000   24.6500 O.co2     3 ASP3        0.0000 
     15 OD1        -2.4900   48.1800   24.1900 O.co2     3 ASP3        0.0000 
     16 OD1        -4.1700   47.3000   25.1300 O.co2     3 ASP3        0.0000 
     17 OD1        -3.8200   48.6800   24.6800 O.co2     3 ASP3        0.0000 
     18 OD1        -5.5000   47.8000   25.6100 O.co2     3 ASP3        0.0000 
     19 OD1        -1.2700   45.2000   25.9700 O.co2     3 ASP3        0.0000 
     20 NZ         -1.1400   44.1300   22.7900 N.4       4 LYS4        0.0000 
     21 NZ         -0.7800   45.5100   22.3400 N.4       4 LYS4        0.0000 
     22 NZ         -0.4200   46.9000   21.8800 N.4       4 LYS4        0.0000 
     23 NZ         -0.5400   44.4200   24.1400 N.4       4 LYS4        0.0000 
     24 NZ         -2.2200   43.5300   25.0700 N.4       4 LYS4        0.0000 
     25 NZ         -3.9100   42.6400   26.0100 N.4       4 LYS4        0.0000 
     26 NZ         -3.5500   44.0300   25.5600 N.4       4 LYS4        0.0000 
     27 NZ         -3.2000   45.4100   25.1000 N.4       4 LYS4        0.0000 
     28 NZ         -5.2400   43.1400   26.4900 N.4       4 LYS4        0.0000 
     29 NZ         -4.8800   44.5300   26.0400 N.4       4 LYS4        0.0000 
     30 NZ         -4.5300   45.9100   25.5800 N.4       4 LYS4        0.0000 
     31 NZ         -6.2100   45.0300   26.5200 N.4       4 LYS4        0.0000 
     32 NZ         -5.8600   46.4100   26.0700 N.4       4 LYS4        0.0000 
     33 NZ          1.3900   44.2100   25.0000 N.4       4 LYS4        0.0000 
     34 NZ         -0.3000   43.3200   25.9400 N.4       4 LYS4        0.0000 
     35 NZ          0.3000   43.6100   27.2800 N.4       4 LYS4        0.0000 
     36 CZ         -3.4200   42.9500   22.3800 C.ar      5 PHE5        0.0000 
     37 CA         -1.7300   43.8400   21.4500 C.3       6 GLY6        0.0000 
     38 CA         -1.3800   45.2300   20.9900 C.3       6 GLY6        0.0000 
     39 CA         -5.1000   42.0700   23.3200 C.3       6 GLY6        0.0000 
     40 CA         -4.7500   43.4500   22.8600 C.3       6 GLY6        0.0000 
     41 CA         -4.3900   44.8400   22.4100 C.3       6 GLY6        0.0000 
     42 CA         -4.0400   46.2200   21.9600 C.3       6 GLY6        0.0000 
     43 CA         -6.4300   42.5700   23.8000 C.3       6 GLY6        0.0000 
     44 CA         -5.3700   46.7200   22.4400 C.3       6 GLY6        0.0000 
     45 CA         -6.7000   47.2200   22.9200 C.3       6 GLY6        0.0000 
     46 CA         -1.7500   47.4000   22.3700 C.3       6 GLY6        0.0000 
     47 CA         -3.4400   46.5100   23.3000 C.3       6 GLY6        0.0000 
     48 CA         -3.0800   47.9000   22.8500 C.3       6 GLY6        0.0000 
     49 CA         -6.1900   41.4700   25.6000 C.3       6 GLY6        0.0000 
     50 CA         -5.8400   42.8600   25.1400 C.3       6 GLY6        0.0000 
     51 CA         -5.4800   44.2400   24.6900 C.3       6 GLY6        0.0000 
     52 CA         -5.1200   45.6300   24.2400 C.3       6 GLY6        0.0000 
     53 CA         -4.4100   48.4000   23.3300 C.3       6 GLY6        0.0000 
     54 CA         -4.0600   49.7800   22.8800 C.3       6 GLY6        0.0000 
     55 CA         -7.1700   43.3500   25.6300 C.3       6 GLY6        0.0000 
     56 CA         -6.8100   44.7400   25.1700 C.3       6 GLY6        0.0000 
     57 CA         -6.4500   46.1200   24.7200 C.3       6 GLY6        0.0000 
     58 CA         -0.1800   45.8000   23.6800 C.3       6 GLY6        0.0000 
     59 CA         -1.5100   46.3000   24.1700 C.3       6 GLY6        0.0000 
     60 CA         -1.1600   47.6900   23.7100 C.3       6 GLY6        0.0000 
     61 CA          1.0300   42.8200   25.4600 C.3       6 GLY6        0.0000 
     62 CA          0.0600   44.7000   25.4800 C.3       6 GLY6        0.0000 
     63 CA          1.6300   43.1100   26.8000 C.3       6 GLY6        0.0000 
     64 CA          0.6500   44.9900   26.8300 C.3       6 GLY6        0.0000 
     65 DU         -2.4700   44.6300   23.2700 H         7 CUB7        0.0000 
     66 DU         -2.1100   46.0100   22.8200 H         7 CUB7        0.0000 
     67 DU         -4.1500   43.7400   24.2100 H         7 CUB7        0.0000 
     68 DU         -3.8000   45.1300   23.7600 H         7 CUB7        0.0000 
     69 DU         -4.7700   47.0100   23.7800 H         7 CUB7        0.0000 
     70 DU         -6.1000   47.5100   24.2700 H         7 CUB7        0.0000 
@<TRIPOS>BOND
@<TRIPOS>SUBSTRUCTURE
     1 SER1        1 GROUP   
     2 ALA2        8 GROUP   
     3 ASP3       12 GROUP   
     4 LYS4       20 GROUP   
     5 PHE5       36 GROUP   
     6 GLY6       37 GROUP   
     7 CUB7       65 GROUP   
@<TRIPOS>SET

