#    Name: 5zza_2_LAB
#    Modification time : Fri May 22 19:33:15 2020

@<TRIPOS>MOLECULE
5zza_2_LAB
   27    29     1     0     0
SMALL
NO_CHARGES


@<TRIPOS>ATOM
      1 O5          7.7200   57.1290   -7.6860 O.2       1 LAB201      0.0000 
      2 C18         7.5370   55.9560   -7.9840 C.2       1 LAB201      0.0000 
      3 N1          6.3630   55.4640   -8.3610 N.am      1 LAB201      0.0000 
      4 C16         6.3010   54.0350   -8.5870 C.3       1 LAB201      0.0000 
      5 C17         7.7470   53.5280   -8.5320 C.3       1 LAB201      0.0000 
      6 S1          8.7630   54.8280   -7.8940 S.3       1 LAB201      0.0000 
      7 C15         5.3610   53.3380   -7.5940 C.3       1 LAB201      0.0000 
      8 O4          5.4220   51.9350   -7.8870 O.3       1 LAB201      0.0000 
      9 C14         5.7670   53.5850   -6.1260 C.3       1 LAB201      0.0000 
     10 C13         4.6470   53.5220   -5.0750 C.3       1 LAB201      0.0000 
     11 O2          4.3580   52.1780   -4.6860 O.3       1 LAB201      0.0000 
     12 C12         3.3260   54.0620   -5.6080 C.3       1 LAB201      0.0000 
     13 C11         3.0540   53.3250   -6.9110 C.3       1 LAB201      0.0000 
     14 O3          4.0230   53.7890   -7.8590 O.3       1 LAB201      0.0000 
     15 C10         1.6370   53.4890   -7.4450 C.3       1 LAB201      0.0000 
     16 C9          1.4300   52.6990   -8.7420 C.3       1 LAB201      0.0000 
     17 C8          1.7410   51.1980   -8.6760 C.3       1 LAB201      0.0000 
     18 C20         1.4900   50.5650  -10.0380 C.3       1 LAB201      0.0000 
     19 C7          0.8460   50.5190   -7.6580 C.2       1 LAB201      0.0000 
     20 C6          1.2070   49.8200   -6.5650 C.2       1 LAB201      0.0000 
     21 C5          2.6090   49.5280   -6.0750 C.3       1 LAB201      0.0000 
     22 C4          2.6840   49.8310   -4.5820 C.3       1 LAB201      0.0000 
     23 C3          3.9490   49.3300   -3.8940 C.2       1 LAB201      0.0000 
     24 C19         3.9720   47.8790   -3.5010 C.3       1 LAB201      0.0000 
     25 C2          5.0670   50.0400   -3.5970 C.2       1 LAB201      0.0000 
     26 C1          5.2650   51.4830   -3.8170 C.2       1 LAB201      0.0000 
     27 O1          6.1510   52.1050   -3.2480 O.2       1 LAB201      0.0000 
@<TRIPOS>BOND
     1    1    2 2    
     2    2    3 am   
     3    2    6 1    
     4    3    4 1    
     5    4    5 1    
     6    4    7 1    
     7    5    6 1    
     8    7    8 1    
     9    7    9 1    
    10    7   14 1    
    11    9   10 1    
    12   10   11 1    
    13   10   12 1    
    14   11   26 1    
    15   12   13 1    
    16   13   14 1    
    17   13   15 1    
    18   15   16 1    
    19   16   17 1    
    20   17   18 1    
    21   17   19 1    
    22   19   20 2    
    23   20   21 1    
    24   21   22 1    
    25   22   23 1    
    26   23   24 1    
    27   23   25 2    
    28   25   26 1    
    29   26   27 2    
@<TRIPOS>SUBSTRUCTURE
     1 LAB201      1 GROUP   
@<TRIPOS>SET

