#    Name: 6sjr_1_THH
#    Modification time : Fri May 22 19:24:45 2020

@<TRIPOS>MOLECULE
6sjr_1_THH
   13    14     1     0     0
SMALL
NO_CHARGES


@<TRIPOS>ATOM
      1 C9         13.1210  -12.0080   59.7340 C.3       1 THH901      0.0000 
      2 C6         13.2550  -12.5750   61.1480 C.3       1 THH901      0.0000 
      3 C7         14.0950  -13.8650   61.1280 C.3       1 THH901      0.0000 
      4 N8         15.4590  -13.7560   61.6310 N.pl3     1 THH901      0.0000 
      5 C8A        15.8890  -12.6950   62.3440 C.ar      1 THH901      0.0000 
      6 N1         17.1210  -12.6630   62.8800 N.ar      1 THH901      0.0000 
      7 C4A        14.9820  -11.5540   62.5660 C.ar      1 THH901      0.0000 
      8 N5         13.7440  -11.5320   62.0370 N.3       1 THH901      0.0000 
      9 C4         15.5130  -10.4290   63.3660 C.ar      1 THH901      0.0000 
     10 O4         14.8120   -9.4210   63.5950 O.3       1 THH901      0.0000 
     11 N3         16.7730  -10.5270   63.8410 N.ar      1 THH901      0.0000 
     12 C2         17.5560  -11.6120   63.6040 C.ar      1 THH901      0.0000 
     13 NA2        18.8100  -11.6260   64.1230 N.pl3     1 THH901      0.0000 
@<TRIPOS>BOND
     1    1    2 1    
     2    2    3 1    
     3    2    8 1    
     4    3    4 1    
     5    4    5 1    
     6    5    6 ar   
     7    5    7 ar   
     8    6   12 ar   
     9    7    8 1    
    10    7    9 ar   
    11    9   10 1    
    12    9   11 ar   
    13   11   12 ar   
    14   12   13 1    
@<TRIPOS>SUBSTRUCTURE
     1 THH901      1 GROUP   
@<TRIPOS>SET

