#    Name: 6sjr_1_THH_CAVITY_N1_4
#    Modification time : Fri May 22 19:24:46 2020

@<TRIPOS>MOLECULE
6sjr_1_THH_CAVITY_N1_4
   66     0     4     0     0
SMALL
NO_CHARGES


@<TRIPOS>ATOM
      1 N          14.7500  -16.6700   61.2700 N.am      1 ALA2        0.0000 
      2 O          17.1600  -14.4900   62.9800 O.2       1 ALA2        0.0000 
      3 O          16.8000  -14.0400   61.5900 O.2       1 ALA2        0.0000 
      4 N          17.8300  -13.5200   64.7400 N.am      1 ALA2        0.0000 
      5 O          17.4700  -13.0700   63.3500 O.2       1 ALA2        0.0000 
      6 O          17.1100  -12.6200   61.9700 O.2       1 ALA2        0.0000 
      7 O          18.5300  -12.8200   61.5400 O.2       1 ALA2        0.0000 
      8 N          19.2100  -11.8500   63.3000 N.am      1 ALA2        0.0000 
      9 N          11.7400  -10.4000   64.0700 N.am      1 ALA2        0.0000 
     10 N          11.3800   -9.9600   62.6900 N.am      1 ALA2        0.0000 
     11 N          12.8000  -10.1600   62.2500 N.am      1 ALA2        0.0000 
     12 N          11.0200   -9.5100   61.3000 N.am      1 ALA2        0.0000 
     13 N          12.4400   -9.7100   60.8700 N.am      1 ALA2        0.0000 
     14 N          13.8600   -9.9100   60.4400 N.am      1 ALA2        0.0000 
     15 O          13.4700   -9.1900   64.0200 O.2       1 ALA2        0.0000 
     16 N          13.1100   -8.7400   62.6300 N.am      1 ALA2        0.0000 
     17 N          14.5400   -8.9400   62.2000 N.am      1 ALA2        0.0000 
     18 NZ         16.4800  -15.4600   61.2200 N.4       2 LYS4        0.0000 
     19 NZ         16.1300  -15.0100   59.8300 N.4       2 LYS4        0.0000 
     20 NZ         16.4400  -13.5900   60.2100 N.4       2 LYS4        0.0000 
     21 NZ         16.3600  -11.4500   64.1600 N.4       2 LYS4        0.0000 
     22 NZ         17.7800  -11.6500   63.7300 N.4       2 LYS4        0.0000 
     23 CA         12.5800  -15.3000   63.9000 C.3       3 GLY6        0.0000 
     24 CA         14.0000  -15.5000   63.4700 C.3       3 GLY6        0.0000 
     25 CA         14.7000  -14.8100   60.2600 C.3       3 GLY6        0.0000 
     26 CA         14.3500  -14.3600   58.8800 C.3       3 GLY6        0.0000 
     27 CA         12.8900  -13.8900   64.2700 C.3       3 GLY6        0.0000 
     28 CA         14.3100  -14.0900   63.8400 C.3       3 GLY6        0.0000 
     29 CA         15.7300  -14.2900   63.4100 C.3       3 GLY6        0.0000 
     30 CA         12.5300  -13.4400   62.8900 C.3       3 GLY6        0.0000 
     31 CA         13.9500  -13.6400   62.4600 C.3       3 GLY6        0.0000 
     32 CA         11.7800  -12.2700   65.0800 C.3       3 GLY6        0.0000 
     33 CA         13.2000  -12.4700   64.6500 C.3       3 GLY6        0.0000 
     34 CA         16.0500  -12.8700   63.7900 C.3       3 GLY6        0.0000 
     35 CA         12.8400  -12.0200   63.2600 C.3       3 GLY6        0.0000 
     36 CA         14.2700  -12.2200   62.8300 C.3       3 GLY6        0.0000 
     37 CA         12.0900  -10.8500   65.4600 C.3       3 GLY6        0.0000 
     38 CA         13.5200  -11.0500   65.0300 C.3       3 GLY6        0.0000 
     39 CA         14.9400  -11.2500   64.5900 C.3       3 GLY6        0.0000 
     40 CA         16.0000  -11.0000   62.7800 C.3       3 GLY6        0.0000 
     41 CA         17.4300  -11.2000   62.3400 C.3       3 GLY6        0.0000 
     42 CA         18.8500  -11.4000   61.9100 C.3       3 GLY6        0.0000 
     43 CA         15.6500  -10.5600   61.3900 C.3       3 GLY6        0.0000 
     44 CA         17.0700  -10.7600   60.9600 C.3       3 GLY6        0.0000 
     45 CA         15.2500   -9.8300   64.9700 C.3       3 GLY6        0.0000 
     46 CA         14.9000   -9.3900   63.5800 C.3       3 GLY6        0.0000 
     47 CA         16.3200   -9.5900   63.1500 C.3       3 GLY6        0.0000 
     48 DU         13.6800  -16.9200   63.0900 H         4 CUB7        0.0000 
     49 DU         13.3300  -16.4700   61.7000 H         4 CUB7        0.0000 
     50 DU         13.6400  -15.0600   62.0800 H         4 CUB7        0.0000 
     51 DU         15.0600  -15.2600   61.6500 H         4 CUB7        0.0000 
     52 DU         15.3800  -13.8400   62.0200 H         4 CUB7        0.0000 
     53 DU         13.6000  -13.1900   61.0700 H         4 CUB7        0.0000 
     54 DU         15.0200  -13.3900   60.6400 H         4 CUB7        0.0000 
     55 DU         14.6600  -12.9500   59.2500 H         4 CUB7        0.0000 
     56 DU         16.0800  -13.1500   58.8200 H         4 CUB7        0.0000 
     57 DU         11.4200  -11.8200   63.7000 H         4 CUB7        0.0000 
     58 DU         15.6900  -12.4200   62.4000 H         4 CUB7        0.0000 
     59 DU         11.0600  -11.3700   62.3100 H         4 CUB7        0.0000 
     60 DU         12.4900  -11.5700   61.8800 H         4 CUB7        0.0000 
     61 DU         15.3300  -11.9700   61.0100 H         4 CUB7        0.0000 
     62 DU         16.7500  -12.1700   60.5800 H         4 CUB7        0.0000 
     63 DU         14.9700  -11.5300   59.6300 H         4 CUB7        0.0000 
     64 DU         13.1600  -10.6000   63.6400 H         4 CUB7        0.0000 
     65 DU         14.5800  -10.8000   63.2100 H         4 CUB7        0.0000 
     66 DU         14.2200  -10.3600   61.8200 H         4 CUB7        0.0000 
@<TRIPOS>BOND
@<TRIPOS>SUBSTRUCTURE
     1 ALA2        1 GROUP   
     2 LYS4       18 GROUP   
     3 GLY6       23 GROUP   
     4 CUB7       48 GROUP   
@<TRIPOS>SET

