#    Name: 6pfh_1_MTX
#    Modification time : Fri May 22 19:36:45 2020

@<TRIPOS>MOLECULE
6pfh_1_MTX
   33    35     1     0     0
SMALL
NO_CHARGES


@<TRIPOS>ATOM
      1 N1         26.0850   65.0050  246.9930 N.ar      1 MTX604      0.0000 
      2 C2         24.8150   64.7410  246.6440 C.ar      1 MTX604      0.0000 
      3 NA2        24.0260   65.7830  246.0370 N.pl3     1 MTX604      0.0000 
      4 N3         24.2580   63.5360  246.8420 N.ar      1 MTX604      0.0000 
      5 C4         24.9680   62.5380  247.4090 C.ar      1 MTX604      0.0000 
      6 NA4        24.4020   61.2470  247.6330 N.pl3     1 MTX604      0.0000 
      7 C4A        26.3050   62.7720  247.7910 C.ar      1 MTX604      0.0000 
      8 N5         27.0480   61.7850  248.3630 N.ar      1 MTX604      0.0000 
      9 C6         28.3230   62.0500  248.7050 C.ar      1 MTX604      0.0000 
     10 C7         28.9010   63.3090  248.5060 C.ar      1 MTX604      0.0000 
     11 N8         28.1480   64.2750  247.9350 N.ar      1 MTX604      0.0000 
     12 C8A        26.8470   64.0230  247.5710 C.ar      1 MTX604      0.0000 
     13 C9         29.1060   60.9360  249.3460 C.3       1 MTX604      0.0000 
     14 N10        28.4680   60.5200  250.5730 N.pl3     1 MTX604      0.0000 
     15 CM         27.7850   59.2550  250.6370 C.3       1 MTX604      0.0000 
     16 C11        28.4720   63.2070  253.8570 C.ar      1 MTX604      0.0000 
     17 C12        29.5180   63.2180  252.9390 C.ar      1 MTX604      0.0000 
     18 C13        29.5160   62.3310  251.8630 C.ar      1 MTX604      0.0000 
     19 C14        28.4710   61.4300  251.7070 C.ar      1 MTX604      0.0000 
     20 C15        27.4180   61.4240  252.6180 C.ar      1 MTX604      0.0000 
     21 C16        27.4230   62.3110  253.6920 C.ar      1 MTX604      0.0000 
     22 C          28.4430   64.1640  255.0240 C.2       1 MTX604      0.0000 
     23 O          29.4760   64.4790  255.5900 O.2       1 MTX604      0.0000 
     24 N          27.1790   64.7120  255.4630 N.am      1 MTX604      0.0000 
     25 CA         27.0840   65.6290  256.5660 C.3       1 MTX604      0.0000 
     26 CT         25.7530   65.4270  257.1720 C.2       1 MTX604      0.0000 
     27 O1         24.9140   64.7070  256.5700 O.co2     1 MTX604      0.0000 
     28 O2         25.4580   65.9720  258.2800 O.co2     1 MTX604      0.0000 
     29 CB         27.1270   67.0200  256.0400 C.3       1 MTX604      0.0000 
     30 CG         28.0570   68.0150  256.6650 C.3       1 MTX604      0.0000 
     31 CD         27.7890   69.4510  256.3440 C.2       1 MTX604      0.0000 
     32 OE1        26.8540   70.0450  256.9300 O.co2     1 MTX604      0.0000 
     33 OE2        28.6220   70.1070  255.6620 O.co2     1 MTX604      0.0000 
@<TRIPOS>BOND
     1    1    2 ar   
     2    1   12 ar   
     3    2    3 1    
     4    2    4 ar   
     5    4    5 ar   
     6    5    6 1    
     7    5    7 ar   
     8    7    8 ar   
     9    7   12 ar   
    10    8    9 ar   
    11    9   10 ar   
    12    9   13 1    
    13   10   11 ar   
    14   11   12 ar   
    15   13   14 1    
    16   14   15 1    
    17   14   19 1    
    18   16   17 ar   
    19   16   21 ar   
    20   16   22 1    
    21   17   18 ar   
    22   18   19 ar   
    23   19   20 ar   
    24   20   21 ar   
    25   22   23 2    
    26   22   24 am   
    27   24   25 1    
    28   25   26 1    
    29   25   29 1    
    30   26   27 ar   
    31   26   28 ar   
    32   29   30 1    
    33   30   31 1    
    34   31   32 ar   
    35   31   33 ar   
@<TRIPOS>SUBSTRUCTURE
     1 MTX604      1 GROUP   
@<TRIPOS>SET

