#    Name: 6pfh_5_MTX
#    Modification time : Fri May 22 19:36:55 2020

@<TRIPOS>MOLECULE
6pfh_5_MTX
   33    35     1     0     0
SMALL
NO_CHARGES


@<TRIPOS>ATOM
      1 N1        -77.0630  150.5230  264.0990 N.ar      1 MTX604      0.0000 
      2 C2        -76.9000  150.2730  265.4110 C.ar      1 MTX604      0.0000 
      3 NA2       -75.8910  149.3300  265.8230 N.pl3     1 MTX604      0.0000 
      4 N3        -77.6450  150.8730  266.3520 N.ar      1 MTX604      0.0000 
      5 C4        -78.5970  151.7620  266.0010 C.ar      1 MTX604      0.0000 
      6 NA4       -79.4020  152.4140  266.9830 N.pl3     1 MTX604      0.0000 
      7 C4A       -78.8060  152.0560  264.6360 C.ar      1 MTX604      0.0000 
      8 N5        -79.7580  152.9490  264.2470 N.ar      1 MTX604      0.0000 
      9 C6        -79.9190  153.2050  262.9340 C.ar      1 MTX604      0.0000 
     10 C7        -79.1430  152.5710  261.9560 C.ar      1 MTX604      0.0000 
     11 N8        -78.2010  151.6890  262.3600 N.ar      1 MTX604      0.0000 
     12 C8A       -78.0200  151.4190  263.6950 C.ar      1 MTX604      0.0000 
     13 C9        -80.9930  154.1880  262.5430 C.3       1 MTX604      0.0000 
     14 N10       -82.3010  153.7410  262.9750 N.pl3     1 MTX604      0.0000 
     15 CM        -82.9770  154.4010  264.0620 C.3       1 MTX604      0.0000 
     16 C11       -84.0620  150.3370  261.1680 C.ar      1 MTX604      0.0000 
     17 C12       -83.1930  151.1410  260.4340 C.ar      1 MTX604      0.0000 
     18 C13       -82.6160  152.2640  261.0250 C.ar      1 MTX604      0.0000 
     19 C14       -82.9070  152.5790  262.3470 C.ar      1 MTX604      0.0000 
     20 C15       -83.7680  151.7710  263.0830 C.ar      1 MTX604      0.0000 
     21 C16       -84.3440  150.6500  262.4910 C.ar      1 MTX604      0.0000 
     22 C         -84.6900  149.1090  260.5620 C.2       1 MTX604      0.0000 
     23 O         -85.0240  149.1000  259.3900 O.2       1 MTX604      0.0000 
     24 N         -84.8880  147.9380  261.3890 N.am      1 MTX604      0.0000 
     25 CA        -85.4720  146.7270  260.8830 C.3       1 MTX604      0.0000 
     26 CT        -86.1310  146.0650  262.0280 C.2       1 MTX604      0.0000 
     27 O1        -86.0360  146.5890  263.1690 O.co2     1 MTX604      0.0000 
     28 O2        -86.7790  144.9850  261.8680 O.co2     1 MTX604      0.0000 
     29 CB        -84.3670  145.8390  260.4250 C.3       1 MTX604      0.0000 
     30 CG        -84.4490  145.1490  259.0960 C.3       1 MTX604      0.0000 
     31 CD        -83.4910  144.0180  258.8950 C.2       1 MTX604      0.0000 
     32 OE1       -83.7280  142.9060  259.4220 O.co2     1 MTX604      0.0000 
     33 OE2       -82.5340  144.1350  258.0840 O.co2     1 MTX604      0.0000 
@<TRIPOS>BOND
     1    1    2 ar   
     2    1   12 ar   
     3    2    3 1    
     4    2    4 ar   
     5    4    5 ar   
     6    5    6 1    
     7    5    7 ar   
     8    7    8 ar   
     9    7   12 ar   
    10    8    9 ar   
    11    9   10 ar   
    12    9   13 1    
    13   10   11 ar   
    14   11   12 ar   
    15   13   14 1    
    16   14   15 1    
    17   14   19 1    
    18   16   17 ar   
    19   16   21 ar   
    20   16   22 1    
    21   17   18 ar   
    22   18   19 ar   
    23   19   20 ar   
    24   20   21 ar   
    25   22   23 2    
    26   22   24 am   
    27   24   25 1    
    28   25   26 1    
    29   25   29 1    
    30   26   27 ar   
    31   26   28 ar   
    32   29   30 1    
    33   30   31 1    
    34   31   32 ar   
    35   31   33 ar   
@<TRIPOS>SUBSTRUCTURE
     1 MTX604      1 GROUP   
@<TRIPOS>SET

