#    Name: 6pfh_4_MTX
#    Modification time : Fri May 22 19:36:50 2020

@<TRIPOS>MOLECULE
6pfh_4_MTX
   33    35     1     0     0
SMALL
NO_CHARGES


@<TRIPOS>ATOM
      1 N1        -58.2560  112.3490  304.7260 N.ar      1 MTX604      0.0000 
      2 C2        -59.3750  112.9540  304.2870 C.ar      1 MTX604      0.0000 
      3 NA2       -59.3990  113.5050  302.9550 N.pl3     1 MTX604      0.0000 
      4 N3        -60.4740  113.0640  305.0510 N.ar      1 MTX604      0.0000 
      5 C4        -60.4890  112.5610  306.3030 C.ar      1 MTX604      0.0000 
      6 NA4       -61.6410  112.6620  307.1390 N.pl3     1 MTX604      0.0000 
      7 C4A       -59.3390  111.9180  306.8060 C.ar      1 MTX604      0.0000 
      8 N5        -59.3270  111.3980  308.0640 N.ar      1 MTX604      0.0000 
      9 C6        -58.2090  110.7910  308.5070 C.ar      1 MTX604      0.0000 
     10 C7        -57.0630  110.6800  307.7100 C.ar      1 MTX604      0.0000 
     11 N8        -57.0950  111.1990  306.4610 N.ar      1 MTX604      0.0000 
     12 C8A       -58.2260  111.8230  305.9930 C.ar      1 MTX604      0.0000 
     13 C9        -58.2310  110.2360  309.9090 C.3       1 MTX604      0.0000 
     14 N10       -58.4900  111.2710  310.8850 N.pl3     1 MTX604      0.0000 
     15 CM        -59.7610  111.3180  311.5590 C.3       1 MTX604      0.0000 
     16 C11       -55.5590  114.2560  311.5790 C.ar      1 MTX604      0.0000 
     17 C12       -55.1730  112.9760  311.1900 C.ar      1 MTX604      0.0000 
     18 C13       -56.1370  111.9950  310.9670 C.ar      1 MTX604      0.0000 
     19 C14       -57.4840  112.2920  311.1320 C.ar      1 MTX604      0.0000 
     20 C15       -57.8720  113.5740  311.5090 C.ar      1 MTX604      0.0000 
     21 C16       -56.9070  114.5530  311.7330 C.ar      1 MTX604      0.0000 
     22 C         -54.5360  115.3400  311.8140 C.2       1 MTX604      0.0000 
     23 O         -53.4520  115.0660  312.3000 O.2       1 MTX604      0.0000 
     24 N         -54.8470  116.7060  311.4490 N.am      1 MTX604      0.0000 
     25 CA        -53.9160  117.7850  311.6420 C.3       1 MTX604      0.0000 
     26 CT        -54.7000  119.0380  311.6410 C.2       1 MTX604      0.0000 
     27 O1        -55.9460  118.9780  311.4740 O.co2     1 MTX604      0.0000 
     28 O2        -54.1240  120.1600  311.8010 O.co2     1 MTX604      0.0000 
     29 CB        -52.9890  117.8490  310.4770 C.3       1 MTX604      0.0000 
     30 CG        -51.5210  118.0400  310.7140 C.3       1 MTX604      0.0000 
     31 CD        -50.7120  118.4670  309.5320 C.2       1 MTX604      0.0000 
     32 OE1       -50.7530  119.6690  309.1810 O.co2     1 MTX604      0.0000 
     33 OE2       -50.3230  117.6000  308.7060 O.co2     1 MTX604      0.0000 
@<TRIPOS>BOND
     1    1    2 ar   
     2    1   12 ar   
     3    2    3 1    
     4    2    4 ar   
     5    4    5 ar   
     6    5    6 1    
     7    5    7 ar   
     8    7    8 ar   
     9    7   12 ar   
    10    8    9 ar   
    11    9   10 ar   
    12    9   13 1    
    13   10   11 ar   
    14   11   12 ar   
    15   13   14 1    
    16   14   15 1    
    17   14   19 1    
    18   16   17 ar   
    19   16   21 ar   
    20   16   22 1    
    21   17   18 ar   
    22   18   19 ar   
    23   19   20 ar   
    24   20   21 ar   
    25   22   23 2    
    26   22   24 am   
    27   24   25 1    
    28   25   26 1    
    29   25   29 1    
    30   26   27 ar   
    31   26   28 ar   
    32   29   30 1    
    33   30   31 1    
    34   31   32 ar   
    35   31   33 ar   
@<TRIPOS>SUBSTRUCTURE
     1 MTX604      1 GROUP   
@<TRIPOS>SET

