#    Name: 6pfh_6_NDP
#    Modification time : Fri May 22 19:37:09 2020

@<TRIPOS>MOLECULE
6pfh_6_NDP
   48    52     1     0     1
SMALL
NO_CHARGES


@<TRIPOS>ATOM
      1 PA        -81.9840  163.5750  266.2530 P.3       1 NDP601      0.0000 
      2 O1A       -81.2080  163.5120  267.5520 O.co2     1 NDP601      0.0000 
      3 O2A       -82.2390  162.1810  265.7620 O.co2     1 NDP601      0.0000 
      4 O5B       -83.3360  164.2620  266.4890 O.3       1 NDP601      0.0000 
      5 C5B       -83.3870  165.5840  266.9530 C.3       1 NDP601      0.0000 
      6 C4B       -84.7170  166.1710  267.1770 C.3       1 NDP601      0.0000 
      7 O4B       -85.3270  165.5880  268.3090 O.3       1 NDP601      0.0000 
      8 C3B       -84.6580  167.6000  267.4900 C.3       1 NDP601      0.0000 
      9 O3B       -84.5800  168.3820  266.3500 O.3       1 NDP601      0.0000 
     10 C2B       -85.9080  167.7940  268.1780 C.3       1 NDP601      0.0000 
     11 O2B       -86.9800  167.7320  267.2830 O.3       1 NDP601      0.0000 
     12 C1B       -85.9660  166.6260  269.0340 C.3       1 NDP601      0.0000 
     13 N9A       -85.2820  166.8900  270.2530 N.pl3     1 NDP601      0.0000 
     14 C8A       -83.9830  166.6100  270.5220 C.2       1 NDP601      0.0000 
     15 N7A       -83.6930  167.0000  271.7790 N.2       1 NDP601      0.0000 
     16 C5A       -84.8290  167.5400  272.3360 C.ar      1 NDP601      0.0000 
     17 C6A       -85.1470  168.1060  273.5960 C.ar      1 NDP601      0.0000 
     18 N6A       -84.1000  168.1970  274.6450 N.pl3     1 NDP601      0.0000 
     19 N1A       -86.4040  168.5630  273.8440 N.ar      1 NDP601      0.0000 
     20 C2A       -87.3460  168.4710  272.8690 C.ar      1 NDP601      0.0000 
     21 N3A       -87.0960  167.9450  271.6670 N.ar      1 NDP601      0.0000 
     22 C4A       -85.8330  167.4670  271.3680 C.ar      1 NDP601      0.0000 
     23 O3        -81.1550  164.3740  265.1490 O.3       1 NDP601      0.0000 
     24 PN        -79.6250  164.0450  264.8640 P.3       1 NDP601      0.0000 
     25 O1N       -79.0760  164.9520  263.7520 O.co2     1 NDP601      0.0000 
     26 O2N       -78.8220  164.2680  266.1290 O.co2     1 NDP601      0.0000 
     27 O5D       -79.5030  162.5020  264.3870 O.3       1 NDP601      0.0000 
     28 C5D       -79.7850  162.1700  263.0530 C.3       1 NDP601      0.0000 
     29 C4D       -78.6820  161.6440  262.2660 C.3       1 NDP601      0.0000 
     30 O4D       -78.0130  160.6280  263.0090 O.3       1 NDP601      0.0000 
     31 C3D       -79.1510  161.0110  261.0300 C.3       1 NDP601      0.0000 
     32 O3D       -78.1700  161.1310  260.0520 O.3       1 NDP601      0.0000 
     33 C2D       -79.3070  159.6430  261.3930 C.3       1 NDP601      0.0000 
     34 O2D       -79.1960  158.8300  260.2650 O.3       1 NDP601      0.0000 
     35 C1D       -78.1890  159.4250  262.3380 C.3       1 NDP601      0.0000 
     36 N1N       -78.4630  158.3510  263.2480 N.pl3     1 NDP601      0.0000 
     37 C2N       -77.5430  157.3810  263.3800 C.2       1 NDP601      0.0000 
     38 C3N       -77.7500  156.3050  264.2540 C.2       1 NDP601      0.0000 
     39 C7N       -76.6740  155.2420  264.3560 C.2       1 NDP601      0.0000 
     40 O7N       -76.7850  154.3370  265.1980 O.2       1 NDP601      0.0000 
     41 N7N       -75.5310  155.2730  263.4880 N.am      1 NDP601      0.0000 
     42 C4N       -78.9330  156.2310  265.0130 C.3       1 NDP601      0.0000 
     43 C5N       -79.8690  157.2600  264.8520 C.2       1 NDP601      0.0000 
     44 C6N       -79.6250  158.3130  263.9700 C.2       1 NDP601      0.0000 
     45 P2B       -87.9840  168.9160  267.1380 P.3       1 NDP601      0.0000 
     46 O1X       -87.3820  169.9500  266.1650 O.co2     1 NDP601      0.0000 
     47 O2X       -89.2560  168.4060  266.5980 O.co2     1 NDP601      0.0000 
     48 O3X       -88.2480  169.5470  268.4670 O.co2     1 NDP601      0.0000 
@<TRIPOS>BOND
     1    1    2 ar   
     2    1    3 ar   
     3    1    4 1    
     4    1   23 1    
     5    4    5 1    
     6    5    6 1    
     7    6    7 1    
     8    6    8 1    
     9    7   12 1    
    10    8    9 1    
    11    8   10 1    
    12   10   11 1    
    13   10   12 1    
    14   11   45 1    
    15   12   13 1    
    16   13   14 1    
    17   13   22 1    
    18   14   15 2    
    19   15   16 1    
    20   16   17 ar   
    21   16   22 ar   
    22   17   18 1    
    23   17   19 ar   
    24   19   20 ar   
    25   20   21 ar   
    26   21   22 ar   
    27   23   24 1    
    28   24   25 ar   
    29   24   26 ar   
    30   24   27 1    
    31   27   28 1    
    32   28   29 1    
    33   29   30 1    
    34   29   31 1    
    35   30   35 1    
    36   31   32 1    
    37   31   33 1    
    38   33   34 1    
    39   33   35 1    
    40   35   36 1    
    41   36   37 1    
    42   36   44 1    
    43   37   38 2    
    44   38   39 1    
    45   38   42 1    
    46   39   40 2    
    47   39   41 am   
    48   42   43 1    
    49   43   44 2    
    50   45   46 ar   
    51   45   47 ar   
    52   45   48 ar   
@<TRIPOS>SUBSTRUCTURE
     1 NDP601      1 GROUP   
@<TRIPOS>SET
ATOM$ORANGE STATIC     ATOMS   COLORGROUP SYSTEM 
42 5 5 6 6 8 8 10 10 12 12 14 14 16 16 17 17 20 \
20 22 22 28 28 29 29 31 31 33 33 35 35 37 37 38 38 39 \
39 42 42 43 43 44 44 

