#    Name: 6c4n_1_NAP
#    Modification time : Fri May 22 19:35:48 2020

@<TRIPOS>MOLECULE
6c4n_1_NAP
   73    77     1     0     1
SMALL
NO_CHARGES


@<TRIPOS>ATOM
      1 PA         71.0060   38.3670   33.1690 P.3       1 NAP501      0.0000 
      2 O1A        72.0780   39.1740   32.5410 O.co2     1 NAP501      0.0000 
      3 O2A        71.1660   36.8970   33.0890 O.co2     1 NAP501      0.0000 
      4 O5B        70.8510   38.8090   34.7940 O.3       1 NAP501      0.0000 
      5 C5B        69.6780   39.0690   35.4320 C.3       1 NAP501      0.0000 
      6 C4B        70.0070   39.0400   36.9540 C.3       1 NAP501      0.0000 
      7 O4B        69.0880   38.3750   37.6450 O.3       1 NAP501      0.0000 
      8 C3B        71.3470   38.3440   37.2400 C.3       1 NAP501      0.0000 
      9 O3B        72.0720   39.1540   38.0730 O.3       1 NAP501      0.0000 
     10 C2B        70.9460   36.9900   37.9010 C.3       1 NAP501      0.0000 
     11 O2B        72.0740   36.5710   38.7750 O.3       1 NAP501      0.0000 
     12 C1B        69.7830   37.2050   38.5020 C.3       1 NAP501      0.0000 
     13 N9A        68.8710   36.0450   38.3920 N.pl3     1 NAP501      0.0000 
     14 C8A        68.6820   35.1390   37.4400 C.2       1 NAP501      0.0000 
     15 N7A        67.7250   34.2810   37.8380 N.2       1 NAP501      0.0000 
     16 C5A        67.2960   34.6650   39.0430 C.ar      1 NAP501      0.0000 
     17 C6A        66.3480   34.1440   39.8760 C.ar      1 NAP501      0.0000 
     18 N6A        65.5650   33.0040   39.5730 N.pl3     1 NAP501      0.0000 
     19 N1A        66.0780   34.7160   41.0700 N.ar      1 NAP501      0.0000 
     20 C2A        66.7860   35.8030   41.4260 C.ar      1 NAP501      0.0000 
     21 N3A        67.7210   36.3210   40.5900 N.ar      1 NAP501      0.0000 
     22 C4A        67.9790   35.7630   39.3890 C.ar      1 NAP501      0.0000 
     23 O3         69.5900   38.5970   32.4150 O.3       1 NAP501      0.0000 
     24 PN         69.3320   39.9210   31.5330 P.3       1 NAP501      0.0000 
     25 O1N        69.9940   39.8470   30.2190 O.co2     1 NAP501      0.0000 
     26 O2N        69.6860   41.1820   32.3040 O.co2     1 NAP501      0.0000 
     27 O5D        67.7460   39.8330   31.2560 O.3       1 NAP501      0.0000 
     28 C5D        66.7610   39.9450   32.2630 C.3       1 NAP501      0.0000 
     29 C4D        65.4350   39.8170   31.5270 C.3       1 NAP501      0.0000 
     30 O4D        65.2470   40.8030   30.6180 O.3       1 NAP501      0.0000 
     31 C3D        65.5260   38.5950   30.6640 C.3       1 NAP501      0.0000 
     32 O3D        65.1530   37.5560   31.4230 O.3       1 NAP501      0.0000 
     33 C2D        64.3940   38.8390   29.6380 C.3       1 NAP501      0.0000 
     34 O2D        63.2330   38.4890   30.5300 O.3       1 NAP501      0.0000 
     35 C1D        64.4750   40.1200   29.3660 C.3       1 NAP501      0.0000 
     36 N1N        65.2000   40.4890   28.1240 N.pl3     1 NAP501      0.0000 
     37 C2N        66.5170   40.8700   28.1250 C.ar      1 NAP501      0.0000 
     38 C3N        67.1370   41.2280   26.9240 C.ar      1 NAP501      0.0000 
     39 C7N        68.6190   41.6370   26.8150 C.2       1 NAP501      0.0000 
     40 O7N        69.0270   42.1990   25.8140 O.2       1 NAP501      0.0000 
     41 N7N        69.5240   41.3560   27.8420 N.am      1 NAP501      0.0000 
     42 C4N        66.4220   41.2170   25.7780 C.ar      1 NAP501      0.0000 
     43 C5N        65.1110   40.8710   25.7760 C.ar      1 NAP501      0.0000 
     44 C6N        64.5000   40.5000   26.9590 C.ar      1 NAP501      0.0000 
     45 P2B        72.6080   35.0340   38.6680 P.3       1 NAP501      0.0000 
     46 O1X        73.6110   34.8000   39.7510 O.co2     1 NAP501      0.0000 
     47 O2X        71.3880   34.2000   38.8470 O.co2     1 NAP501      0.0000 
     48 O3X        73.1890   34.8480   37.3490 O.co2     1 NAP501      0.0000 
     49 H51A       69.0220   38.3870   35.2190 H         1 NAP501      0.0000 
     50 H52A       69.3470   39.9450   35.1780 H         1 NAP501      0.0000 
     51 H4B        70.0500   39.9490   37.2890 H         1 NAP501      0.0000 
     52 H3B        71.8270   38.1860   36.4110 H         1 NAP501      0.0000 
     53 HO3A       72.7420   39.4670   37.6530 H         1 NAP501      0.0000 
     54 H2B        70.8180   36.3240   37.2070 H         1 NAP501      0.0000 
     55 H1B        69.9050   37.4770   39.4250 H         1 NAP501      0.0000 
     56 H8A        69.1490   35.0920   36.6360 H         1 NAP501      0.0000 
     57 H61A       65.8190   32.2260   39.8370 H         1 NAP501      0.0000 
     58 H62A       64.8360   33.0900   39.1250 H         1 NAP501      0.0000 
     59 H2A        66.6170   36.2160   42.2410 H         1 NAP501      0.0000 
     60 H51N       66.8230   40.8060   32.7060 H         1 NAP501      0.0000 
     61 H52N       66.8570   39.2270   32.9090 H         1 NAP501      0.0000 
     62 H4D        64.6880   39.7580   32.1430 H         1 NAP501      0.0000 
     63 H3D        66.3960   38.4840   30.2500 H         1 NAP501      0.0000 
     64 HO3N       65.4060   36.8310   31.0580 H         1 NAP501      0.0000 
     65 H2D        64.4720   38.2720   28.8550 H         1 NAP501      0.0000 
     66 HO2N       62.5050   38.6380   30.1170 H         1 NAP501      0.0000 
     67 H1D        63.5760   40.4830   29.3210 H         1 NAP501      0.0000 
     68 H2N        67.0040   40.8660   28.9170 H         1 NAP501      0.0000 
     69 H71N       70.3480   41.5890   27.7660 H         1 NAP501      0.0000 
     70 H72N       69.2540   40.9570   28.5550 H         1 NAP501      0.0000 
     71 H4N        66.8330   41.4560   24.9790 H         1 NAP501      0.0000 
     72 H5N        64.6310   40.8620   24.9790 H         1 NAP501      0.0000 
     73 H6N        63.6000   40.2640   26.9580 H         1 NAP501      0.0000 
@<TRIPOS>BOND
     1    1    2 ar   
     2    1    3 ar   
     3    1    4 1    
     4    1   23 1    
     5    4    5 1    
     6    5    6 1    
     7    5   49 1    
     8    5   50 1    
     9    6    7 1    
    10    6    8 1    
    11    6   51 1    
    12    7   12 1    
    13    8    9 1    
    14    8   10 1    
    15    8   52 1    
    16    9   53 1    
    17   10   11 1    
    18   10   12 1    
    19   10   54 1    
    20   11   45 1    
    21   12   13 1    
    22   12   55 1    
    23   13   14 1    
    24   13   22 1    
    25   14   15 2    
    26   15   16 1    
    27   14   56 1    
    28   16   17 ar   
    29   16   22 ar   
    30   17   18 1    
    31   17   19 ar   
    32   19   20 ar   
    33   18   57 1    
    34   18   58 1    
    35   20   21 ar   
    36   21   22 ar   
    37   20   59 1    
    38   23   24 1    
    39   24   25 ar   
    40   24   26 ar   
    41   24   27 1    
    42   27   28 1    
    43   28   29 1    
    44   28   60 1    
    45   28   61 1    
    46   29   30 1    
    47   29   31 1    
    48   29   62 1    
    49   30   35 1    
    50   31   32 1    
    51   31   33 1    
    52   31   63 1    
    53   32   64 1    
    54   33   34 1    
    55   33   35 1    
    56   33   65 1    
    57   35   67 1    
    58   35   36 1    
    59   34   66 1    
    60   36   37 ar   
    61   36   44 ar   
    62   37   38 ar   
    63   38   39 1    
    64   37   68 1    
    65   38   42 ar   
    66   39   40 2    
    67   39   41 am   
    68   42   43 ar   
    69   41   69 1    
    70   41   70 1    
    71   43   44 ar   
    72   42   71 1    
    73   45   46 ar   
    74   43   72 1    
    75   44   73 1    
    76   45   47 ar   
    77   45   48 ar   
@<TRIPOS>SUBSTRUCTURE
     1 NAP501      1 GROUP   
@<TRIPOS>SET
ATOM$ORANGE STATIC     ATOMS   COLORGROUP SYSTEM 
42 5 5 6 6 8 8 10 10 12 12 14 14 16 16 17 17 20 \
20 22 22 28 28 29 29 31 31 33 33 35 35 37 37 38 38 39 \
39 42 42 43 43 44 44 

