#    Name: 6c4n_2_NAP
#    Modification time : Fri May 22 19:35:53 2020

@<TRIPOS>MOLECULE
6c4n_2_NAP
   73    77     1     0     1
SMALL
NO_CHARGES


@<TRIPOS>ATOM
      1 PA         80.2000   30.8400  -27.5170 P.3       1 NAP501      0.0000 
      2 O1A        81.2210   30.1860  -26.6790 O.co2     1 NAP501      0.0000 
      3 O2A        80.2910   32.3190  -27.7040 O.co2     1 NAP501      0.0000 
      4 O5B        80.3210   30.1560  -29.0450 O.3       1 NAP501      0.0000 
      5 C5B        79.4680   30.6280  -29.9980 C.3       1 NAP501      0.0000 
      6 C4B        80.2070   30.2660  -31.2960 C.3       1 NAP501      0.0000 
      7 O4B        79.4260   30.5040  -32.3420 O.3       1 NAP501      0.0000 
      8 C3B        81.4040   31.1990  -31.3680 C.3       1 NAP501      0.0000 
      9 O3B        82.5020   30.5200  -31.8340 O.3       1 NAP501      0.0000 
     10 C2B        80.8900   32.3060  -32.3460 C.3       1 NAP501      0.0000 
     11 O2B        82.0690   32.9700  -32.9760 O.3       1 NAP501      0.0000 
     12 C1B        80.1340   31.6450  -33.2150 C.3       1 NAP501      0.0000 
     13 N9A        79.0410   32.4310  -33.7530 N.pl3     1 NAP501      0.0000 
     14 C8A        78.2960   33.4330  -33.2710 C.2       1 NAP501      0.0000 
     15 N7A        77.4130   33.7770  -34.2100 N.2       1 NAP501      0.0000 
     16 C5A        77.6230   32.9780  -35.2890 C.ar      1 NAP501      0.0000 
     17 C6A        76.9990   32.9250  -36.4940 C.ar      1 NAP501      0.0000 
     18 N6A        75.9320   33.7830  -36.8520 N.pl3     1 NAP501      0.0000 
     19 N1A        77.3400   32.0360  -37.4230 N.ar      1 NAP501      0.0000 
     20 C2A        78.3600   31.1980  -37.1440 C.ar      1 NAP501      0.0000 
     21 N3A        78.9910   31.2510  -35.9540 N.ar      1 NAP501      0.0000 
     22 C4A        78.6100   32.1450  -35.0180 C.ar      1 NAP501      0.0000 
     23 O3         78.6880   30.5740  -26.9930 O.3       1 NAP501      0.0000 
     24 PN         78.3300   29.1930  -26.2230 P.3       1 NAP501      0.0000 
     25 O1N        78.8710   29.2710  -24.8540 O.co2     1 NAP501      0.0000 
     26 O2N        78.9420   27.9810  -26.8850 O.co2     1 NAP501      0.0000 
     27 O5D        76.7310   29.2300  -26.0730 O.3       1 NAP501      0.0000 
     28 C5D        75.9390   28.7040  -27.1310 C.3       1 NAP501      0.0000 
     29 C4D        74.4570   28.9940  -26.8180 C.3       1 NAP501      0.0000 
     30 O4D        74.0250   28.3040  -25.7470 O.3       1 NAP501      0.0000 
     31 C3D        74.3070   30.4480  -26.4650 C.3       1 NAP501      0.0000 
     32 O3D        73.1030   30.8940  -26.9080 O.3       1 NAP501      0.0000 
     33 C2D        74.2900   30.4900  -24.9030 C.3       1 NAP501      0.0000 
     34 O2D        73.6490   31.7480  -24.4270 O.3       1 NAP501      0.0000 
     35 C1D        73.6290   29.4100  -24.6180 C.3       1 NAP501      0.0000 
     36 N1N        74.0160   28.8320  -23.3110 N.pl3     1 NAP501      0.0000 
     37 C2N        75.2760   28.3780  -23.1160 C.ar      1 NAP501      0.0000 
     38 C3N        75.6340   27.8290  -21.8950 C.ar      1 NAP501      0.0000 
     39 C7N        77.0630   27.3330  -21.6830 C.2       1 NAP501      0.0000 
     40 O7N        77.3450   26.6830  -20.7020 O.2       1 NAP501      0.0000 
     41 N7N        78.0410   27.6350  -22.6350 N.am      1 NAP501      0.0000 
     42 C4N        74.7340   27.7320  -20.8990 C.ar      1 NAP501      0.0000 
     43 C5N        73.4710   28.1720  -21.0930 C.ar      1 NAP501      0.0000 
     44 C6N        73.1110   28.7220  -22.3100 C.ar      1 NAP501      0.0000 
     45 P2B        82.3170   34.5150  -32.5870 P.3       1 NAP501      0.0000 
     46 O1X        83.4220   35.0340  -33.4720 O.co2     1 NAP501      0.0000 
     47 O2X        81.0660   35.3020  -32.7360 O.co2     1 NAP501      0.0000 
     48 O3X        82.6950   34.4890  -31.1470 O.co2     1 NAP501      0.0000 
     49 H51A       78.6120   30.1740  -29.9500 H         1 NAP501      0.0000 
     50 H52A       79.3590   31.5880  -29.9180 H         1 NAP501      0.0000 
     51 H4B        80.4960   29.3400  -31.2890 H         1 NAP501      0.0000 
     52 H3B        81.5840   31.5800  -30.4940 H         1 NAP501      0.0000 
     53 HO3A       82.6770   29.8710  -31.3140 H         1 NAP501      0.0000 
     54 H2B        80.3530   32.9550  -31.8650 H         1 NAP501      0.0000 
     55 H1B        80.6710   31.2530  -33.9210 H         1 NAP501      0.0000 
     56 H8A        78.3810   33.8240  -32.4320 H         1 NAP501      0.0000 
     57 H61A       75.5870   33.7350  -37.6380 H         1 NAP501      0.0000 
     58 H62A       75.6290   34.3520  -36.2830 H         1 NAP501      0.0000 
     59 H2A        78.6300   30.5760  -37.7800 H         1 NAP501      0.0000 
     60 H51N       76.0800   27.7470  -27.2040 H         1 NAP501      0.0000 
     61 H52N       76.1840   29.1330  -27.9660 H         1 NAP501      0.0000 
     62 H4D        73.9070   28.7830  -27.5880 H         1 NAP501      0.0000 
     63 H3D        75.0390   30.9760  -26.8220 H         1 NAP501      0.0000 
     64 HO3N       73.0200   31.7210  -26.7270 H         1 NAP501      0.0000 
     65 H2D        75.1960   30.4210  -24.5640 H         1 NAP501      0.0000 
     66 HO2N       74.0850   32.4160  -24.7200 H         1 NAP501      0.0000 
     67 H1D        72.6760   29.5860  -24.6420 H         1 NAP501      0.0000 
     68 H2N        75.9060   28.4440  -23.7970 H         1 NAP501      0.0000 
     69 H71N       78.8480   27.3600  -22.5250 H         1 NAP501      0.0000 
     70 H72N       77.8340   28.0970  -23.3300 H         1 NAP501      0.0000 
     71 H4N        74.9780   27.3610  -20.0830 H         1 NAP501      0.0000 
     72 H5N        72.8440   28.1080  -20.4090 H         1 NAP501      0.0000 
     73 H6N        72.2420   29.0260  -22.4370 H         1 NAP501      0.0000 
@<TRIPOS>BOND
     1    1    2 ar   
     2    1    3 ar   
     3    1    4 1    
     4    1   23 1    
     5    4    5 1    
     6    5    6 1    
     7    5   49 1    
     8    5   50 1    
     9    6    7 1    
    10    6    8 1    
    11    6   51 1    
    12    7   12 1    
    13    8    9 1    
    14    8   10 1    
    15    8   52 1    
    16    9   53 1    
    17   10   11 1    
    18   10   12 1    
    19   10   54 1    
    20   11   45 1    
    21   12   13 1    
    22   12   55 1    
    23   13   14 1    
    24   13   22 1    
    25   14   15 2    
    26   15   16 1    
    27   14   56 1    
    28   16   17 ar   
    29   16   22 ar   
    30   17   18 1    
    31   17   19 ar   
    32   19   20 ar   
    33   18   57 1    
    34   18   58 1    
    35   20   21 ar   
    36   21   22 ar   
    37   20   59 1    
    38   23   24 1    
    39   24   25 ar   
    40   24   26 ar   
    41   24   27 1    
    42   27   28 1    
    43   28   29 1    
    44   28   60 1    
    45   28   61 1    
    46   29   30 1    
    47   29   31 1    
    48   29   62 1    
    49   30   35 1    
    50   31   32 1    
    51   31   33 1    
    52   31   63 1    
    53   32   64 1    
    54   33   34 1    
    55   33   35 1    
    56   33   65 1    
    57   35   67 1    
    58   35   36 1    
    59   34   66 1    
    60   36   37 ar   
    61   36   44 ar   
    62   37   38 ar   
    63   38   39 1    
    64   37   68 1    
    65   38   42 ar   
    66   39   40 2    
    67   39   41 am   
    68   42   43 ar   
    69   41   69 1    
    70   41   70 1    
    71   43   44 ar   
    72   42   71 1    
    73   45   46 ar   
    74   43   72 1    
    75   44   73 1    
    76   45   47 ar   
    77   45   48 ar   
@<TRIPOS>SUBSTRUCTURE
     1 NAP501      1 GROUP   
@<TRIPOS>SET
ATOM$ORANGE STATIC     ATOMS   COLORGROUP SYSTEM 
42 5 5 6 6 8 8 10 10 12 12 14 14 16 16 17 17 20 \
20 22 22 28 28 29 29 31 31 33 33 35 35 37 37 38 38 39 \
39 42 42 43 43 44 44 

