#    Name: 6q4m_1_12V
#    Modification time : Fri May 22 19:33:18 2020

@<TRIPOS>MOLECULE
6q4m_1_12V
   39    41     1     0     0
SMALL
NO_CHARGES


@<TRIPOS>ATOM
      1 N1         12.3030   39.5800   28.7980 N.am      1 12V1101     0.0000 
      2 C2         12.7820   38.3320   29.1930 C.2       1 12V1101     0.0000 
      3 O2         13.8870   38.1510   29.6750 O.2       1 12V1101     0.0000 
      4 N3         11.9890   37.2830   28.8340 N.am      1 12V1101     0.0000 
      5 C4         10.7840   37.3470   28.1550 C.2       1 12V1101     0.0000 
      6 O4         10.1760   36.3110   27.8940 O.2       1 12V1101     0.0000 
      7 C5         10.3270   38.6710   27.8710 C.2       1 12V1101     0.0000 
      8 C6         11.0770   39.7300   28.2130 C.2       1 12V1101     0.0000 
      9 PA         10.6280   46.0240   30.2670 P.3       1 12V1101     0.0000 
     10 PB         10.9460   47.5940   27.7930 P.3       1 12V1101     0.0000 
     11 C1'        12.1020   49.1890   29.4300 C.3       1 12V1101     0.0000 
     12 O1'        12.1950   48.5540   28.0710 O.3       1 12V1101     0.0000 
     13 O1A        11.0530   47.1990   31.0160 O.co2     1 12V1101     0.0000 
     14 C1B        13.0810   40.7490   29.2150 C.3       1 12V1101     0.0000 
     15 O1B        10.7440   47.1390   26.3730 O.co2     1 12V1101     0.0000 
     16 C2'        11.9030   50.7350   29.4680 C.3       1 12V1101     0.0000 
     17 N2'        10.4910   51.0890   29.2300 N.am      1 12V1101     0.0000 
     18 O2'        14.5390   41.5830   27.4160 O.3       1 12V1101     0.0000 
     19 O2A         9.1580   45.7650   30.2940 O.co2     1 12V1101     0.0000 
     20 C2B        13.3780   41.8380   28.1730 C.3       1 12V1101     0.0000 
     21 O2B         9.7990   48.3770   28.3260 O.co2     1 12V1101     0.0000 
     22 C3'        13.0290   51.4710   28.7090 C.3       1 12V1101     0.0000 
     23 O3'        12.7370   52.8000   28.2640 O.3       1 12V1101     0.0000 
     24 O3A        11.1470   46.3100   28.7540 O.3       1 12V1101     0.0000 
     25 C3B        13.6140   43.0230   29.1200 C.3       1 12V1101     0.0000 
     26 O3B        14.9430   43.0930   29.6230 O.3       1 12V1101     0.0000 
     27 C4'        14.2930   51.5290   29.5750 C.3       1 12V1101     0.0000 
     28 O4'        15.2740   52.2130   28.7870 O.3       1 12V1101     0.0000 
     29 C4B        12.6030   42.7510   30.2400 C.3       1 12V1101     0.0000 
     30 O4B        12.2610   41.3550   30.1620 O.3       1 12V1101     0.0000 
     31 C5'        14.7560   50.0840   29.9470 C.3       1 12V1101     0.0000 
     32 S5'        13.4330   49.0300   30.6690 S.3       1 12V1101     0.0000 
     33 C5B        11.3060   43.4800   30.1280 C.3       1 12V1101     0.0000 
     34 O5B        11.4950   44.7460   30.7010 O.3       1 12V1101     0.0000 
     35 C6'        15.9430   49.9500   30.9050 C.3       1 12V1101     0.0000 
     36 O6'        16.4130   51.1480   31.5110 O.3       1 12V1101     0.0000 
     37 C7'         9.5660   51.0920   30.2170 C.2       1 12V1101     0.0000 
     38 O7'         9.8160   50.6070   31.3210 O.2       1 12V1101     0.0000 
     39 C8'         8.2400   51.7420   29.9220 C.3       1 12V1101     0.0000 
@<TRIPOS>BOND
     1    1    2 1    
     2    1    8 1    
     3    1   14 1    
     4    2    3 2    
     5    2    4 1    
     6    4    5 1    
     7    5    6 2    
     8    5    7 1    
     9    7    8 2    
    10    9   13 ar   
    11    9   19 ar   
    12    9   24 1    
    13    9   34 1    
    14   10   12 1    
    15   10   15 ar   
    16   10   21 ar   
    17   10   24 1    
    18   11   12 1    
    19   11   16 1    
    20   11   32 1    
    21   14   20 1    
    22   14   30 1    
    23   16   17 1    
    24   16   22 1    
    25   17   37 am   
    26   18   20 1    
    27   20   25 1    
    28   22   23 1    
    29   22   27 1    
    30   25   26 1    
    31   25   29 1    
    32   27   28 1    
    33   27   31 1    
    34   29   30 1    
    35   29   33 1    
    36   31   32 1    
    37   31   35 1    
    38   33   34 1    
    39   35   36 1    
    40   37   38 2    
    41   37   39 1    
@<TRIPOS>SUBSTRUCTURE
     1 12V1101     1 GROUP   
@<TRIPOS>SET

