#    Name: 6q4m_1_12V_CAVITY_N1_ALL
#    Modification time : Fri May 22 19:33:20 2020

@<TRIPOS>MOLECULE
6q4m_1_12V_CAVITY_N1_ALL
   84     0     6     0     0
SMALL
NO_CHARGES


@<TRIPOS>ATOM
      1 OG         11.3100   46.5600   28.3900 O.3       1 SER1        0.0000 
      2 OG         11.5200   45.2900   29.1600 O.3       1 SER1        0.0000 
      3 OG         10.1500   50.0400   28.6000 O.3       1 SER1        0.0000 
      4 OG         11.7200   48.6100   28.7400 O.3       1 SER1        0.0000 
      5 OG         11.9300   47.3400   29.5100 O.3       1 SER1        0.0000 
      6 OG          8.0700   51.1400   30.9800 O.3       1 SER1        0.0000 
      7 OG          9.4200   50.9800   30.3500 O.3       1 SER1        0.0000 
      8 OG         10.7700   50.8200   29.7200 O.3       1 SER1        0.0000 
      9 OG         12.1200   50.6600   29.0900 O.3       1 SER1        0.0000 
     10 OG         13.6800   49.2300   29.2300 O.3       1 SER1        0.0000 
     11 OG         13.9000   47.9600   30.0000 O.3       1 SER1        0.0000 
     12 OG         14.8200   50.3400   27.8300 O.3       1 SER1        0.0000 
     13 OG          6.1900   50.9700   34.1400 O.3       1 SER1        0.0000 
     14 OG          7.3300   52.0800   32.7400 O.3       1 SER1        0.0000 
     15 OG          7.5400   50.8100   33.5100 O.3       1 SER1        0.0000 
     16 OG          8.9000   50.6500   32.8800 O.3       1 SER1        0.0000 
     17 OG         14.3000   50.0200   30.3500 O.3       1 SER1        0.0000 
     18 OG         15.6500   49.8600   29.7200 O.3       1 SER1        0.0000 
     19 OG         16.2700   50.6400   30.8400 O.3       1 SER1        0.0000 
     20 N          10.1700   45.4500   29.7900 N.am      2 ALA2        0.0000 
     21 N          10.3800   44.1800   30.5600 N.am      2 ALA2        0.0000 
     22 N          10.7900   46.2300   30.9100 N.am      2 ALA2        0.0000 
     23 N          11.0000   44.9600   31.6800 N.am      2 ALA2        0.0000 
     24 N           5.9800   52.2400   33.3700 N.am      2 ALA2        0.0000 
     25 N           7.1200   53.3500   31.9700 N.am      2 ALA2        0.0000 
     26 N          12.7400   51.4400   30.2100 N.am      2 ALA2        0.0000 
     27 N          13.8800   52.5500   28.8100 N.am      2 ALA2        0.0000 
     28 N          14.0900   51.2900   29.5800 N.am      2 ALA2        0.0000 
     29 N          15.2300   52.4000   28.1800 N.am      2 ALA2        0.0000 
     30 N          15.4400   51.1300   28.9500 N.am      2 ALA2        0.0000 
     31 N           6.6000   53.0200   34.4900 N.am      2 ALA2        0.0000 
     32 N           7.7400   54.1300   33.0900 N.am      2 ALA2        0.0000 
     33 N          12.0000   52.3900   31.9600 N.am      2 ALA2        0.0000 
     34 N          12.2100   51.1200   32.7300 N.am      2 ALA2        0.0000 
     35 N          13.5700   50.9600   32.1000 N.am      2 ALA2        0.0000 
     36 N          14.9200   50.8000   31.4700 N.am      2 ALA2        0.0000 
     37 N          16.0600   51.9100   30.0700 N.am      2 ALA2        0.0000 
     38 N          15.5300   51.5800   32.5900 N.am      2 ALA2        0.0000 
     39 OD1         9.7500   47.9900   28.2500 O.co2     3 ASP3        0.0000 
     40 OD1         9.9600   46.7200   29.0200 O.co2     3 ASP3        0.0000 
     41 OD1         8.8000   50.2000   29.2300 O.co2     3 ASP3        0.0000 
     42 OD1        10.3700   48.7700   29.3700 O.co2     3 ASP3        0.0000 
     43 CZ         13.7800   49.6900   32.8700 C.ar      4 PHE5        0.0000 
     44 CZ         15.1300   49.5300   32.2400 C.ar      4 PHE5        0.0000 
     45 CA         11.5100   49.8800   27.9700 C.3       5 GLY6        0.0000 
     46 CA         12.1400   46.0700   30.2800 C.3       5 GLY6        0.0000 
     47 CA         12.3500   44.8000   31.0500 C.3       5 GLY6        0.0000 
     48 CA         13.4900   45.9100   29.6500 C.3       5 GLY6        0.0000 
     49 CA          7.8600   52.4100   30.2100 C.3       5 GLY6        0.0000 
     50 CA          9.2100   52.2500   29.5800 C.3       5 GLY6        0.0000 
     51 CA         12.5400   48.1200   30.6300 C.3       5 GLY6        0.0000 
     52 CA         13.2600   51.7700   27.6900 C.3       5 GLY6        0.0000 
     53 CA         13.4700   50.5000   28.4600 C.3       5 GLY6        0.0000 
     54 CA          8.4700   53.1900   31.3300 C.3       5 GLY6        0.0000 
     55 CA         10.0400   51.7600   31.4700 C.3       5 GLY6        0.0000 
     56 CA         11.3900   51.6000   30.8400 C.3       5 GLY6        0.0000 
     57 CA         12.5300   52.7100   29.4400 C.3       5 GLY6        0.0000 
     58 CA         13.1600   48.9000   31.7500 C.3       5 GLY6        0.0000 
     59 CA         14.5100   48.7500   31.1200 C.3       5 GLY6        0.0000 
     60 CA          6.8100   51.7500   35.2600 C.3       5 GLY6        0.0000 
     61 CA          7.9500   52.8600   33.8600 C.3       5 GLY6        0.0000 
     62 CA          9.0900   53.9700   32.4600 C.3       5 GLY6        0.0000 
     63 CA         10.6500   52.5500   32.5900 C.3       5 GLY6        0.0000 
     64 CA          8.7800   52.3800   35.7500 C.3       5 GLY6        0.0000 
     65 CA          9.9200   53.4900   34.3500 C.3       5 GLY6        0.0000 
     66 CA         10.1300   52.2200   35.1200 C.3       5 GLY6        0.0000 
     67 CA         11.2700   53.3300   33.7200 C.3       5 GLY6        0.0000 
     68 CA         11.4800   52.0600   34.4900 C.3       5 GLY6        0.0000 
     69 DU         10.5800   47.5000   30.1400 H         6 CUB7        0.0000 
     70 DU         10.9800   49.5500   30.4900 H         6 CUB7        0.0000 
     71 DU         11.1900   48.2800   31.2600 H         6 CUB7        0.0000 
     72 DU         12.3300   49.3900   29.8600 H         6 CUB7        0.0000 
     73 DU          6.4000   49.7000   34.9100 H         6 CUB7        0.0000 
     74 DU          7.7600   49.5400   34.2800 H         6 CUB7        0.0000 
     75 DU          8.6900   51.9200   32.1100 H         6 CUB7        0.0000 
     76 DU          9.1100   49.3800   33.6500 H         6 CUB7        0.0000 
     77 DU         10.2500   50.4900   32.2400 H         6 CUB7        0.0000 
     78 DU         11.6000   50.3300   31.6100 H         6 CUB7        0.0000 
     79 DU         12.9500   50.1700   30.9800 H         6 CUB7        0.0000 
     80 DU          8.1600   51.5900   34.6300 H         6 CUB7        0.0000 
     81 DU          9.3000   52.7000   33.2300 H         6 CUB7        0.0000 
     82 DU          9.5100   51.4300   34.0000 H         6 CUB7        0.0000 
     83 DU         10.8600   51.2800   33.3700 H         6 CUB7        0.0000 
     84 DU         12.4300   49.8500   33.5000 H         6 CUB7        0.0000 
@<TRIPOS>BOND
@<TRIPOS>SUBSTRUCTURE
     1 SER1        1 GROUP   
     2 ALA2       20 GROUP   
     3 ASP3       39 GROUP   
     4 PHE5       43 GROUP   
     5 GLY6       45 GROUP   
     6 CUB7       69 GROUP   
@<TRIPOS>SET

