#    Name: 6dum_1_NAI
#    Modification time : Fri May 22 19:25:44 2020

@<TRIPOS>MOLECULE
6dum_1_NAI
   44    48     1     0     1
SMALL
NO_CHARGES


@<TRIPOS>ATOM
      1 PA         44.9280  -14.4700   31.7470 P.3       1 NAI604      0.0000 
      2 O1A        45.2520  -13.1310   31.1560 O.co2     1 NAI604      0.0000 
      3 O2A        44.8720  -14.5840   33.2690 O.co2     1 NAI604      0.0000 
      4 O5B        45.8030  -15.6400   31.0640 O.3       1 NAI604      0.0000 
      5 C5B        46.2380  -15.6240   29.6960 C.3       1 NAI604      0.0000 
      6 C4B        47.7420  -15.9180   29.6460 C.3       1 NAI604      0.0000 
      7 O4B        48.3910  -14.9500   30.4860 O.3       1 NAI604      0.0000 
      8 C3B        48.0730  -17.3090   30.2050 C.3       1 NAI604      0.0000 
      9 O3B        49.2150  -17.9090   29.5850 O.3       1 NAI604      0.0000 
     10 C2B        48.4430  -17.0270   31.6160 C.3       1 NAI604      0.0000 
     11 O2B        49.3160  -18.0160   32.1470 O.3       1 NAI604      0.0000 
     12 C1B        49.1400  -15.6750   31.4480 C.3       1 NAI604      0.0000 
     13 N9A        49.3420  -14.9800   32.7190 N.pl3     1 NAI604      0.0000 
     14 C8A        48.5970  -15.0790   33.8450 C.2       1 NAI604      0.0000 
     15 N7A        49.1400  -14.3410   34.8500 N.2       1 NAI604      0.0000 
     16 C5A        50.2600  -13.7660   34.3600 C.ar      1 NAI604      0.0000 
     17 C6A        51.3030  -12.8640   34.8630 C.ar      1 NAI604      0.0000 
     18 N6A        51.2460  -12.4100   36.1280 N.pl3     1 NAI604      0.0000 
     19 N1A        52.3080  -12.4970   34.0350 N.ar      1 NAI604      0.0000 
     20 C2A        52.3640  -12.9300   32.7570 C.ar      1 NAI604      0.0000 
     21 N3A        51.4540  -13.7680   32.2420 N.ar      1 NAI604      0.0000 
     22 C4A        50.3980  -14.2080   32.9690 C.ar      1 NAI604      0.0000 
     23 O3         43.4380  -14.9670   31.2650 O.3       1 NAI604      0.0000 
     24 PN         42.4870  -15.7670   32.3760 P.3       1 NAI604      0.0000 
     25 O1N        42.8230  -15.2990   33.7630 O.co2     1 NAI604      0.0000 
     26 O2N        42.5910  -17.2140   32.0130 O.co2     1 NAI604      0.0000 
     27 O5D        40.9920  -15.2630   32.0130 O.3       1 NAI604      0.0000 
     28 C5D        40.3650  -14.1670   32.6920 C.3       1 NAI604      0.0000 
     29 C4D        39.6990  -13.2550   31.6630 C.3       1 NAI604      0.0000 
     30 O4D        40.5990  -12.6690   30.7090 O.3       1 NAI604      0.0000 
     31 C3D        38.6810  -13.9840   30.8180 C.3       1 NAI604      0.0000 
     32 O3D        37.5290  -14.1400   31.6350 O.3       1 NAI604      0.0000 
     33 C2D        38.5740  -13.0890   29.5840 C.3       1 NAI604      0.0000 
     34 O2D        37.6230  -12.0340   29.7520 O.3       1 NAI604      0.0000 
     35 C1D        39.9880  -12.5070   29.4250 C.3       1 NAI604      0.0000 
     36 N1N        40.6800  -13.2620   28.3640 N.pl3     1 NAI604      0.0000 
     37 C2N        40.6970  -12.8060   27.0930 C.2       1 NAI604      0.0000 
     38 C3N        41.3010  -13.5430   26.0830 C.2       1 NAI604      0.0000 
     39 C7N        41.3880  -13.0440   24.6800 C.2       1 NAI604      0.0000 
     40 O7N        41.2900  -13.8310   23.7560 O.2       1 NAI604      0.0000 
     41 N7N        41.6170  -11.7560   24.4570 N.am      1 NAI604      0.0000 
     42 C4N        41.9250  -14.8910   26.3450 C.3       1 NAI604      0.0000 
     43 C5N        41.8380  -15.2900   27.7460 C.2       1 NAI604      0.0000 
     44 C6N        41.2020  -14.4720   28.6740 C.2       1 NAI604      0.0000 
@<TRIPOS>BOND
     1    1    2 ar   
     2    1    3 ar   
     3    1    4 1    
     4    1   23 1    
     5    4    5 1    
     6    5    6 1    
     7    6    7 1    
     8    6    8 1    
     9    7   12 1    
    10    8    9 1    
    11    8   10 1    
    12   10   11 1    
    13   10   12 1    
    14   12   13 1    
    15   13   14 1    
    16   13   22 1    
    17   14   15 2    
    18   15   16 1    
    19   16   17 ar   
    20   16   22 ar   
    21   17   18 1    
    22   17   19 ar   
    23   19   20 ar   
    24   20   21 ar   
    25   21   22 ar   
    26   23   24 1    
    27   24   25 ar   
    28   24   26 ar   
    29   24   27 1    
    30   27   28 1    
    31   28   29 1    
    32   29   30 1    
    33   29   31 1    
    34   30   35 1    
    35   31   32 1    
    36   31   33 1    
    37   33   34 1    
    38   33   35 1    
    39   35   36 1    
    40   36   37 1    
    41   36   44 1    
    42   37   38 2    
    43   38   39 1    
    44   38   42 1    
    45   39   40 2    
    46   39   41 am   
    47   42   43 1    
    48   43   44 2    
@<TRIPOS>SUBSTRUCTURE
     1 NAI604      1 GROUP   
@<TRIPOS>SET
ATOM$ORANGE STATIC     ATOMS   COLORGROUP SYSTEM 
42 5 5 6 6 8 8 10 10 12 12 14 14 16 16 17 17 20 \
20 22 22 28 28 29 29 31 31 33 33 35 35 37 37 38 38 39 \
39 42 42 43 43 44 44 

