#    Name: 6j7k_1_TRH
#    Modification time : Fri May 22 19:35:08 2020

@<TRIPOS>MOLECULE
6j7k_1_TRH
   35    37     1     0     0
SMALL
NO_CHARGES


@<TRIPOS>ATOM
      1 O4P        44.0630   42.9930   13.1840 O.co2     1 TRH401      0.0000 
      2 P2         44.9640   44.0810   13.7280 P.3       1 TRH401      0.0000 
      3 O3P        46.1490   43.4830   14.4280 O.co2     1 TRH401      0.0000 
      4 O1         45.5310   45.0420   12.4530 O.3       1 TRH401      0.0000 
      5 C1         46.6010   45.8140   12.7100 C.3       1 TRH401      0.0000 
      6 C2         46.5520   47.0440   11.8070 C.3       1 TRH401      0.0000 
      7 O2         46.3480   46.6070   10.4280 O.3       1 TRH401      0.0000 
      8 C3         47.7780   47.8670   11.9100 C.3       1 TRH401      0.0000 
      9 O3         47.7590   48.8630   10.8620 O.3       1 TRH401      0.0000 
     10 C4         49.0600   47.0640   11.7960 C.3       1 TRH401      0.0000 
     11 O4         50.1280   47.8930   12.1580 O.3       1 TRH401      0.0000 
     12 C5         49.0610   45.8390   12.7200 C.3       1 TRH401      0.0000 
     13 O5         47.8730   45.0070   12.5190 O.3       1 TRH401      0.0000 
     14 C6         50.2960   45.0160   12.4680 C.3       1 TRH401      0.0000 
     15 OPP        44.1420   44.9980   14.7860 O.3       1 TRH401      0.0000 
     16 P          42.9520   46.1210   14.3570 P.3       1 TRH401      0.0000 
     17 O1P        42.1870   46.5370   15.5970 O.co2     1 TRH401      0.0000 
     18 O2P        43.5950   47.3710   13.7200 O.co2     1 TRH401      0.0000 
     19 O5'        41.8970   45.4020   13.2530 O.3       1 TRH401      0.0000 
     20 C5'        41.1470   44.2670   13.6340 C.3       1 TRH401      0.0000 
     21 C4'        39.7290   44.4970   13.1020 C.3       1 TRH401      0.0000 
     22 O4'        38.8600   43.1370   13.3070 O.3       1 TRH401      0.0000 
     23 C3'        39.1600   45.4460   13.7790 C.3       1 TRH401      0.0000 
     24 O3'        38.4270   46.3480   12.8620 O.3       1 TRH401      0.0000 
     25 C2'        38.1470   44.7300   14.7220 C.3       1 TRH401      0.0000 
     26 C1'        37.7510   43.5100   13.8820 C.3       1 TRH401      0.0000 
     27 N11        37.2550   42.3920   14.7380 N.am      1 TRH401      0.0000 
     28 C21        35.9500   41.7430   14.3970 C.2       1 TRH401      0.0000 
     29 O21        35.3140   42.1440   13.4300 O.2       1 TRH401      0.0000 
     30 N31        35.4390   40.6110   15.2480 N.am      1 TRH401      0.0000 
     31 C41        36.2120   40.1620   16.3750 C.2       1 TRH401      0.0000 
     32 O41        35.8270   39.2920   17.0340 O.2       1 TRH401      0.0000 
     33 C51        37.5120   40.8130   16.7000 C.2       1 TRH401      0.0000 
     34 C5A        38.3450   40.3140   17.9300 C.3       1 TRH401      0.0000 
     35 C61        38.0260   41.9380   15.8590 C.2       1 TRH401      0.0000 
@<TRIPOS>BOND
     1   10   12 1    
     2   12   13 1    
     3   12   14 1    
     4   15   16 1    
     5   16   17 ar   
     6   16   18 ar   
     7   16   19 1    
     8   19   20 1    
     9   20   21 1    
    10   21   22 1    
    11   21   23 1    
    12   22   26 1    
    13   23   24 1    
    14   23   25 1    
    15   25   26 1    
    16   26   27 1    
    17   27   28 1    
    18   27   35 1    
    19   28   29 2    
    20   28   30 1    
    21   30   31 1    
    22   31   32 2    
    23   31   33 1    
    24   33   34 1    
    25   33   35 2    
    26    1    2 ar   
    27    2    3 ar   
    28    2    4 1    
    29    2   15 1    
    30    4    5 1    
    31    5    6 1    
    32    5   13 1    
    33    6    7 1    
    34    6    8 1    
    35    8    9 1    
    36    8   10 1    
    37   10   11 1    
@<TRIPOS>SUBSTRUCTURE
     1 TRH401      1 GROUP   
@<TRIPOS>SET

