#    Name: 6mdo_3_ATP
#    Modification time : Fri May 22 19:33:15 2020

@<TRIPOS>MOLECULE
6mdo_3_ATP
   43    45     1     0     1
SMALL
NO_CHARGES


@<TRIPOS>ATOM
      1 PG        121.9220  168.2700  171.2580 P.3       1 ATP801      0.0000 
      2 O1G       122.8740  167.4520  170.4270 O.co2     1 ATP801      0.0000 
      3 O2G       122.5540  169.2920  172.1600 O.co2     1 ATP801      0.0000 
      4 O3G       120.7620  167.5150  171.8540 O.co2     1 ATP801      0.0000 
      5 PB        119.7470  169.7180  170.5710 P.3       1 ATP801      0.0000 
      6 O1B       118.7100  168.6490  170.4830 O.co2     1 ATP801      0.0000 
      7 O2B       119.9460  170.5060  171.8350 O.co2     1 ATP801      0.0000 
      8 O3B       121.1510  169.1020  170.1480 O.3       1 ATP801      0.0000 
      9 PA        118.6660  170.2300  168.1380 P.3       1 ATP801      0.0000 
     10 O1A       118.8420  171.2940  167.0900 O.co2     1 ATP801      0.0000 
     11 O2A       119.0420  168.8150  167.8170 O.co2     1 ATP801      0.0000 
     12 O3A       119.5440  170.7230  169.3670 O.3       1 ATP801      0.0000 
     13 O5'       117.1520  170.2530  168.6400 O.3       1 ATP801      0.0000 
     14 C5'       116.2430  170.0850  167.5730 C.3       1 ATP801      0.0000 
     15 C4'       114.8110  170.3280  167.9550 C.3       1 ATP801      0.0000 
     16 O4'       114.5220  171.6910  168.2310 O.3       1 ATP801      0.0000 
     17 C3'       113.9130  169.9440  166.8090 C.3       1 ATP801      0.0000 
     18 O3'       113.4380  168.6090  166.9420 O.3       1 ATP801      0.0000 
     19 C2'       112.7900  170.9350  166.8760 C.3       1 ATP801      0.0000 
     20 O2'       111.5370  170.2790  166.9900 O.3       1 ATP801      0.0000 
     21 C1'       113.1150  171.7920  168.0830 C.3       1 ATP801      0.0000 
     22 N9        112.6770  173.1800  167.9030 N.pl3     1 ATP801      0.0000 
     23 C8        111.6140  173.6130  167.2100 C.2       1 ATP801      0.0000 
     24 N7        111.5110  174.9520  167.2860 N.2       1 ATP801      0.0000 
     25 C5        112.5220  175.3650  168.0480 C.ar      1 ATP801      0.0000 
     26 C6        112.9770  176.6440  168.5550 C.ar      1 ATP801      0.0000 
     27 N6        112.3270  177.7380  168.2050 N.pl3     1 ATP801      0.0000 
     28 N1        114.0530  176.7060  169.3430 N.ar      1 ATP801      0.0000 
     29 C2        114.7080  175.6010  169.6910 C.ar      1 ATP801      0.0000 
     30 N3        114.3360  174.3780  169.2740 N.ar      1 ATP801      0.0000 
     31 C4        113.2580  174.2030  168.4890 C.ar      1 ATP801      0.0000 
     32 H5'1      116.3410  169.0740  167.1870 H         1 ATP801      0.0000 
     33 H5'2      116.4890  170.7720  166.7740 H         1 ATP801      0.0000 
     34 H4'       114.5620  169.7110  168.8170 H         1 ATP801      0.0000 
     35 H3'       114.4520  170.0850  165.8690 H         1 ATP801      0.0000 
     36 HO3'      112.9800  168.3630  166.1290 H         1 ATP801      0.0000 
     37 H2'       112.8460  171.5220  165.9590 H         1 ATP801      0.0000 
     38 HO2'      111.3010  169.9150  166.1290 H         1 ATP801      0.0000 
     39 H1'       112.6340  171.3800  168.9740 H         1 ATP801      0.0000 
     40 H8        110.9530  172.9770  166.6420 H         1 ATP801      0.0000 
     41 HN61      111.5210  177.6770  167.6080 H         1 ATP801      0.0000 
     42 HN62      112.6610  178.6070  168.5470 H         1 ATP801      0.0000 
     43 H2        115.5760  175.6980  170.3330 H         1 ATP801      0.0000 
@<TRIPOS>BOND
     1    1    2 ar   
     2    1    3 ar   
     3    1    4 ar   
     4    1    8 1    
     5    5    6 ar   
     6    5    7 ar   
     7    5    8 1    
     8    5   12 1    
     9    9   10 ar   
    10    9   11 ar   
    11    9   12 1    
    12    9   13 1    
    13   13   14 1    
    14   14   15 1    
    15   14   32 1    
    16   14   33 1    
    17   15   16 1    
    18   15   17 1    
    19   15   34 1    
    20   16   21 1    
    21   17   18 1    
    22   17   19 1    
    23   17   35 1    
    24   18   36 1    
    25   19   20 1    
    26   19   21 1    
    27   19   37 1    
    28   20   38 1    
    29   21   22 1    
    30   21   39 1    
    31   22   23 1    
    32   22   31 1    
    33   23   24 2    
    34   23   40 1    
    35   24   25 1    
    36   25   26 ar   
    37   25   31 ar   
    38   26   27 1    
    39   26   28 ar   
    40   27   41 1    
    41   27   42 1    
    42   28   29 ar   
    43   29   30 ar   
    44   29   43 1    
    45   30   31 ar   
@<TRIPOS>SUBSTRUCTURE
     1 ATP801      1 GROUP   
@<TRIPOS>SET
ATOM$ORANGE STATIC     ATOMS   COLORGROUP SYSTEM 
20 14 14 15 15 17 17 19 19 21 21 23 23 25 25 26 26 29 \
29 31 31 

