#    Name: 6mdo_8_ATP
#    Modification time : Fri May 22 19:34:24 2020

@<TRIPOS>MOLECULE
6mdo_8_ATP
   43    45     1     0     1
SMALL
NO_CHARGES


@<TRIPOS>ATOM
      1 PG        173.1010  165.3090  169.0150 P.3       1 ATP802      0.0000 
      2 O1G       172.7150  164.9570  167.6030 O.co2     1 ATP802      0.0000 
      3 O2G       171.9690  165.7030  169.9240 O.co2     1 ATP802      0.0000 
      4 O3G       174.1560  164.4210  169.6180 O.co2     1 ATP802      0.0000 
      5 PB        175.3600  166.4880  168.2160 P.3       1 ATP802      0.0000 
      6 O1B       175.3090  165.4400  167.1440 O.co2     1 ATP802      0.0000 
      7 O2B       176.3410  166.4000  169.3470 O.co2     1 ATP802      0.0000 
      8 O3B       173.9000  166.6650  168.8190 O.3       1 ATP802      0.0000 
      9 PA        176.9160  168.6510  167.9170 P.3       1 ATP802      0.0000 
     10 O1A       178.0410  167.7850  167.4280 O.co2     1 ATP802      0.0000 
     11 O2A       176.8520  169.0010  169.3770 O.co2     1 ATP802      0.0000 
     12 O3A       175.5620  167.9100  167.5440 O.3       1 ATP802      0.0000 
     13 O5'       176.8190  169.9660  167.0190 O.3       1 ATP802      0.0000 
     14 C5'       178.0320  170.4570  166.4940 C.3       1 ATP802      0.0000 
     15 C4'       177.9800  171.9600  166.3660 C.3       1 ATP802      0.0000 
     16 O4'       177.8880  172.5810  167.6490 O.3       1 ATP802      0.0000 
     17 C3'       179.2240  172.5160  165.7180 C.3       1 ATP802      0.0000 
     18 O3'       179.0830  172.7390  164.3170 O.3       1 ATP802      0.0000 
     19 C2'       179.4090  173.8080  166.4480 C.3       1 ATP802      0.0000 
     20 O2'       178.5000  174.7890  165.9490 O.3       1 ATP802      0.0000 
     21 C1'       179.0150  173.4270  167.8530 C.3       1 ATP802      0.0000 
     22 N9        179.9750  172.5510  168.5450 N.pl3     1 ATP802      0.0000 
     23 C8        179.5700  171.6050  169.3970 C.2       1 ATP802      0.0000 
     24 N7        180.6110  170.9270  169.9050 N.2       1 ATP802      0.0000 
     25 C5        181.7080  171.4390  169.3640 C.ar      1 ATP802      0.0000 
     26 C6        183.1260  171.1510  169.4990 C.ar      1 ATP802      0.0000 
     27 N6        183.4850  170.1600  170.3220 N.pl3     1 ATP802      0.0000 
     28 N1        183.9950  171.8880  168.8000 N.ar      1 ATP802      0.0000 
     29 C2        183.5700  172.8700  167.9890 C.ar      1 ATP802      0.0000 
     30 N3        182.2770  173.1800  167.8240 N.ar      1 ATP802      0.0000 
     31 C4        181.3040  172.5160  168.4760 C.ar      1 ATP802      0.0000 
     32 H5'1      178.2050  170.0070  165.5240 H         1 ATP802      0.0000 
     33 H5'2      178.8420  170.1710  167.1510 H         1 ATP802      0.0000 
     34 H4'       177.1140  172.2240  165.7570 H         1 ATP802      0.0000 
     35 H3'       180.0530  171.8420  165.9530 H         1 ATP802      0.0000 
     36 HO3'      179.8090  173.3050  164.0210 H         1 ATP802      0.0000 
     37 H2'       180.4350  174.1650  166.3610 H         1 ATP802      0.0000 
     38 HO2'      178.7950  175.1010  165.0850 H         1 ATP802      0.0000 
     39 H1'       178.7610  174.3120  168.4410 H         1 ATP802      0.0000 
     40 H8        178.5440  171.4050  169.6490 H         1 ATP802      0.0000 
     41 HN61      182.7720  169.6520  170.8190 H         1 ATP802      0.0000 
     42 HN62      184.4530  169.9340  170.4400 H         1 ATP802      0.0000 
     43 H2        184.3030  173.4410  167.4370 H         1 ATP802      0.0000 
@<TRIPOS>BOND
     1    1    2 ar   
     2    1    3 ar   
     3    1    4 ar   
     4    1    8 1    
     5    5    6 ar   
     6    5    7 ar   
     7    5    8 1    
     8    5   12 1    
     9    9   10 ar   
    10    9   11 ar   
    11    9   12 1    
    12    9   13 1    
    13   13   14 1    
    14   14   15 1    
    15   14   32 1    
    16   14   33 1    
    17   15   16 1    
    18   15   17 1    
    19   15   34 1    
    20   16   21 1    
    21   17   18 1    
    22   17   19 1    
    23   17   35 1    
    24   18   36 1    
    25   19   20 1    
    26   19   21 1    
    27   19   37 1    
    28   20   38 1    
    29   21   22 1    
    30   21   39 1    
    31   22   23 1    
    32   22   31 1    
    33   23   24 2    
    34   23   40 1    
    35   24   25 1    
    36   25   26 ar   
    37   25   31 ar   
    38   26   27 1    
    39   26   28 ar   
    40   27   41 1    
    41   27   42 1    
    42   28   29 ar   
    43   29   30 ar   
    44   29   43 1    
    45   30   31 ar   
@<TRIPOS>SUBSTRUCTURE
     1 ATP802      1 GROUP   
@<TRIPOS>SET
ATOM$ORANGE STATIC     ATOMS   COLORGROUP SYSTEM 
20 14 14 15 15 17 17 19 19 21 21 23 23 25 25 26 26 29 \
29 31 31 

