#    Name: 6mdo_4_ATP
#    Modification time : Fri May 22 19:33:30 2020

@<TRIPOS>MOLECULE
6mdo_4_ATP
   43    45     1     0     1
SMALL
NO_CHARGES


@<TRIPOS>ATOM
      1 PG        114.0760  156.0570  207.2620 P.3       1 ATP802      0.0000 
      2 O1G       114.3020  155.9740  205.7770 O.co2     1 ATP802      0.0000 
      3 O2G       114.4960  154.8360  208.0400 O.co2     1 ATP802      0.0000 
      4 O3G       114.4410  157.3750  207.8900 O.co2     1 ATP802      0.0000 
      5 PB        111.7640  157.3460  206.8030 P.3       1 ATP802      0.0000 
      6 O1B       112.1490  157.4270  205.3550 O.co2     1 ATP802      0.0000 
      7 O2B       111.9960  158.5130  207.7230 O.co2     1 ATP802      0.0000 
      8 O3B       112.4860  156.0520  207.3880 O.3       1 ATP802      0.0000 
      9 PA        109.5340  157.1420  205.3960 P.3       1 ATP802      0.0000 
     10 O1A       110.0520  156.0320  204.5220 O.co2     1 ATP802      0.0000 
     11 O2A       109.7300  158.5750  204.9840 O.co2     1 ATP802      0.0000 
     12 O3A       110.2190  156.9730  206.8240 O.3       1 ATP802      0.0000 
     13 O5'       107.9820  156.8500  205.6600 O.3       1 ATP802      0.0000 
     14 C5'       107.1560  156.6800  204.5210 C.3       1 ATP802      0.0000 
     15 C4'       105.8120  156.0560  204.8460 C.3       1 ATP802      0.0000 
     16 O4'       105.2300  156.7360  205.9450 O.3       1 ATP802      0.0000 
     17 C3'       104.8610  156.1970  203.6720 C.3       1 ATP802      0.0000 
     18 O3'       104.0100  155.0670  203.4950 O.3       1 ATP802      0.0000 
     19 C2'       104.0530  157.4060  204.0500 C.3       1 ATP802      0.0000 
     20 O2'       102.7520  157.4280  203.4690 O.3       1 ATP802      0.0000 
     21 C1'       103.9830  157.2750  205.5420 C.3       1 ATP802      0.0000 
     22 N9        103.8190  158.5700  206.1840 N.pl3     1 ATP802      0.0000 
     23 C8        104.7410  159.5230  206.2080 C.2       1 ATP802      0.0000 
     24 N7        104.3200  160.6070  206.8870 N.2       1 ATP802      0.0000 
     25 C5        103.0930  160.3040  207.3090 C.ar      1 ATP802      0.0000 
     26 C6        102.0700  160.9840  208.0920 C.ar      1 ATP802      0.0000 
     27 N6        102.3460  162.2250  208.5250 N.pl3     1 ATP802      0.0000 
     28 N1        100.9130  160.3260  208.3230 N.ar      1 ATP802      0.0000 
     29 C2        100.7000  159.0730  207.8620 C.ar      1 ATP802      0.0000 
     30 N3        101.5960  158.4020  207.1390 N.ar      1 ATP802      0.0000 
     31 C4        102.7730  158.9600  206.8510 C.ar      1 ATP802      0.0000 
     32 H5'1      107.6820  156.0650  203.7940 H         1 ATP802      0.0000 
     33 H5'2      106.9830  157.6530  204.0820 H         1 ATP802      0.0000 
     34 H4'       105.9440  154.9980  205.0910 H         1 ATP802      0.0000 
     35 H3'       105.4240  156.4120  202.7600 H         1 ATP802      0.0000 
     36 HO3'      103.6280  155.1270  202.6090 H         1 ATP802      0.0000 
     37 H2'       104.6230  158.2930  203.7750 H         1 ATP802      0.0000 
     38 HO2'      102.8050  157.2150  202.5270 H         1 ATP802      0.0000 
     39 H1'       103.1510  156.6190  205.7950 H         1 ATP802      0.0000 
     40 H8        105.6870  159.4050  205.7230 H         1 ATP802      0.0000 
     41 HN61      103.2430  162.6210  208.2940 H         1 ATP802      0.0000 
     42 HN62      101.6820  162.7450  209.0680 H         1 ATP802      0.0000 
     43 H2         99.7610  158.5830  208.0670 H         1 ATP802      0.0000 
@<TRIPOS>BOND
     1    1    2 ar   
     2    1    3 ar   
     3    1    4 ar   
     4    1    8 1    
     5    5    6 ar   
     6    5    7 ar   
     7    5    8 1    
     8    5   12 1    
     9    9   10 ar   
    10    9   11 ar   
    11    9   12 1    
    12    9   13 1    
    13   13   14 1    
    14   14   15 1    
    15   14   32 1    
    16   14   33 1    
    17   15   16 1    
    18   15   17 1    
    19   15   34 1    
    20   16   21 1    
    21   17   18 1    
    22   17   19 1    
    23   17   35 1    
    24   18   36 1    
    25   19   20 1    
    26   19   21 1    
    27   19   37 1    
    28   20   38 1    
    29   21   22 1    
    30   21   39 1    
    31   22   23 1    
    32   22   31 1    
    33   23   24 2    
    34   23   40 1    
    35   24   25 1    
    36   25   26 ar   
    37   25   31 ar   
    38   26   27 1    
    39   26   28 ar   
    40   27   41 1    
    41   27   42 1    
    42   28   29 ar   
    43   29   30 ar   
    44   29   43 1    
    45   30   31 ar   
@<TRIPOS>SUBSTRUCTURE
     1 ATP802      1 GROUP   
@<TRIPOS>SET
ATOM$ORANGE STATIC     ATOMS   COLORGROUP SYSTEM 
20 14 14 15 15 17 17 19 19 21 21 23 23 25 25 26 26 29 \
29 31 31 

