#    Name: 6mdo_10_ADP
#    Modification time : Fri May 22 19:34:49 2020

@<TRIPOS>MOLECULE
6mdo_10_ADP
   39    41     1     0     1
SMALL
NO_CHARGES


@<TRIPOS>ATOM
      1 PB        175.5560  136.3480  165.7150 P.3       1 ADP802      0.0000 
      2 O1B       175.6650  136.8480  164.3000 O.co2     1 ADP802      0.0000 
      3 O2B       174.8580  137.2720  166.6800 O.co2     1 ADP802      0.0000 
      4 O3B       175.0860  134.9310  165.7940 O.co2     1 ADP802      0.0000 
      5 PA        178.0280  135.1660  165.6310 P.3       1 ADP802      0.0000 
      6 O1A       177.9210  135.2150  164.1280 O.co2     1 ADP802      0.0000 
      7 O2A       177.7490  133.9040  166.3840 O.co2     1 ADP802      0.0000 
      8 O3A       177.0790  136.3150  166.2150 O.3       1 ADP802      0.0000 
      9 O5'       179.5000  135.6300  166.0730 O.3       1 ADP802      0.0000 
     10 C5'       180.6000  135.3150  165.2320 C.3       1 ADP802      0.0000 
     11 C4'       181.8320  136.1190  165.5860 C.3       1 ADP802      0.0000 
     12 O4'       182.5700  135.5820  166.6920 O.3       1 ADP802      0.0000 
     13 C3'       182.7820  136.1430  164.4020 C.3       1 ADP802      0.0000 
     14 O3'       182.7110  137.3570  163.6510 O.3       1 ADP802      0.0000 
     15 C2'       184.1620  135.9310  164.9840 C.3       1 ADP802      0.0000 
     16 O2'       185.0500  137.0220  164.7390 O.3       1 ADP802      0.0000 
     17 C1'       183.9820  135.7230  166.4900 C.3       1 ADP802      0.0000 
     18 N9        184.6700  134.4930  166.9350 N.pl3     1 ADP802      0.0000 
     19 C8        185.9140  134.1510  166.5740 C.2       1 ADP802      0.0000 
     20 N7        186.2680  132.9610  167.1030 N.2       1 ADP802      0.0000 
     21 C5        185.2440  132.5370  167.8470 C.ar      1 ADP802      0.0000 
     22 C6        184.9840  131.3490  168.6630 C.ar      1 ADP802      0.0000 
     23 N6        185.9510  130.4240  168.7650 N.pl3     1 ADP802      0.0000 
     24 N1        183.7960  131.2470  169.2710 N.ar      1 ADP802      0.0000 
     25 C2        182.8730  132.2100  169.1370 C.ar      1 ADP802      0.0000 
     26 N3        183.0400  133.3160  168.3910 N.ar      1 ADP802      0.0000 
     27 C4        184.1870  133.5370  167.7230 C.ar      1 ADP802      0.0000 
     28 H5'1      180.3300  135.5740  164.2110 H         1 ADP802      0.0000 
     29 H5'2      180.8250  134.2600  165.2640 H         1 ADP802      0.0000 
     30 H4'       181.4970  137.1360  165.8030 H         1 ADP802      0.0000 
     31 H3'       182.5610  135.2830  163.7570 H         1 ADP802      0.0000 
     32 HO3'      183.3490  137.3120  162.9230 H         1 ADP802      0.0000 
     33 H2'       184.5300  135.0400  164.4620 H         1 ADP802      0.0000 
     34 HO2'      185.5860  136.8190  163.9660 H         1 ADP802      0.0000 
     35 H1'       184.3800  136.5900  167.0280 H         1 ADP802      0.0000 
     36 H8        186.5390  134.7410  165.9160 H         1 ADP802      0.0000 
     37 HN61      185.8150  129.5980  169.3140 H         1 ADP802      0.0000 
     38 HN62      186.8170  130.5730  168.2760 H         1 ADP802      0.0000 
     39 H2        181.9260  132.0780  169.6420 H         1 ADP802      0.0000 
@<TRIPOS>BOND
     1    1    2 ar   
     2    1    3 ar   
     3    1    4 ar   
     4    1    8 1    
     5    5    6 ar   
     6    5    7 ar   
     7    5    8 1    
     8    5    9 1    
     9    9   10 1    
    10   10   11 1    
    11   10   28 1    
    12   10   29 1    
    13   11   12 1    
    14   11   13 1    
    15   11   30 1    
    16   12   17 1    
    17   13   14 1    
    18   13   15 1    
    19   13   31 1    
    20   14   32 1    
    21   15   16 1    
    22   15   17 1    
    23   15   33 1    
    24   16   34 1    
    25   17   18 1    
    26   17   35 1    
    27   18   19 1    
    28   18   27 1    
    29   19   20 2    
    30   19   36 1    
    31   20   21 1    
    32   21   22 ar   
    33   21   27 ar   
    34   22   23 1    
    35   22   24 ar   
    36   23   37 1    
    37   23   38 1    
    38   24   25 ar   
    39   25   26 ar   
    40   25   39 1    
    41   26   27 ar   
@<TRIPOS>SUBSTRUCTURE
     1 ADP802      1 GROUP   
@<TRIPOS>SET
ATOM$ORANGE STATIC     ATOMS   COLORGROUP SYSTEM 
20 10 10 11 11 13 13 15 15 17 17 19 19 21 21 22 22 25 \
25 27 27 

