#    Name: 6mdo_3_ATP_CAVITY_N1_4
#    Modification time : Fri May 22 19:33:16 2020

@<TRIPOS>MOLECULE
6mdo_3_ATP_CAVITY_N1_4
   73     0     7     0     0
SMALL
NO_CHARGES


@<TRIPOS>ATOM
      1 OG        110.9600  171.8300  167.1500 O.3       1 SER1        0.0000 
      2 OG        116.8500  169.9700  166.8500 O.3       1 SER1        0.0000 
      3 OG        117.9100  170.8000  167.5200 O.3       1 SER1        0.0000 
      4 OG        118.6700  169.5500  167.8400 O.3       1 SER1        0.0000 
      5 N         112.7800  171.4100  168.1400 N.am      2 ALA2        0.0000 
      6 OD1       109.5700  170.2900  164.5100 O.co2     3 ASP3        0.0000 
      7 OD1       110.3400  169.0500  164.8300 O.co2     3 ASP3        0.0000 
      8 OD1       111.3700  171.2300  163.8700 O.co2     3 ASP3        0.0000 
      9 OD1       112.1300  169.9900  164.2000 O.co2     3 ASP3        0.0000 
     10 OD1       114.7000  169.6800  163.8900 O.co2     3 ASP3        0.0000 
     11 OD1       114.0000  168.2100  166.8200 O.co2     3 ASP3        0.0000 
     12 OD1       113.2600  168.0900  168.1200 O.co2     3 ASP3        0.0000 
     13 OD1       115.7500  170.5100  164.5600 O.co2     3 ASP3        0.0000 
     14 OD1       115.0500  169.0300  167.4900 O.co2     3 ASP3        0.0000 
     15 OD1       114.3200  168.9200  168.7900 O.co2     3 ASP3        0.0000 
     16 OD1       116.1100  169.8600  168.1500 O.co2     3 ASP3        0.0000 
     17 OD1       115.3800  169.7400  169.4600 O.co2     3 ASP3        0.0000 
     18 OD1       119.4400  168.3000  168.1700 O.co2     3 ASP3        0.0000 
     19 OD1       119.7700  169.0200  170.1400 O.co2     3 ASP3        0.0000 
     20 OD1       121.2700  167.8800  169.1600 O.co2     3 ASP3        0.0000 
     21 OD1       122.0400  166.6400  169.4800 O.co2     3 ASP3        0.0000 
     22 OD1       122.3300  168.7100  169.8300 O.co2     3 ASP3        0.0000 
     23 OD1       121.5900  168.5900  171.1300 O.co2     3 ASP3        0.0000 
     24 OD1       122.3600  167.3500  171.4600 O.co2     3 ASP3        0.0000 
     25 OD1       123.3900  169.5300  170.5000 O.co2     3 ASP3        0.0000 
     26 NZ        111.1100  167.8000  165.1600 N.4       4 LYS4        0.0000 
     27 NZ        111.8800  166.5500  165.4800 N.4       4 LYS4        0.0000 
     28 NZ        111.4000  169.8700  165.5000 N.4       4 LYS4        0.0000 
     29 NZ        112.1700  168.6300  165.8200 N.4       4 LYS4        0.0000 
     30 NZ        114.4100  167.6100  163.5400 N.4       4 LYS4        0.0000 
     31 NZ        113.6700  167.4900  164.8500 N.4       4 LYS4        0.0000 
     32 NZ        112.9400  167.3800  166.1500 N.4       4 LYS4        0.0000 
     33 NZ        113.7100  166.1300  166.4700 N.4       4 LYS4        0.0000 
     34 NZ        112.4900  169.3400  167.8000 N.4       4 LYS4        0.0000 
     35 NZ        115.4600  168.4300  164.2100 N.4       4 LYS4        0.0000 
     36 NZ        116.5200  169.2600  164.8800 N.4       4 LYS4        0.0000 
     37 NZ        115.7900  169.1500  166.1800 N.4       4 LYS4        0.0000 
     38 NZ        117.6200  168.7200  167.1800 N.4       4 LYS4        0.0000 
     39 NZ        123.8300  167.5800  168.8500 N.4       4 LYS4        0.0000 
     40 NZ        123.1000  167.4600  170.1500 N.4       4 LYS4        0.0000 
     41 NZ        124.1500  168.2900  170.8200 N.4       4 LYS4        0.0000 
     42 CZ        110.6000  172.4800  163.5500 C.ar      5 PHE5        0.0000 
     43 CZ        110.6300  171.1200  165.1800 C.ar      5 PHE5        0.0000 
     44 CZ        109.9000  171.0100  166.4800 C.ar      5 PHE5        0.0000 
     45 CA        112.6100  166.6700  164.1800 C.3       6 GLY6        0.0000 
     46 CA        112.6500  165.3100  165.8000 C.3       6 GLY6        0.0000 
     47 CA        110.6700  169.7600  166.8000 C.3       6 GLY6        0.0000 
     48 CA        113.6400  168.8600  163.2200 C.3       6 GLY6        0.0000 
     49 CA        112.9000  168.7400  164.5200 C.3       6 GLY6        0.0000 
     50 CA        112.4200  172.0600  164.5400 C.3       6 GLY6        0.0000 
     51 CA        111.6900  171.9500  165.8500 C.3       6 GLY6        0.0000 
     52 CA        113.9300  170.9300  163.5600 C.3       6 GLY6        0.0000 
     53 CA        113.1900  170.8100  164.8700 C.3       6 GLY6        0.0000 
     54 CA        111.7200  170.5900  167.4700 C.3       6 GLY6        0.0000 
     55 CA        114.2500  171.6400  165.5400 C.3       6 GLY6        0.0000 
     56 CA        113.5200  171.5300  166.8400 C.3       6 GLY6        0.0000 
     57 CA        115.0200  170.3900  165.8600 C.3       6 GLY6        0.0000 
     58 CA        113.5500  170.1600  168.4700 C.3       6 GLY6        0.0000 
     59 CA        116.0800  171.2200  166.5300 C.3       6 GLY6        0.0000 
     60 CA        115.3400  171.1000  167.8300 C.3       6 GLY6        0.0000 
     61 CA        114.6100  170.9900  169.1300 C.3       6 GLY6        0.0000 
     62 CA        117.1700  170.6800  168.8200 C.3       6 GLY6        0.0000 
     63 CA        119.7300  170.3800  168.5100 C.3       6 GLY6        0.0000 
     64 CA        119.0000  170.2600  169.8200 C.3       6 GLY6        0.0000 
     65 CA        120.5000  169.1300  168.8400 C.3       6 GLY6        0.0000 
     66 CA        122.0000  168.0000  167.8600 C.3       6 GLY6        0.0000 
     67 CA        121.5600  169.9600  169.5000 C.3       6 GLY6        0.0000 
     68 CA        123.0600  168.8200  168.5300 C.3       6 GLY6        0.0000 
     69 CA        124.1200  169.6500  169.1900 C.3       6 GLY6        0.0000 
     70 DU        112.4600  170.7000  166.1700 H         7 CUB7        0.0000 
     71 DU        113.9600  169.5700  165.1900 H         7 CUB7        0.0000 
     72 DU        113.2300  169.4500  166.4900 H         7 CUB7        0.0000 
     73 DU        114.2900  170.2800  167.1600 H         7 CUB7        0.0000 
@<TRIPOS>BOND
@<TRIPOS>SUBSTRUCTURE
     1 SER1        1 GROUP   
     2 ALA2        5 GROUP   
     3 ASP3        6 GROUP   
     4 LYS4       26 GROUP   
     5 PHE5       42 GROUP   
     6 GLY6       45 GROUP   
     7 CUB7       70 GROUP   
@<TRIPOS>SET

