#    Name: 6mdo_9_ATP
#    Modification time : Fri May 22 19:34:36 2020

@<TRIPOS>MOLECULE
6mdo_9_ATP
   43    45     1     0     1
SMALL
NO_CHARGES


@<TRIPOS>ATOM
      1 PG        174.2150  149.6340  208.6390 P.3       1 ATP801      0.0000 
      2 O1G       173.6880  148.4240  207.9180 O.co2     1 ATP801      0.0000 
      3 O2G       174.0500  149.6020  210.1350 O.co2     1 ATP801      0.0000 
      4 O3G       173.9330  150.9540  207.9760 O.co2     1 ATP801      0.0000 
      5 PB        176.2560  149.1140  206.9760 P.3       1 ATP801      0.0000 
      6 O1B       175.6700  150.1390  206.0450 O.co2     1 ATP801      0.0000 
      7 O2B       175.9790  147.6500  206.7710 O.co2     1 ATP801      0.0000 
      8 O3B       175.7860  149.4820  208.4500 O.3       1 ATP801      0.0000 
      9 PA        178.7670  148.3250  206.2660 P.3       1 ATP801      0.0000 
     10 O1A       178.4960  148.4940  204.7970 O.co2     1 ATP801      0.0000 
     11 O2A       178.5390  146.9640  206.8610 O.co2     1 ATP801      0.0000 
     12 O3A       177.8350  149.3280  207.0830 O.3       1 ATP801      0.0000 
     13 O5'       180.2400  148.8940  206.5830 O.3       1 ATP801      0.0000 
     14 C5'       181.1770  148.8510  205.5150 C.3       1 ATP801      0.0000 
     15 C4'       182.5950  149.3090  205.8540 C.3       1 ATP801      0.0000 
     16 O4'       183.0880  148.7960  207.0870 O.3       1 ATP801      0.0000 
     17 C3'       183.5560  148.8760  204.7800 C.3       1 ATP801      0.0000 
     18 O3'       184.1940  150.0370  204.2770 O.3       1 ATP801      0.0000 
     19 C2'       184.5540  147.9490  205.4310 C.3       1 ATP801      0.0000 
     20 O2'       185.8970  148.2730  205.1040 O.3       1 ATP801      0.0000 
     21 C1'       184.3020  148.0710  206.9060 C.3       1 ATP801      0.0000 
     22 N9        184.0490  146.7760  207.5170 N.pl3     1 ATP801      0.0000 
     23 C8        182.9360  146.0660  207.3640 C.2       1 ATP801      0.0000 
     24 N7        182.9900  144.9240  208.0890 N.2       1 ATP801      0.0000 
     25 C5        184.1620  144.9340  208.7310 C.ar      1 ATP801      0.0000 
     26 C6        184.8580  144.0440  209.6630 C.ar      1 ATP801      0.0000 
     27 N6        184.3000  142.8890  210.0620 N.pl3     1 ATP801      0.0000 
     28 N1        186.0680  144.4220  210.0960 N.ar      1 ATP801      0.0000 
     29 C2        186.6230  145.5750  209.6990 C.ar      1 ATP801      0.0000 
     30 N3        186.0550  146.4350  208.8520 N.ar      1 ATP801      0.0000 
     31 C4        184.8550  146.1560  208.3380 C.ar      1 ATP801      0.0000 
     32 H5'1      180.8050  149.4440  204.6820 H         1 ATP801      0.0000 
     33 H5'2      181.2090  147.8180  205.1820 H         1 ATP801      0.0000 
     34 H4'       182.6150  150.4020  205.8700 H         1 ATP801      0.0000 
     35 H3'       183.0320  148.3570  203.9760 H         1 ATP801      0.0000 
     36 HO3'      184.4580  149.8430  203.3780 H         1 ATP801      0.0000 
     37 H2'       184.3520  146.9230  205.1260 H         1 ATP801      0.0000 
     38 HO2'      185.9780  148.2680  204.1420 H         1 ATP801      0.0000 
     39 H1'       185.1520  148.5540  207.3880 H         1 ATP801      0.0000 
     40 H8        182.1250  146.3780  206.7290 H         1 ATP801      0.0000 
     41 HN61      184.8000  142.2900  210.7050 H         1 ATP801      0.0000 
     42 HN62      183.3870  142.6310  209.7150 H         1 ATP801      0.0000 
     43 H2        187.5890  145.8250  210.0820 H         1 ATP801      0.0000 
@<TRIPOS>BOND
     1    1    2 ar   
     2    1    3 ar   
     3    1    4 ar   
     4    1    8 1    
     5    5    6 ar   
     6    5    7 ar   
     7    5    8 1    
     8    5   12 1    
     9    9   10 ar   
    10    9   11 ar   
    11    9   12 1    
    12    9   13 1    
    13   13   14 1    
    14   14   15 1    
    15   14   32 1    
    16   14   33 1    
    17   15   16 1    
    18   15   17 1    
    19   15   34 1    
    20   16   21 1    
    21   17   18 1    
    22   17   19 1    
    23   17   35 1    
    24   18   36 1    
    25   19   20 1    
    26   19   21 1    
    27   19   37 1    
    28   20   38 1    
    29   21   22 1    
    30   21   39 1    
    31   22   23 1    
    32   22   31 1    
    33   23   24 2    
    34   23   40 1    
    35   24   25 1    
    36   25   26 ar   
    37   25   31 ar   
    38   26   27 1    
    39   26   28 ar   
    40   27   41 1    
    41   27   42 1    
    42   28   29 ar   
    43   29   30 ar   
    44   29   43 1    
    45   30   31 ar   
@<TRIPOS>SUBSTRUCTURE
     1 ATP801      1 GROUP   
@<TRIPOS>SET
ATOM$ORANGE STATIC     ATOMS   COLORGROUP SYSTEM 
20 14 14 15 15 17 17 19 19 21 21 23 23 25 25 26 26 29 \
29 31 31 

