#    Name: 6mdo_7_ATP
#    Modification time : Fri May 22 19:34:11 2020

@<TRIPOS>MOLECULE
6mdo_7_ATP
   43    45     1     0     1
SMALL
NO_CHARGES


@<TRIPOS>ATOM
      1 PG        161.0670  177.4820  205.8440 P.3       1 ATP801      0.0000 
      2 O1G       161.4470  176.7060  204.6120 O.co2     1 ATP801      0.0000 
      3 O2G       159.6750  178.0550  205.8410 O.co2     1 ATP801      0.0000 
      4 O3G       161.5160  176.8420  207.1300 O.co2     1 ATP801      0.0000 
      5 PB        163.5600  178.5580  205.6310 P.3       1 ATP801      0.0000 
      6 O1B       163.8090  177.8270  204.3440 O.co2     1 ATP801      0.0000 
      7 O2B       164.0510  177.9980  206.9380 O.co2     1 ATP801      0.0000 
      8 O3B       161.9880  178.7780  205.7660 O.3       1 ATP801      0.0000 
      9 PA        164.1140  180.7060  204.0010 P.3       1 ATP801      0.0000 
     10 O1A       165.0600  179.8460  203.2090 O.co2     1 ATP801      0.0000 
     11 O2A       162.7240  180.9990  203.5110 O.co2     1 ATP801      0.0000 
     12 O3A       164.0430  180.0750  205.4740 O.3       1 ATP801      0.0000 
     13 O5'       164.9180  182.0650  204.2790 O.3       1 ATP801      0.0000 
     14 C5'       165.8290  182.5040  203.2800 C.3       1 ATP801      0.0000 
     15 C4'       166.3610  183.8980  203.5810 C.3       1 ATP801      0.0000 
     16 O4'       167.2830  183.9180  204.6750 O.3       1 ATP801      0.0000 
     17 C3'       167.1080  184.4980  202.4090 C.3       1 ATP801      0.0000 
     18 O3'       166.3560  185.5710  201.8440 O.3       1 ATP801      0.0000 
     19 C2'       168.3940  185.0170  202.9990 C.3       1 ATP801      0.0000 
     20 O2'       168.7760  186.2990  202.5280 O.3       1 ATP801      0.0000 
     21 C1'       168.1030  185.0610  204.4650 C.3       1 ATP801      0.0000 
     22 N9        169.3750  185.1030  205.2080 N.pl3     1 ATP801      0.0000 
     23 C8        170.1300  186.1980  205.3360 C.2       1 ATP801      0.0000 
     24 N7        171.2270  185.9570  206.0890 N.2       1 ATP801      0.0000 
     25 C5        171.1610  184.6770  206.4640 C.ar      1 ATP801      0.0000 
     26 C6        171.9750  183.7520  207.2660 C.ar      1 ATP801      0.0000 
     27 N6        173.1200  184.1380  207.8490 N.pl3     1 ATP801      0.0000 
     28 N1        171.5490  182.4920  207.4110 N.ar      1 ATP801      0.0000 
     29 C2        170.4140  182.0700  206.8510 C.ar      1 ATP801      0.0000 
     30 N3        169.6320  182.8520  206.1070 N.ar      1 ATP801      0.0000 
     31 C4        169.9360  184.1330  205.8910 C.ar      1 ATP801      0.0000 
     32 H5'1      165.3160  182.5040  202.3190 H         1 ATP801      0.0000 
     33 H5'2      166.6550  181.8010  203.2140 H         1 ATP801      0.0000 
     34 H4'       165.5160  184.5560  203.8050 H         1 ATP801      0.0000 
     35 H3'       167.3190  183.7190  201.6720 H         1 ATP801      0.0000 
     36 HO3'      166.8080  185.9020  201.0580 H         1 ATP801      0.0000 
     37 H2'       169.1910  184.2900  202.8470 H         1 ATP801      0.0000 
     38 HO2'      169.0130  186.2430  201.5940 H         1 ATP801      0.0000 
     39 H1'       167.5360  185.9720  204.6600 H         1 ATP801      0.0000 
     40 H8        169.8950  187.1450  204.8830 H         1 ATP801      0.0000 
     41 HN61      173.4460  185.0810  207.7430 H         1 ATP801      0.0000 
     42 HN62      173.6440  183.4720  208.3920 H         1 ATP801      0.0000 
     43 H2        170.1290  181.0420  206.9970 H         1 ATP801      0.0000 
@<TRIPOS>BOND
     1    1    2 ar   
     2    1    3 ar   
     3    1    4 ar   
     4    1    8 1    
     5    5    6 ar   
     6    5    7 ar   
     7    5    8 1    
     8    5   12 1    
     9    9   10 ar   
    10    9   11 ar   
    11    9   12 1    
    12    9   13 1    
    13   13   14 1    
    14   14   15 1    
    15   14   32 1    
    16   14   33 1    
    17   15   16 1    
    18   15   17 1    
    19   15   34 1    
    20   16   21 1    
    21   17   18 1    
    22   17   19 1    
    23   17   35 1    
    24   18   36 1    
    25   19   20 1    
    26   19   21 1    
    27   19   37 1    
    28   20   38 1    
    29   21   22 1    
    30   21   39 1    
    31   22   23 1    
    32   22   31 1    
    33   23   24 2    
    34   23   40 1    
    35   24   25 1    
    36   25   26 ar   
    37   25   31 ar   
    38   26   27 1    
    39   26   28 ar   
    40   27   41 1    
    41   27   42 1    
    42   28   29 ar   
    43   29   30 ar   
    44   29   43 1    
    45   30   31 ar   
@<TRIPOS>SUBSTRUCTURE
     1 ATP801      1 GROUP   
@<TRIPOS>SET
ATOM$ORANGE STATIC     ATOMS   COLORGROUP SYSTEM 
20 14 14 15 15 17 17 19 19 21 21 23 23 25 25 26 26 29 \
29 31 31 

