#    Name: 6mdo_11_ATP
#    Modification time : Fri May 22 19:34:59 2020

@<TRIPOS>MOLECULE
6mdo_11_ATP
   43    45     1     0     1
SMALL
NO_CHARGES


@<TRIPOS>ATOM
      1 PG        155.6100  125.3770  209.4170 P.3       1 ATP801      0.0000 
      2 O1G       155.0440  125.9710  208.1560 O.co2     1 ATP801      0.0000 
      3 O2G       154.6830  124.4170  210.1200 O.co2     1 ATP801      0.0000 
      4 O3G       156.3450  126.3360  210.3180 O.co2     1 ATP801      0.0000 
      5 PB        156.3650  122.9170  208.5920 P.3       1 ATP801      0.0000 
      6 O1B       155.0670  122.9170  207.8260 O.co2     1 ATP801      0.0000 
      7 O2B       156.4620  122.2090  209.9160 O.co2     1 ATP801      0.0000 
      8 O3B       156.7750  124.4340  208.8690 O.3       1 ATP801      0.0000 
      9 PA        157.2170  121.1500  206.7020 P.3       1 ATP801      0.0000 
     10 O1A       157.0700  121.6250  205.2770 O.co2     1 ATP801      0.0000 
     11 O2A       156.0960  120.4780  207.4540 O.co2     1 ATP801      0.0000 
     12 O3A       157.5460  122.4020  207.6400 O.3       1 ATP801      0.0000 
     13 O5'       158.5860  120.3300  206.8970 O.3       1 ATP801      0.0000 
     14 C5'       158.5500  119.3210  207.8860 C.3       1 ATP801      0.0000 
     15 C4'       159.7800  118.4380  207.9930 C.3       1 ATP801      0.0000 
     16 O4'       159.5770  117.4630  209.0230 O.3       1 ATP801      0.0000 
     17 C3'       160.0060  117.6660  206.7110 C.3       1 ATP801      0.0000 
     18 O3'       161.1790  118.1130  206.0350 O.3       1 ATP801      0.0000 
     19 C2'       160.1640  116.2220  207.1150 C.3       1 ATP801      0.0000 
     20 O2'       161.3670  115.6720  206.5870 O.3       1 ATP801      0.0000 
     21 C1'       160.2100  116.2520  208.6240 C.3       1 ATP801      0.0000 
     22 N9        159.6220  115.0040  209.1500 N.pl3     1 ATP801      0.0000 
     23 C8        160.0070  113.7920  208.7370 C.2       1 ATP801      0.0000 
     24 N7        159.3250  112.8220  209.3740 N.2       1 ATP801      0.0000 
     25 C5        158.4860  113.4210  210.2180 C.ar      1 ATP801      0.0000 
     26 C6        157.4840  112.9580  211.1850 C.ar      1 ATP801      0.0000 
     27 N6        157.2670  111.6430  211.3540 N.pl3     1 ATP801      0.0000 
     28 N1        156.8090  113.8790  211.8850 N.ar      1 ATP801      0.0000 
     29 C2        157.0290  115.1860  211.7020 C.ar      1 ATP801      0.0000 
     30 N3        157.9370  115.6780  210.8390 N.ar      1 ATP801      0.0000 
     31 C4        158.6840  114.8600  210.0770 C.ar      1 ATP801      0.0000 
     32 H5'1      158.4290  119.8550  208.8200 H         1 ATP801      0.0000 
     33 H5'2      157.6840  118.6870  207.7290 H         1 ATP801      0.0000 
     34 H4'       160.6600  119.0530  208.2150 H         1 ATP801      0.0000 
     35 H3'       159.1200  117.7670  206.0760 H         1 ATP801      0.0000 
     36 HO3'      161.0590  117.9840  205.0850 H         1 ATP801      0.0000 
     37 H2'       159.2920  115.6520  206.7790 H         1 ATP801      0.0000 
     38 HO2'      161.2870  115.6160  205.6280 H         1 ATP801      0.0000 
     39 H1'       161.2640  116.2830  208.9140 H         1 ATP801      0.0000 
     40 H8        160.7610  113.6200  207.9860 H         1 ATP801      0.0000 
     41 HN61      156.5810  111.3210  212.0170 H         1 ATP801      0.0000 
     42 HN62      157.7980  110.9870  210.8130 H         1 ATP801      0.0000 
     43 H2        156.4600  115.8780  212.3030 H         1 ATP801      0.0000 
@<TRIPOS>BOND
     1    1    2 ar   
     2    1    3 ar   
     3    1    4 ar   
     4    1    8 1    
     5    5    6 ar   
     6    5    7 ar   
     7    5    8 1    
     8    5   12 1    
     9    9   10 ar   
    10    9   11 ar   
    11    9   12 1    
    12    9   13 1    
    13   13   14 1    
    14   14   15 1    
    15   14   32 1    
    16   14   33 1    
    17   15   16 1    
    18   15   17 1    
    19   15   34 1    
    20   16   21 1    
    21   17   18 1    
    22   17   19 1    
    23   17   35 1    
    24   18   36 1    
    25   19   20 1    
    26   19   21 1    
    27   19   37 1    
    28   20   38 1    
    29   21   22 1    
    30   21   39 1    
    31   22   23 1    
    32   22   31 1    
    33   23   24 2    
    34   23   40 1    
    35   24   25 1    
    36   25   26 ar   
    37   25   31 ar   
    38   26   27 1    
    39   26   28 ar   
    40   27   41 1    
    41   27   42 1    
    42   28   29 ar   
    43   29   30 ar   
    44   29   43 1    
    45   30   31 ar   
@<TRIPOS>SUBSTRUCTURE
     1 ATP801      1 GROUP   
@<TRIPOS>SET
ATOM$ORANGE STATIC     ATOMS   COLORGROUP SYSTEM 
20 14 14 15 15 17 17 19 19 21 21 23 23 25 25 26 26 29 \
29 31 31 

