#    Name: 6mdo_6_ATP
#    Modification time : Fri May 22 19:33:57 2020

@<TRIPOS>MOLECULE
6mdo_6_ATP
   43    45     1     0     1
SMALL
NO_CHARGES


@<TRIPOS>ATOM
      1 PG        148.2540  180.8370  169.5210 P.3       1 ATP802      0.0000 
      2 O1G       148.6850  179.4510  169.1270 O.co2     1 ATP802      0.0000 
      3 O2G       146.8520  180.9480  170.0490 O.co2     1 ATP802      0.0000 
      4 O3G       149.2740  181.6540  170.2680 O.co2     1 ATP802      0.0000 
      5 PB        148.0080  183.1810  168.1860 P.3       1 ATP802      0.0000 
      6 O1B       149.2280  183.8590  168.7430 O.co2     1 ATP802      0.0000 
      7 O2B       146.6640  183.3820  168.8120 O.co2     1 ATP802      0.0000 
      8 O3B       148.2040  181.6030  168.1290 O.3       1 ATP802      0.0000 
      9 PA        148.3950  184.9080  166.0900 P.3       1 ATP802      0.0000 
     10 O1A       147.7890  185.0200  164.7170 O.co2     1 ATP802      0.0000 
     11 O2A       149.8860  184.9110  166.2570 O.co2     1 ATP802      0.0000 
     12 O3A       147.9130  183.4920  166.6320 O.3       1 ATP802      0.0000 
     13 O5'       147.7110  185.9540  167.0680 O.3       1 ATP802      0.0000 
     14 C5'       146.3080  185.9190  167.0390 C.3       1 ATP802      0.0000 
     15 C4'       145.7750  187.2850  166.6610 C.3       1 ATP802      0.0000 
     16 O4'       146.3940  188.3900  167.3020 O.3       1 ATP802      0.0000 
     17 C3'       146.0330  187.5420  165.2110 C.3       1 ATP802      0.0000 
     18 O3'       145.1510  186.8080  164.3670 O.3       1 ATP802      0.0000 
     19 C2'       145.8410  189.0230  165.1090 C.3       1 ATP802      0.0000 
     20 O2'       144.5310  189.2560  164.6250 O.3       1 ATP802      0.0000 
     21 C1'       146.0540  189.5400  166.5300 C.3       1 ATP802      0.0000 
     22 N9        147.1230  190.5660  166.6530 N.pl3     1 ATP802      0.0000 
     23 C8        147.4430  191.5730  165.8140 C.2       1 ATP802      0.0000 
     24 N7        148.4910  192.2890  166.2710 N.2       1 ATP802      0.0000 
     25 C5        148.8500  191.7480  167.4320 C.ar      1 ATP802      0.0000 
     26 C6        149.8800  192.0200  168.4260 C.ar      1 ATP802      0.0000 
     27 N6        150.7400  193.0360  168.2620 N.pl3     1 ATP802      0.0000 
     28 N1        149.9300  191.2380  169.5070 N.ar      1 ATP802      0.0000 
     29 C2        149.0770  190.2240  169.6790 C.ar      1 ATP802      0.0000 
     30 N3        148.1140  189.9190  168.8080 N.ar      1 ATP802      0.0000 
     31 C4        147.9520  190.6300  167.6830 C.ar      1 ATP802      0.0000 
     32 H5'1      145.9370  185.6090  168.0100 H         1 ATP802      0.0000 
     33 H5'2      145.9930  185.1770  166.3110 H         1 ATP802      0.0000 
     34 H4'       144.6970  187.3290  166.8220 H         1 ATP802      0.0000 
     35 H3'       147.0750  187.3130  165.0080 H         1 ATP802      0.0000 
     36 HO3'      145.3840  186.9810  163.4450 H         1 ATP802      0.0000 
     37 H2'       146.5810  189.4050  164.4070 H         1 ATP802      0.0000 
     38 HO2'      144.5370  189.1440  163.6670 H         1 ATP802      0.0000 
     39 H1'       145.1130  189.9280  166.9020 H         1 ATP802      0.0000 
     40 H8        146.9500  191.7770  164.8780 H         1 ATP802      0.0000 
     41 HN61      150.6840  193.6230  167.4500 H         1 ATP802      0.0000 
     42 HN62      151.4320  193.2120  168.9680 H         1 ATP802      0.0000 
     43 H2        149.1690  189.6260  170.5710 H         1 ATP802      0.0000 
@<TRIPOS>BOND
     1    1    2 ar   
     2    1    3 ar   
     3    1    4 ar   
     4    1    8 1    
     5    5    6 ar   
     6    5    7 ar   
     7    5    8 1    
     8    5   12 1    
     9    9   10 ar   
    10    9   11 ar   
    11    9   12 1    
    12    9   13 1    
    13   13   14 1    
    14   14   15 1    
    15   14   32 1    
    16   14   33 1    
    17   15   16 1    
    18   15   17 1    
    19   15   34 1    
    20   16   21 1    
    21   17   18 1    
    22   17   19 1    
    23   17   35 1    
    24   18   36 1    
    25   19   20 1    
    26   19   21 1    
    27   19   37 1    
    28   20   38 1    
    29   21   22 1    
    30   21   39 1    
    31   22   23 1    
    32   22   31 1    
    33   23   24 2    
    34   23   40 1    
    35   24   25 1    
    36   25   26 ar   
    37   25   31 ar   
    38   26   27 1    
    39   26   28 ar   
    40   27   41 1    
    41   27   42 1    
    42   28   29 ar   
    43   29   30 ar   
    44   29   43 1    
    45   30   31 ar   
@<TRIPOS>SUBSTRUCTURE
     1 ATP802      1 GROUP   
@<TRIPOS>SET
ATOM$ORANGE STATIC     ATOMS   COLORGROUP SYSTEM 
20 14 14 15 15 17 17 19 19 21 21 23 23 25 25 26 26 29 \
29 31 31 

