#    Name: 6mdo_5_ATP
#    Modification time : Fri May 22 19:33:43 2020

@<TRIPOS>MOLECULE
6mdo_5_ATP
   43    45     1     0     1
SMALL
NO_CHARGES


@<TRIPOS>ATOM
      1 PG        131.3690  179.6590  205.9320 P.3       1 ATP801      0.0000 
      2 O1G       131.0470  178.2080  205.7050 O.co2     1 ATP801      0.0000 
      3 O2G       130.5740  180.3140  207.0300 O.co2     1 ATP801      0.0000 
      4 O3G       132.8320  180.0100  205.9330 O.co2     1 ATP801      0.0000 
      5 PB        131.4040  181.8910  204.4630 P.3       1 ATP801      0.0000 
      6 O1B       132.8340  181.8510  204.0080 O.co2     1 ATP801      0.0000 
      7 O2B       131.0430  182.6510  205.7090 O.co2     1 ATP801      0.0000 
      8 O3B       130.8740  180.3960  204.6090 O.3       1 ATP801      0.0000 
      9 PA        130.9490  183.8890  202.7780 P.3       1 ATP801      0.0000 
     10 O1A       131.3500  183.8460  201.3300 O.co2     1 ATP801      0.0000 
     11 O2A       131.8760  184.3850  203.8460 O.co2     1 ATP801      0.0000 
     12 O3A       130.5130  182.4470  203.2690 O.3       1 ATP801      0.0000 
     13 O5'       129.5710  184.6730  202.9120 O.3       1 ATP801      0.0000 
     14 C5'       129.7430  186.0390  203.1770 C.3       1 ATP801      0.0000 
     15 C4'       128.4650  186.8460  203.0480 C.3       1 ATP801      0.0000 
     16 O4'       128.5880  187.9930  203.8570 O.3       1 ATP801      0.0000 
     17 C3'       128.1460  187.3350  201.6480 C.3       1 ATP801      0.0000 
     18 O3'       127.0360  186.6240  201.1150 O.3       1 ATP801      0.0000 
     19 C2'       127.7910  188.7950  201.7940 C.3       1 ATP801      0.0000 
     20 O2'       126.5100  189.1270  201.2710 O.3       1 ATP801      0.0000 
     21 C1'       127.8100  189.0140  203.2720 C.3       1 ATP801      0.0000 
     22 N9        128.3630  190.3290  203.5910 N.pl3     1 ATP801      0.0000 
     23 C8        127.8260  191.4810  203.2110 C.2       1 ATP801      0.0000 
     24 N7        128.5510  192.5170  203.6850 N.2       1 ATP801      0.0000 
     25 C5        129.5630  192.0050  204.3910 C.ar      1 ATP801      0.0000 
     26 C6        130.7020  192.5210  205.1450 C.ar      1 ATP801      0.0000 
     27 N6        130.8730  193.8400  205.2360 N.pl3     1 ATP801      0.0000 
     28 N1        131.5300  191.6620  205.7540 N.ar      1 ATP801      0.0000 
     29 C2        131.3470  190.3390  205.6640 C.ar      1 ATP801      0.0000 
     30 N3        130.3350  189.7990  204.9790 N.ar      1 ATP801      0.0000 
     31 C4        129.4300  190.5620  204.3380 C.ar      1 ATP801      0.0000 
     32 H5'1      130.5190  186.4230  202.5250 H         1 ATP801      0.0000 
     33 H5'2      130.1040  186.1170  204.1980 H         1 ATP801      0.0000 
     34 H4'       127.6260  186.2450  203.4040 H         1 ATP801      0.0000 
     35 H3'       129.0200  187.2350  201.0080 H         1 ATP801      0.0000 
     36 HO3'      126.9370  186.8600  200.1850 H         1 ATP801      0.0000 
     37 H2'       128.5640  189.4190  201.3540 H         1 ATP801      0.0000 
     38 HO2'      126.5990  189.3580  200.3370 H         1 ATP801      0.0000 
     39 H1'       126.7830  188.9530  203.6190 H         1 ATP801      0.0000 
     40 H8        126.9460  191.5580  202.5950 H         1 ATP801      0.0000 
     41 HN61      130.2210  194.4480  204.7770 H         1 ATP801      0.0000 
     42 HN62      131.6440  194.2090  205.7620 H         1 ATP801      0.0000 
     43 H2        132.0430  189.6720  206.1590 H         1 ATP801      0.0000 
@<TRIPOS>BOND
     1    1    2 ar   
     2    1    3 ar   
     3    1    4 ar   
     4    1    8 1    
     5    5    6 ar   
     6    5    7 ar   
     7    5    8 1    
     8    5   12 1    
     9    9   10 ar   
    10    9   11 ar   
    11    9   12 1    
    12    9   13 1    
    13   13   14 1    
    14   14   15 1    
    15   14   32 1    
    16   14   33 1    
    17   15   16 1    
    18   15   17 1    
    19   15   34 1    
    20   16   21 1    
    21   17   18 1    
    22   17   19 1    
    23   17   35 1    
    24   18   36 1    
    25   19   20 1    
    26   19   21 1    
    27   19   37 1    
    28   20   38 1    
    29   21   22 1    
    30   21   39 1    
    31   22   23 1    
    32   22   31 1    
    33   23   24 2    
    34   23   40 1    
    35   24   25 1    
    36   25   26 ar   
    37   25   31 ar   
    38   26   27 1    
    39   26   28 ar   
    40   27   41 1    
    41   27   42 1    
    42   28   29 ar   
    43   29   30 ar   
    44   29   43 1    
    45   30   31 ar   
@<TRIPOS>SUBSTRUCTURE
     1 ATP801      1 GROUP   
@<TRIPOS>SET
ATOM$ORANGE STATIC     ATOMS   COLORGROUP SYSTEM 
20 14 14 15 15 17 17 19 19 21 21 23 23 25 25 26 26 29 \
29 31 31 

