#    Name: 6mdo_1_ATP
#    Modification time : Fri May 22 19:32:59 2020

@<TRIPOS>MOLECULE
6mdo_1_ATP
   43    45     1     0     1
SMALL
NO_CHARGES


@<TRIPOS>ATOM
      1 PG        126.4690  128.3730  209.7800 P.3       1 ATP801      0.0000 
      2 O1G       125.5400  129.3730  209.1450 O.co2     1 ATP801      0.0000 
      3 O2G       127.9440  128.6440  209.6330 O.co2     1 ATP801      0.0000 
      4 O3G       126.0200  127.9260  211.1450 O.co2     1 ATP801      0.0000 
      5 PB        124.7040  126.8880  208.4490 P.3       1 ATP801      0.0000 
      6 O1B       124.4600  127.5700  207.1310 O.co2     1 ATP801      0.0000 
      7 O2B       123.8570  127.2380  209.6420 O.co2     1 ATP801      0.0000 
      8 O3B       126.2260  127.0920  208.8650 O.3       1 ATP801      0.0000 
      9 PA        123.1210  124.7960  208.3370 P.3       1 ATP801      0.0000 
     10 O1A       122.3200  125.7190  207.4590 O.co2     1 ATP801      0.0000 
     11 O2A       122.7780  124.7080  209.7970 O.co2     1 ATP801      0.0000 
     12 O3A       124.6190  125.3110  208.2360 O.3       1 ATP801      0.0000 
     13 O5'       123.0790  123.3180  207.7290 O.3       1 ATP801      0.0000 
     14 C5'       121.8750  122.8240  207.1560 C.3       1 ATP801      0.0000 
     15 C4'       121.3790  121.6060  207.9250 C.3       1 ATP801      0.0000 
     16 O4'       120.2070  121.9560  208.6710 O.3       1 ATP801      0.0000 
     17 C3'       120.9810  120.4030  207.0730 C.3       1 ATP801      0.0000 
     18 O3'       121.7280  119.2500  207.4570 O.3       1 ATP801      0.0000 
     19 C2'       119.5160  120.2250  207.3630 C.3       1 ATP801      0.0000 
     20 O2'       119.0430  118.8870  207.2630 O.3       1 ATP801      0.0000 
     21 C1'       119.4020  120.7840  208.7530 C.3       1 ATP801      0.0000 
     22 N9        118.0180  121.0210  209.2020 N.pl3     1 ATP801      0.0000 
     23 C8        116.8990  120.9180  208.4820 C.2       1 ATP801      0.0000 
     24 N7        115.8100  121.1730  209.2330 N.2       1 ATP801      0.0000 
     25 C5        116.2340  121.4180  210.4680 C.ar      1 ATP801      0.0000 
     26 C6        115.6020  121.7540  211.7450 C.ar      1 ATP801      0.0000 
     27 N6        114.2830  121.8840  211.8720 N.pl3     1 ATP801      0.0000 
     28 N1        116.3750  121.9290  212.8080 N.ar      1 ATP801      0.0000 
     29 C2        117.6930  121.8050  212.7110 C.ar      1 ATP801      0.0000 
     30 N3        118.3510  121.5030  211.5850 N.ar      1 ATP801      0.0000 
     31 C4        117.6810  121.2860  210.4470 C.ar      1 ATP801      0.0000 
     32 H5'1      122.0430  122.6060  206.1060 H         1 ATP801      0.0000 
     33 H5'2      121.1130  123.5960  207.2150 H         1 ATP801      0.0000 
     34 H4'       122.1710  121.2950  208.6130 H         1 ATP801      0.0000 
     35 H3'       121.1040  120.5970  206.0060 H         1 ATP801      0.0000 
     36 HO3'      121.4430  118.4930  206.9330 H         1 ATP801      0.0000 
     37 H2'       118.9920  120.8790  206.6680 H         1 ATP801      0.0000 
     38 HO2'      118.6260  118.7950  206.3970 H         1 ATP801      0.0000 
     39 H1'       119.8570  120.0680  209.4350 H         1 ATP801      0.0000 
     40 H8        116.8590  120.6930  207.4340 H         1 ATP801      0.0000 
     41 HN61      113.6850  121.7550  211.0840 H         1 ATP801      0.0000 
     42 HN62      113.9080  122.1140  212.7670 H         1 ATP801      0.0000 
     43 H2        118.2440  121.9700  213.6040 H         1 ATP801      0.0000 
@<TRIPOS>BOND
     1    1    2 ar   
     2    1    3 ar   
     3    1    4 ar   
     4    1    8 1    
     5    5    6 ar   
     6    5    7 ar   
     7    5    8 1    
     8    5   12 1    
     9    9   10 ar   
    10    9   11 ar   
    11    9   12 1    
    12    9   13 1    
    13   13   14 1    
    14   14   15 1    
    15   14   32 1    
    16   14   33 1    
    17   15   16 1    
    18   15   17 1    
    19   15   34 1    
    20   16   21 1    
    21   17   18 1    
    22   17   19 1    
    23   17   35 1    
    24   18   36 1    
    25   19   20 1    
    26   19   21 1    
    27   19   37 1    
    28   20   38 1    
    29   21   22 1    
    30   21   39 1    
    31   22   23 1    
    32   22   31 1    
    33   23   24 2    
    34   23   40 1    
    35   24   25 1    
    36   25   26 ar   
    37   25   31 ar   
    38   26   27 1    
    39   26   28 ar   
    40   27   41 1    
    41   27   42 1    
    42   28   29 ar   
    43   29   30 ar   
    44   29   43 1    
    45   30   31 ar   
@<TRIPOS>SUBSTRUCTURE
     1 ATP801      1 GROUP   
@<TRIPOS>SET
ATOM$ORANGE STATIC     ATOMS   COLORGROUP SYSTEM 
20 14 14 15 15 17 17 19 19 21 21 23 23 25 25 26 26 29 \
29 31 31 

