#    Name: 5zr1_2_AGS
#    Modification time : Fri May 22 19:28:59 2020

@<TRIPOS>MOLECULE
5zr1_2_AGS
   31    33     1     0     0
SMALL
NO_CHARGES


@<TRIPOS>ATOM
      1 PG        137.5910  146.0070   95.3140 P.3       1 AGS2001     0.0000 
      2 S1G       139.0680  144.7920   95.6500 S.2       1 AGS2001     0.0000 
      3 O2G       136.4340  145.1860   94.6890 O.3       1 AGS2001     0.0000 
      4 O3G       137.1010  146.6340   96.6470 O.3       1 AGS2001     0.0000 
      5 PB        137.9400  146.8620   92.7850 P.3       1 AGS2001     0.0000 
      6 O1B       139.1660  146.1660   92.3760 O.co2     1 AGS2001     0.0000 
      7 O2B       136.6650  146.0520   92.5710 O.co2     1 AGS2001     0.0000 
      8 O3B       137.9970  147.1360   94.3300 O.3       1 AGS2001     0.0000 
      9 PA        136.3630  148.4590   91.2830 P.3       1 AGS2001     0.0000 
     10 O1A       136.0120  147.3760   90.3700 O.co2     1 AGS2001     0.0000 
     11 O2A       135.3480  148.6320   92.4130 O.co2     1 AGS2001     0.0000 
     12 O3A       137.7450  148.1990   91.9790 O.3       1 AGS2001     0.0000 
     13 O5'       136.5560  149.7640   90.4060 O.3       1 AGS2001     0.0000 
     14 C5'       136.7900  151.0610   90.9730 C.3       1 AGS2001     0.0000 
     15 C4'       135.7940  152.0490   90.4200 C.3       1 AGS2001     0.0000 
     16 O4'       134.9120  151.3930   89.4820 O.3       1 AGS2001     0.0000 
     17 C3'       134.8980  152.7160   91.4630 C.3       1 AGS2001     0.0000 
     18 O3'       134.7520  154.1030   91.1880 O.3       1 AGS2001     0.0000 
     19 C2'       133.5730  151.9680   91.3130 C.3       1 AGS2001     0.0000 
     20 O2'       132.4660  152.7850   91.6720 O.3       1 AGS2001     0.0000 
     21 C1'       133.5690  151.6700   89.8200 C.3       1 AGS2001     0.0000 
     22 N9        132.7510  150.5240   89.4430 N.pl3     1 AGS2001     0.0000 
     23 C8        132.7280  149.2910   90.0390 C.2       1 AGS2001     0.0000 
     24 N7        131.8970  148.4450   89.4830 N.2       1 AGS2001     0.0000 
     25 C5        131.3330  149.1710   88.4460 C.ar      1 AGS2001     0.0000 
     26 C6        130.3720  148.8430   87.4720 C.ar      1 AGS2001     0.0000 
     27 N6        129.7850  147.6480   87.3810 N.pl3     1 AGS2001     0.0000 
     28 N1        130.0280  149.8020   86.5820 N.ar      1 AGS2001     0.0000 
     29 C2        130.6120  150.9990   86.6680 C.ar      1 AGS2001     0.0000 
     30 N3        131.5310  151.4210   87.5400 N.ar      1 AGS2001     0.0000 
     31 C4        131.8480  150.4540   88.4120 C.ar      1 AGS2001     0.0000 
@<TRIPOS>BOND
     1    1    2 2    
     2    1    3 1    
     3    1    4 1    
     4    1    8 1    
     5    5    6 ar   
     6    5    7 ar   
     7    5    8 1    
     8    5   12 1    
     9    9   10 ar   
    10    9   11 ar   
    11    9   12 1    
    12    9   13 1    
    13   13   14 1    
    14   14   15 1    
    15   15   16 1    
    16   15   17 1    
    17   16   21 1    
    18   17   18 1    
    19   17   19 1    
    20   19   20 1    
    21   19   21 1    
    22   21   22 1    
    23   22   23 1    
    24   22   31 1    
    25   23   24 2    
    26   24   25 1    
    27   25   26 ar   
    28   25   31 ar   
    29   26   27 1    
    30   26   28 ar   
    31   28   29 ar   
    32   29   30 ar   
    33   30   31 ar   
@<TRIPOS>SUBSTRUCTURE
     1 AGS2001     1 GROUP   
@<TRIPOS>SET

