#    Name: 5zr1_3_AGS
#    Modification time : Fri May 22 19:29:06 2020

@<TRIPOS>MOLECULE
5zr1_3_AGS
   31    33     1     0     0
SMALL
NO_CHARGES


@<TRIPOS>ATOM
      1 PG        124.9580  161.6460  117.7170 P.3       1 AGS2001     0.0000 
      2 S1G       125.0420  161.7290  119.6550 S.2       1 AGS2001     0.0000 
      3 O2G       125.9960  160.6080  117.2160 O.3       1 AGS2001     0.0000 
      4 O3G       123.5410  161.1710  117.2950 O.3       1 AGS2001     0.0000 
      5 PB        124.2260  163.7430  116.1520 P.3       1 AGS2001     0.0000 
      6 O1B       125.0450  164.4580  115.0820 O.co2     1 AGS2001     0.0000 
      7 O2B       123.3260  162.7180  115.6150 O.co2     1 AGS2001     0.0000 
      8 O3B       125.2720  163.0370  117.0940 O.3       1 AGS2001     0.0000 
      9 PA        121.9490  165.2640  116.6310 P.3       1 AGS2001     0.0000 
     10 O1A       121.9250  166.0800  115.3420 O.co2     1 AGS2001     0.0000 
     11 O2A       121.0400  164.1060  116.6400 O.co2     1 AGS2001     0.0000 
     12 O3A       123.4530  164.8810  116.9280 O.3       1 AGS2001     0.0000 
     13 O5'       121.5500  166.1540  117.8630 O.3       1 AGS2001     0.0000 
     14 C5'       122.0620  167.4810  118.0290 C.3       1 AGS2001     0.0000 
     15 C4'       120.9750  168.3270  118.6380 C.3       1 AGS2001     0.0000 
     16 O4'       121.2080  169.7110  118.3180 O.3       1 AGS2001     0.0000 
     17 C3'       119.5700  168.0360  118.1300 C.3       1 AGS2001     0.0000 
     18 O3'       118.5960  168.3850  119.1050 O.3       1 AGS2001     0.0000 
     19 C2'       119.4730  168.9280  116.8930 C.3       1 AGS2001     0.0000 
     20 O2'       118.1320  169.3380  116.6670 O.3       1 AGS2001     0.0000 
     21 C1'       120.3370  170.1310  117.2840 C.3       1 AGS2001     0.0000 
     22 N9        121.1520  170.6390  116.1920 N.pl3     1 AGS2001     0.0000 
     23 C8        122.3450  170.1320  115.7530 C.2       1 AGS2001     0.0000 
     24 N7        122.8650  170.7850  114.7440 N.2       1 AGS2001     0.0000 
     25 C5        121.9510  171.7980  114.5030 C.ar      1 AGS2001     0.0000 
     26 C6        121.9180  172.8390  113.5590 C.ar      1 AGS2001     0.0000 
     27 N6        122.8680  173.0430  112.6440 N.pl3     1 AGS2001     0.0000 
     28 N1        120.8590  173.6790  113.5880 N.ar      1 AGS2001     0.0000 
     29 C2        119.9060  173.4820  114.5030 C.ar      1 AGS2001     0.0000 
     30 N3        119.8300  172.5350  115.4430 N.ar      1 AGS2001     0.0000 
     31 C4        120.8890  171.7170  115.3870 C.ar      1 AGS2001     0.0000 
@<TRIPOS>BOND
     1    1    2 2    
     2    1    3 1    
     3    1    4 1    
     4    1    8 1    
     5    5    6 ar   
     6    5    7 ar   
     7    5    8 1    
     8    5   12 1    
     9    9   10 ar   
    10    9   11 ar   
    11    9   12 1    
    12    9   13 1    
    13   13   14 1    
    14   14   15 1    
    15   15   16 1    
    16   15   17 1    
    17   16   21 1    
    18   17   18 1    
    19   17   19 1    
    20   19   20 1    
    21   19   21 1    
    22   21   22 1    
    23   22   23 1    
    24   22   31 1    
    25   23   24 2    
    26   24   25 1    
    27   25   26 ar   
    28   25   31 ar   
    29   26   27 1    
    30   26   28 ar   
    31   28   29 ar   
    32   29   30 ar   
    33   30   31 ar   
@<TRIPOS>SUBSTRUCTURE
     1 AGS2001     1 GROUP   
@<TRIPOS>SET

