#    Name: 5zr1_1_AGS
#    Modification time : Fri May 22 19:28:46 2020

@<TRIPOS>MOLECULE
5zr1_1_AGS
   31    33     1     0     0
SMALL
NO_CHARGES


@<TRIPOS>ATOM
      1 PG        146.9960  115.0550   94.1060 P.3       1 AGS2001     0.0000 
      2 S1G       147.4980  113.9560   95.6290 S.2       1 AGS2001     0.0000 
      3 O2G       147.2610  116.5470   94.4320 O.3       1 AGS2001     0.0000 
      4 O3G       145.4840  114.8490   93.8300 O.3       1 AGS2001     0.0000 
      5 PB        147.3430  113.2640   92.1830 P.3       1 AGS2001     0.0000 
      6 O1B       148.5200  112.3840   92.1530 O.co2     1 AGS2001     0.0000 
      7 O2B       146.2310  112.7490   93.0980 O.co2     1 AGS2001     0.0000 
      8 O3B       147.7490  114.6400   92.8170 O.3       1 AGS2001     0.0000 
      9 PA        147.4040  112.8500   89.4590 P.3       1 AGS2001     0.0000 
     10 O1A       147.0670  111.3610   89.4070 O.co2     1 AGS2001     0.0000 
     11 O2A       148.8240  113.2120   89.4690 O.co2     1 AGS2001     0.0000 
     12 O3A       146.6870  113.4310   90.7460 O.3       1 AGS2001     0.0000 
     13 O5'       146.8200  113.6050   88.2090 O.3       1 AGS2001     0.0000 
     14 C5'       147.6890  114.5160   87.5040 C.3       1 AGS2001     0.0000 
     15 C4'       147.3070  114.5790   86.0520 C.3       1 AGS2001     0.0000 
     16 O4'       148.5120  114.6840   85.2640 O.3       1 AGS2001     0.0000 
     17 C3'       146.5680  113.3470   85.5410 C.3       1 AGS2001     0.0000 
     18 O3'       145.1640  113.5700   85.5490 O.3       1 AGS2001     0.0000 
     19 C2'       147.0860  113.1940   84.1110 C.3       1 AGS2001     0.0000 
     20 O2'       146.3290  113.9570   83.1850 O.3       1 AGS2001     0.0000 
     21 C1'       148.5110  113.7330   84.2200 C.3       1 AGS2001     0.0000 
     22 N9        149.5120  112.7160   84.5170 N.pl3     1 AGS2001     0.0000 
     23 C8        150.0960  112.4600   85.7270 C.2       1 AGS2001     0.0000 
     24 N7        150.9670  111.4800   85.7040 N.2       1 AGS2001     0.0000 
     25 C5        150.9520  111.0620   84.3850 C.ar      1 AGS2001     0.0000 
     26 C6        151.6570  110.0500   83.7050 C.ar      1 AGS2001     0.0000 
     27 N6        152.5490  109.2460   84.2880 N.pl3     1 AGS2001     0.0000 
     28 N1        151.4100  109.8930   82.3850 N.ar      1 AGS2001     0.0000 
     29 C2        150.5190  110.6930   81.7960 C.ar      1 AGS2001     0.0000 
     30 N3        149.7970  111.6790   82.3350 N.ar      1 AGS2001     0.0000 
     31 C4        150.0630  111.8140   83.6400 C.ar      1 AGS2001     0.0000 
@<TRIPOS>BOND
     1    1    2 2    
     2    1    3 1    
     3    1    4 1    
     4    1    8 1    
     5    5    6 ar   
     6    5    7 ar   
     7    5    8 1    
     8    5   12 1    
     9    9   10 ar   
    10    9   11 ar   
    11    9   12 1    
    12    9   13 1    
    13   13   14 1    
    14   14   15 1    
    15   15   16 1    
    16   15   17 1    
    17   16   21 1    
    18   17   18 1    
    19   17   19 1    
    20   19   20 1    
    21   19   21 1    
    22   21   22 1    
    23   22   23 1    
    24   22   31 1    
    25   23   24 2    
    26   24   25 1    
    27   25   26 ar   
    28   25   31 ar   
    29   26   27 1    
    30   26   28 ar   
    31   28   29 ar   
    32   29   30 ar   
    33   30   31 ar   
@<TRIPOS>SUBSTRUCTURE
     1 AGS2001     1 GROUP   
@<TRIPOS>SET

