#    Name: 5yu8_5_ADP_CAVITY_N1_8
#    Modification time : Fri May 22 19:26:57 2020

@<TRIPOS>MOLECULE
5yu8_5_ADP_CAVITY_N1_8
   70     0     7     0     0
SMALL
NO_CHARGES


@<TRIPOS>ATOM
      1 OG        179.4400  186.4900  294.7100 O.3       1 SER1        0.0000 
      2 OG        182.4600  184.8100  295.9500 O.3       1 SER1        0.0000 
      3 OG        181.1800  184.2000  296.4400 O.3       1 SER1        0.0000 
      4 OG        180.4900  185.5300  296.2800 O.3       1 SER1        0.0000 
      5 OG        184.8000  184.4600  297.0200 O.3       1 SER1        0.0000 
      6 OG        183.5200  183.8500  297.5100 O.3       1 SER1        0.0000 
      7 N         185.3900  186.3900  296.3800 N.am      2 ALA2        0.0000 
      8 N         184.1100  185.7800  296.8700 N.am      2 ALA2        0.0000 
      9 N         182.7300  188.4300  296.5500 N.am      2 ALA2        0.0000 
     10 N         182.1400  186.5000  297.2000 N.am      2 ALA2        0.0000 
     11 N         181.4500  187.8200  297.0400 N.am      2 ALA2        0.0000 
     12 N         189.0100  186.6500  296.9600 N.am      2 ALA2        0.0000 
     13 N         185.0700  188.0700  297.6300 N.am      2 ALA2        0.0000 
     14 N         190.6600  187.6200  297.8800 N.am      2 ALA2        0.0000 
     15 N         189.9700  188.9400  297.7300 N.am      2 ALA2        0.0000 
     16 N         188.6900  188.3300  298.2100 N.am      2 ALA2        0.0000 
     17 N         187.4100  187.7200  298.7000 N.am      2 ALA2        0.0000 
     18 N         189.0500  188.6900  299.6200 N.am      2 ALA2        0.0000 
     19 OD1       180.8600  185.8900  297.6900 O.co2     3 ASP3        0.0000 
     20 OD1       184.3800  189.4000  297.4700 O.co2     3 ASP3        0.0000 
     21 OD1       181.2300  186.2500  299.0900 O.co2     3 ASP3        0.0000 
     22 OD1       180.5400  187.5700  298.9300 O.co2     3 ASP3        0.0000 
     23 OD1       179.8500  188.8900  298.7800 O.co2     3 ASP3        0.0000 
     24 OD1       179.2600  186.9600  299.4200 O.co2     3 ASP3        0.0000 
     25 OD1       178.5700  188.2800  299.2700 O.co2     3 ASP3        0.0000 
     26 OD1       186.0300  190.3700  298.3900 O.co2     3 ASP3        0.0000 
     27 OD1       180.8100  191.1900  299.5400 O.co2     3 ASP3        0.0000 
     28 NZ        179.2100  184.9200  296.7700 N.4       4 LYS4        0.0000 
     29 NZ        178.5200  186.2400  296.6100 N.4       4 LYS4        0.0000 
     30 NZ        179.5800  185.2800  298.1700 N.4       4 LYS4        0.0000 
     31 NZ        178.8900  186.6000  298.0200 N.4       4 LYS4        0.0000 
     32 NZ        183.1000  188.7900  297.9600 N.4       4 LYS4        0.0000 
     33 NZ        181.8200  188.1800  298.4500 N.4       4 LYS4        0.0000 
     34 NZ        181.1300  189.5000  298.2900 N.4       4 LYS4        0.0000 
     35 NZ        184.7500  189.7600  298.8800 N.4       4 LYS4        0.0000 
     36 CZ        186.0800  185.0700  296.5300 C.ar      5 PHE5        0.0000 
     37 CZ        187.7300  186.0400  297.4500 C.ar      5 PHE5        0.0000 
     38 CZ        186.4500  185.4300  297.9400 C.ar      5 PHE5        0.0000 
     39 CZ        185.1700  184.8200  298.4300 C.ar      5 PHE5        0.0000 
     40 CA        181.7700  186.1400  295.7900 C.3       6 GLY6        0.0000 
     41 CA        181.0800  187.4600  295.6300 C.3       6 GLY6        0.0000 
     42 CA        180.3900  188.7800  295.4700 C.3       6 GLY6        0.0000 
     43 CA        179.1100  188.1700  295.9600 C.3       6 GLY6        0.0000 
     44 CA        182.0400  189.7500  296.3900 C.3       6 GLY6        0.0000 
     45 CA        182.8300  185.1700  297.3500 C.3       6 GLY6        0.0000 
     46 CA        180.7600  189.1400  296.8800 C.3       6 GLY6        0.0000 
     47 CA        180.0700  190.4600  296.7200 C.3       6 GLY6        0.0000 
     48 CA        181.5500  184.5600  297.8400 C.3       6 GLY6        0.0000 
     49 CA        179.4800  188.5300  297.3700 C.3       6 GLY6        0.0000 
     50 CA        178.2000  187.9200  297.8600 C.3       6 GLY6        0.0000 
     51 CA        188.3200  187.9700  296.8100 C.3       6 GLY6        0.0000 
     52 CA        187.6300  189.2900  296.6500 C.3       6 GLY6        0.0000 
     53 CA        186.9400  190.6200  296.4900 C.3       6 GLY6        0.0000 
     54 CA        187.0400  187.3600  297.3000 C.3       6 GLY6        0.0000 
     55 CA        186.3500  188.6800  297.1400 C.3       6 GLY6        0.0000 
     56 CA        185.6600  190.0100  296.9800 C.3       6 GLY6        0.0000 
     57 CA        185.7600  186.7500  297.7800 C.3       6 GLY6        0.0000 
     58 CA        184.4800  186.1400  298.2700 C.3       6 GLY6        0.0000 
     59 CA        183.7900  187.4700  298.1200 C.3       6 GLY6        0.0000 
     60 CA        183.2000  185.5300  298.7600 C.3       6 GLY6        0.0000 
     61 CA        182.5100  186.8600  298.6000 C.3       6 GLY6        0.0000 
     62 CA        180.4400  190.8200  298.1300 C.3       6 GLY6        0.0000 
     63 CA        179.9500  185.6400  299.5800 C.3       6 GLY6        0.0000 
     64 CA        186.7200  189.0400  298.5500 C.3       6 GLY6        0.0000 
     65 CA        185.4400  188.4400  299.0300 C.3       6 GLY6        0.0000 
     66 CA        179.5300  190.5800  300.0300 C.3       6 GLY6        0.0000 
     67 CA        187.0800  189.4100  299.9500 C.3       6 GLY6        0.0000 
     68 DU        179.8000  186.8500  296.1200 H         7 CUB7        0.0000 
     69 DU        180.1700  187.2100  297.5300 H         7 CUB7        0.0000 
     70 DU        188.0000  189.6500  298.0600 H         7 CUB7        0.0000 
@<TRIPOS>BOND
@<TRIPOS>SUBSTRUCTURE
     1 SER1        1 GROUP   
     2 ALA2        7 GROUP   
     3 ASP3       19 GROUP   
     4 LYS4       28 GROUP   
     5 PHE5       36 GROUP   
     6 GLY6       40 GROUP   
     7 CUB7       68 GROUP   
@<TRIPOS>SET

