#    Name: 5yu8_4_ADP
#    Modification time : Fri May 22 19:26:48 2020

@<TRIPOS>MOLECULE
5yu8_4_ADP
   27    29     1     0     1
SMALL
NO_CHARGES


@<TRIPOS>ATOM
      1 PB        165.3250  158.3540  265.1350 P.3       1 ADP402      0.0000 
      2 O1B       164.8510  157.2880  264.2380 O.co2     1 ADP402      0.0000 
      3 O2B       165.9940  157.7060  266.3020 O.co2     1 ADP402      0.0000 
      4 O3B       166.1070  159.5100  264.4630 O.co2     1 ADP402      0.0000 
      5 PA        162.4830  158.6030  265.8320 P.3       1 ADP402      0.0000 
      6 O1A       161.7180  158.6340  264.5700 O.co2     1 ADP402      0.0000 
      7 O2A       162.4290  157.3060  266.5670 O.co2     1 ADP402      0.0000 
      8 O3A       163.9880  159.0430  265.6540 O.3       1 ADP402      0.0000 
      9 O5'       161.8410  159.7790  266.7150 O.3       1 ADP402      0.0000 
     10 C5'       162.3720  159.9650  268.0690 C.3       1 ADP402      0.0000 
     11 C4'       162.1810  161.4500  268.3940 C.3       1 ADP402      0.0000 
     12 O4'       160.7590  161.7400  268.2780 O.3       1 ADP402      0.0000 
     13 C3'       162.6060  161.7870  269.8460 C.3       1 ADP402      0.0000 
     14 O3'       163.2360  163.0890  269.7960 O.3       1 ADP402      0.0000 
     15 C2'       161.2500  161.9200  270.5550 C.3       1 ADP402      0.0000 
     16 O2'       161.2820  162.8130  271.6840 O.3       1 ADP402      0.0000 
     17 C1'       160.3260  162.3450  269.4520 C.3       1 ADP402      0.0000 
     18 N9        158.9160  162.0930  269.6830 N.pl3     1 ADP402      0.0000 
     19 C8        158.2990  160.9130  269.9740 C.2       1 ADP402      0.0000 
     20 N7        157.0100  160.9710  270.1820 N.2       1 ADP402      0.0000 
     21 C5        156.7580  162.2620  269.9940 C.ar      1 ADP402      0.0000 
     22 C6        155.5690  162.9530  270.0840 C.ar      1 ADP402      0.0000 
     23 N6        154.4020  162.3630  270.3810 N.pl3     1 ADP402      0.0000 
     24 N1        155.6360  164.2610  269.8630 N.ar      1 ADP402      0.0000 
     25 C2        156.8280  164.9020  269.5500 C.ar      1 ADP402      0.0000 
     26 N3        158.0140  164.3160  269.4590 N.ar      1 ADP402      0.0000 
     27 C4        157.8770  162.9970  269.6970 C.ar      1 ADP402      0.0000 
@<TRIPOS>BOND
     1    1    2 ar   
     2    1    3 ar   
     3    1    4 ar   
     4    1    8 1    
     5    5    6 ar   
     6    5    7 ar   
     7    5    8 1    
     8    5    9 1    
     9    9   10 1    
    10   10   11 1    
    11   11   12 1    
    12   11   13 1    
    13   12   17 1    
    14   13   14 1    
    15   13   15 1    
    16   15   16 1    
    17   15   17 1    
    18   17   18 1    
    19   18   19 1    
    20   18   27 1    
    21   19   20 2    
    22   20   21 1    
    23   21   22 ar   
    24   21   27 ar   
    25   22   23 1    
    26   22   24 ar   
    27   24   25 ar   
    28   25   26 ar   
    29   26   27 ar   
@<TRIPOS>SUBSTRUCTURE
     1 ADP402      1 GROUP   
@<TRIPOS>SET
ATOM$ORANGE STATIC     ATOMS   COLORGROUP SYSTEM 
20 10 10 11 11 13 13 15 15 17 17 19 19 21 21 22 22 25 \
25 27 27 

