#    Name: 5yu8_5_ADP
#    Modification time : Fri May 22 19:26:55 2020

@<TRIPOS>MOLECULE
5yu8_5_ADP
   27    29     1     0     1
SMALL
NO_CHARGES


@<TRIPOS>ATOM
      1 PB        175.4730  188.8450  292.7350 P.3       1 ADP402      0.0000 
      2 O1B       175.5960  190.0040  291.8380 O.co2     1 ADP402      0.0000 
      3 O2B       174.6370  189.2550  293.9020 O.co2     1 ADP402      0.0000 
      4 O3B       175.0840  187.5040  292.0630 O.co2     1 ADP402      0.0000 
      5 PA        178.2540  189.4810  293.4320 P.3       1 ADP402      0.0000 
      6 O1A       178.9920  189.6870  292.1700 O.co2     1 ADP402      0.0000 
      7 O2A       177.9070  190.7320  294.1670 O.co2     1 ADP402      0.0000 
      8 O3A       176.9580  188.5990  293.2540 O.3       1 ADP402      0.0000 
      9 O5'       179.2260  188.5590  294.3150 O.3       1 ADP402      0.0000 
     10 C5'       178.7790  188.2190  295.6690 C.3       1 ADP402      0.0000 
     11 C4'       179.4170  186.8640  295.9940 C.3       1 ADP402      0.0000 
     12 O4'       180.8590  187.0250  295.8780 O.3       1 ADP402      0.0000 
     13 C3'       179.1160  186.4130  297.4460 C.3       1 ADP402      0.0000 
     14 O3'       178.9170  184.9810  297.3960 O.3       1 ADP402      0.0000 
     15 C2'       180.4460  186.7030  298.1550 C.3       1 ADP402      0.0000 
     16 O2'       180.6910  185.8440  299.2840 O.3       1 ADP402      0.0000 
     17 C1'       181.4570  186.5830  297.0520 C.3       1 ADP402      0.0000 
     18 N9        182.7210  187.2560  297.2830 N.pl3     1 ADP402      0.0000 
     19 C8        182.9450  188.5690  297.5740 C.2       1 ADP402      0.0000 
     20 N7        184.1900  188.9090  297.7820 N.2       1 ADP402      0.0000 
     21 C5        184.8270  187.7590  297.5940 C.ar      1 ADP402      0.0000 
     22 C6        186.1700  187.4670  297.6840 C.ar      1 ADP402      0.0000 
     23 N6        187.1000  188.3860  297.9810 N.pl3     1 ADP402      0.0000 
     24 N1        186.5090  186.2010  297.4630 N.ar      1 ADP402      0.0000 
     25 C2        185.5720  185.2250  297.1500 C.ar      1 ADP402      0.0000 
     26 N3        184.2630  185.4180  297.0590 N.ar      1 ADP402      0.0000 
     27 C4        183.9880  186.7150  297.2970 C.ar      1 ADP402      0.0000 
@<TRIPOS>BOND
     1    1    2 ar   
     2    1    3 ar   
     3    1    4 ar   
     4    1    8 1    
     5    5    6 ar   
     6    5    7 ar   
     7    5    8 1    
     8    5    9 1    
     9    9   10 1    
    10   10   11 1    
    11   11   12 1    
    12   11   13 1    
    13   12   17 1    
    14   13   14 1    
    15   13   15 1    
    16   15   16 1    
    17   15   17 1    
    18   17   18 1    
    19   18   19 1    
    20   18   27 1    
    21   19   20 2    
    22   20   21 1    
    23   21   22 ar   
    24   21   27 ar   
    25   22   23 1    
    26   22   24 ar   
    27   24   25 ar   
    28   25   26 ar   
    29   26   27 ar   
@<TRIPOS>SUBSTRUCTURE
     1 ADP402      1 GROUP   
@<TRIPOS>SET
ATOM$ORANGE STATIC     ATOMS   COLORGROUP SYSTEM 
20 10 10 11 11 13 13 15 15 17 17 19 19 21 21 22 22 25 \
25 27 27 

