#    Name: 5yu8_1_ADP
#    Modification time : Fri May 22 19:26:21 2020

@<TRIPOS>MOLECULE
5yu8_1_ADP
   27    29     1     0     1
SMALL
NO_CHARGES


@<TRIPOS>ATOM
      1 PB        188.8680  175.3280  182.3350 P.3       1 ADP402      0.0000 
      2 O1B       190.0070  175.5770  181.4380 O.co2     1 ADP402      0.0000 
      3 O2B       188.9940  176.2510  183.5020 O.co2     1 ADP402      0.0000 
      4 O3B       187.4730  175.2740  181.6630 O.co2     1 ADP402      0.0000 
      5 PA        190.3500  172.8900  183.0320 P.3       1 ADP402      0.0000 
      6 O1A       190.7780  172.2550  181.7700 O.co2     1 ADP402      0.0000 
      7 O2A       191.4270  173.6140  183.7670 O.co2     1 ADP402      0.0000 
      8 O3A       189.1040  173.8420  182.8540 O.3       1 ADP402      0.0000 
      9 O5'       189.7820  171.6770  183.9150 O.3       1 ADP402      0.0000 
     10 C5'       189.3180  171.9940  185.2690 C.3       1 ADP402      0.0000 
     11 C4'       188.2340  170.9610  185.5940 C.3       1 ADP402      0.0000 
     12 O4'       188.8420  169.6430  185.4780 O.3       1 ADP402      0.0000 
     13 C3'       187.7110  171.1040  187.0460 C.3       1 ADP402      0.0000 
     14 O3'       186.2890  170.8410  186.9960 O.3       1 ADP402      0.0000 
     15 C2'       188.4060  169.9330  187.7550 C.3       1 ADP402      0.0000 
     16 O2'       187.6680  169.4300  188.8840 O.3       1 ADP402      0.0000 
     17 C1'       188.6110  168.9360  186.6520 C.3       1 ADP402      0.0000 
     18 N9        189.6490  167.9490  186.8830 N.pl3     1 ADP402      0.0000 
     19 C8        190.9650  168.1510  187.1740 C.2       1 ADP402      0.0000 
     20 N7        191.6810  167.0770  187.3820 N.2       1 ADP402      0.0000 
     21 C5        190.7900  166.1100  187.1940 C.ar      1 ADP402      0.0000 
     22 C6        190.9370  164.7430  187.2840 C.ar      1 ADP402      0.0000 
     23 N6        192.1030  164.1510  187.5810 N.pl3     1 ADP402      0.0000 
     24 N1        189.8430  164.0220  187.0630 N.ar      1 ADP402      0.0000 
     25 C2        188.6210  164.6030  186.7500 C.ar      1 ADP402      0.0000 
     26 N3        188.3910  165.9060  186.6590 N.ar      1 ADP402      0.0000 
     27 C4        189.5350  166.5760  186.8970 C.ar      1 ADP402      0.0000 
@<TRIPOS>BOND
     1    1    2 ar   
     2    1    3 ar   
     3    1    4 ar   
     4    1    8 1    
     5    5    6 ar   
     6    5    7 ar   
     7    5    8 1    
     8    5    9 1    
     9    9   10 1    
    10   10   11 1    
    11   11   12 1    
    12   11   13 1    
    13   12   17 1    
    14   13   14 1    
    15   13   15 1    
    16   15   16 1    
    17   15   17 1    
    18   17   18 1    
    19   18   19 1    
    20   18   27 1    
    21   19   20 2    
    22   20   21 1    
    23   21   22 ar   
    24   21   27 ar   
    25   22   23 1    
    26   22   24 ar   
    27   24   25 ar   
    28   25   26 ar   
    29   26   27 ar   
@<TRIPOS>SUBSTRUCTURE
     1 ADP402      1 GROUP   
@<TRIPOS>SET
ATOM$ORANGE STATIC     ATOMS   COLORGROUP SYSTEM 
20 10 10 11 11 13 13 15 15 17 17 19 19 21 21 22 22 25 \
25 27 27 

