#    Name: 5yu8_3_ADP
#    Modification time : Fri May 22 19:26:41 2020

@<TRIPOS>MOLECULE
5yu8_3_ADP
   27    29     1     0     1
SMALL
NO_CHARGES


@<TRIPOS>ATOM
      1 PB        184.3530  184.2490  237.5350 P.3       1 ADP402      0.0000 
      2 O1B       185.1320  185.1180  236.6380 O.co2     1 ADP402      0.0000 
      3 O2B       183.9160  185.0720  238.7020 O.co2     1 ADP402      0.0000 
      4 O3B       183.2540  183.3900  236.8630 O.co2     1 ADP402      0.0000 
      5 PA        186.9820  183.1390  238.2320 P.3       1 ADP402      0.0000 
      6 O1A       187.7000  182.8740  236.9700 O.co2     1 ADP402      0.0000 
      7 O2A       187.4320  184.3560  238.9670 O.co2     1 ADP402      0.0000 
      8 O3A       185.4140  183.1820  238.0540 O.3       1 ADP402      0.0000 
      9 O5'       187.2300  181.8230  239.1150 O.3       1 ADP402      0.0000 
     10 C5'       186.6690  181.8090  240.4690 C.3       1 ADP402      0.0000 
     11 C4'       186.3940  180.3370  240.7940 C.3       1 ADP402      0.0000 
     12 O4'       187.6580  179.6230  240.6780 O.3       1 ADP402      0.0000 
     13 C3'       185.8860  180.1470  242.2460 C.3       1 ADP402      0.0000 
     14 O3'       184.8860  179.1020  242.1960 O.3       1 ADP402      0.0000 
     15 C2'       187.1350  179.6040  242.9550 C.3       1 ADP402      0.0000 
     16 O2'       186.8300  178.7640  244.0840 O.3       1 ADP402      0.0000 
     17 C1'       187.8840  178.9150  241.8520 C.3       1 ADP402      0.0000 
     18 N9        189.3030  178.7210  242.0830 N.pl3     1 ADP402      0.0000 
     19 C8        190.2520  179.6550  242.3740 C.2       1 ADP402      0.0000 
     20 N7        191.4610  179.2030  242.5820 N.2       1 ADP402      0.0000 
     21 C5        191.3040  177.8970  242.3940 C.ar      1 ADP402      0.0000 
     22 C6        192.2230  176.8750  242.4840 C.ar      1 ADP402      0.0000 
     23 N6        193.5150  177.0770  242.7810 N.pl3     1 ADP402      0.0000 
     24 N1        191.7580  175.6500  242.2630 N.ar      1 ADP402      0.0000 
     25 C2        190.4270  175.4060  241.9500 C.ar      1 ADP402      0.0000 
     26 N3        189.4780  176.3290  241.8590 N.ar      1 ADP402      0.0000 
     27 C4        190.0140  177.5410  242.0970 C.ar      1 ADP402      0.0000 
@<TRIPOS>BOND
     1    1    2 ar   
     2    1    3 ar   
     3    1    4 ar   
     4    1    8 1    
     5    5    6 ar   
     6    5    7 ar   
     7    5    8 1    
     8    5    9 1    
     9    9   10 1    
    10   10   11 1    
    11   11   12 1    
    12   11   13 1    
    13   12   17 1    
    14   13   14 1    
    15   13   15 1    
    16   15   16 1    
    17   15   17 1    
    18   17   18 1    
    19   18   19 1    
    20   18   27 1    
    21   19   20 2    
    22   20   21 1    
    23   21   22 ar   
    24   21   27 ar   
    25   22   23 1    
    26   22   24 ar   
    27   24   25 ar   
    28   25   26 ar   
    29   26   27 ar   
@<TRIPOS>SUBSTRUCTURE
     1 ADP402      1 GROUP   
@<TRIPOS>SET
ATOM$ORANGE STATIC     ATOMS   COLORGROUP SYSTEM 
20 10 10 11 11 13 13 15 15 17 17 19 19 21 21 22 22 25 \
25 27 27 

