#    Name: 5yu8_2_ADP
#    Modification time : Fri May 22 19:26:31 2020

@<TRIPOS>MOLECULE
5yu8_2_ADP
   27    29     1     0     1
SMALL
NO_CHARGES


@<TRIPOS>ATOM
      1 PB        158.2870  165.4560  209.9350 P.3       1 ADP402      0.0000 
      2 O1B       157.2790  164.8690  209.0380 O.co2     1 ADP402      0.0000 
      3 O2B       158.4510  164.5390  211.1020 O.co2     1 ADP402      0.0000 
      4 O3B       159.5980  165.9360  209.2630 O.co2     1 ADP402      0.0000 
      5 PA        156.1270  167.3200  210.6320 P.3       1 ADP402      0.0000 
      6 O1A       155.5250  167.7930  209.3700 O.co2     1 ADP402      0.0000 
      7 O2A       155.3250  166.3000  211.3670 O.co2     1 ADP402      0.0000 
      8 O3A       157.6050  166.7970  210.4540 O.3       1 ADP402      0.0000 
      9 O5'       156.2950  168.6490  211.5150 O.3       1 ADP402      0.0000 
     10 C5'       156.8340  168.4900  212.8690 C.3       1 ADP402      0.0000 
     11 C4'       157.5480  169.8060  213.1940 C.3       1 ADP402      0.0000 
     12 O4'       156.5640  170.8740  213.0780 O.3       1 ADP402      0.0000 
     13 C3'       158.0890  169.8310  214.6460 C.3       1 ADP402      0.0000 
     14 O3'       159.3620  170.5180  214.5960 O.3       1 ADP402      0.0000 
     15 C2'       157.0680  170.7320  215.3550 C.3       1 ADP402      0.0000 
     16 O2'       157.6160  171.4370  216.4840 O.3       1 ADP402      0.0000 
     17 C1'       156.5670  171.6170  214.2520 C.3       1 ADP402      0.0000 
     18 N9        155.2760  172.2380  214.4830 N.pl3     1 ADP402      0.0000 
     19 C8        154.0850  171.6410  214.7740 C.2       1 ADP402      0.0000 
     20 N7        153.0740  172.4430  214.9820 N.2       1 ADP402      0.0000 
     21 C5        153.6250  173.6370  214.7940 C.ar      1 ADP402      0.0000 
     22 C6        153.0650  174.8920  214.8840 C.ar      1 ADP402      0.0000 
     23 N6        151.7730  175.0970  215.1810 N.pl3     1 ADP402      0.0000 
     24 N1        153.8840  175.9150  214.6630 N.ar      1 ADP402      0.0000 
     25 C2        155.2250  175.7380  214.3500 C.ar      1 ADP402      0.0000 
     26 N3        155.8450  174.5680  214.2590 N.ar      1 ADP402      0.0000 
     27 C4        154.9620  173.5790  214.4970 C.ar      1 ADP402      0.0000 
@<TRIPOS>BOND
     1    1    2 ar   
     2    1    3 ar   
     3    1    4 ar   
     4    1    8 1    
     5    5    6 ar   
     6    5    7 ar   
     7    5    8 1    
     8    5    9 1    
     9    9   10 1    
    10   10   11 1    
    11   11   12 1    
    12   11   13 1    
    13   12   17 1    
    14   13   14 1    
    15   13   15 1    
    16   15   16 1    
    17   15   17 1    
    18   17   18 1    
    19   18   19 1    
    20   18   27 1    
    21   19   20 2    
    22   20   21 1    
    23   21   22 ar   
    24   21   27 ar   
    25   22   23 1    
    26   22   24 ar   
    27   24   25 ar   
    28   25   26 ar   
    29   26   27 ar   
@<TRIPOS>SUBSTRUCTURE
     1 ADP402      1 GROUP   
@<TRIPOS>SET
ATOM$ORANGE STATIC     ATOMS   COLORGROUP SYSTEM 
20 10 10 11 11 13 13 15 15 17 17 19 19 21 21 22 22 25 \
25 27 27 

