#    Name: 6o4b_8_NAD_CAVITY_N1_4
#    Modification time : Fri May 22 19:29:46 2020

@<TRIPOS>MOLECULE
6o4b_8_NAD_CAVITY_N1_4
   60     0     5     0     0
SMALL
NO_CHARGES


@<TRIPOS>ATOM
      1 N          40.8600  142.0900   57.4000 N.am      1 ALA2        0.0000 
      2 O          40.3200  141.7900   59.4300 O.2       1 ALA2        0.0000 
      3 N          38.8600  142.6000   56.9400 N.am      1 ALA2        0.0000 
      4 N          39.8900  143.6400   58.4800 N.am      1 ALA2        0.0000 
      5 N          39.1500  144.0400   57.2400 N.am      1 ALA2        0.0000 
      6 O          41.7500  146.4100   58.2900 O.2       1 ALA2        0.0000 
      7 O          40.4800  146.5200   59.0800 O.2       1 ALA2        0.0000 
      8 O          43.3300  147.7500   57.8000 O.2       1 ALA2        0.0000 
      9 O          42.0500  147.8600   58.5900 O.2       1 ALA2        0.0000 
     10 NZ         37.8800  144.1400   58.0200 N.4       2 LYS4        0.0000 
     11 NZ         38.9100  145.1800   59.5600 N.4       2 LYS4        0.0000 
     12 NZ         39.2000  146.6200   59.8600 N.4       2 LYS4        0.0000 
     13 NZ         38.4700  147.0200   58.6200 N.4       2 LYS4        0.0000 
     14 NZ         37.9300  146.7200   60.6400 N.4       2 LYS4        0.0000 
     15 NZ         37.4900  148.5700   59.7000 N.4       2 LYS4        0.0000 
     16 CZ         40.6200  143.2300   59.7300 C.ar      3 PHE5        0.0000 
     17 CZ         38.6100  143.7400   59.2700 C.ar      3 PHE5        0.0000 
     18 CZ         41.6500  144.2600   61.2700 C.ar      3 PHE5        0.0000 
     19 CZ         40.9200  144.6700   60.0200 C.ar      3 PHE5        0.0000 
     20 CZ         39.6400  144.7700   60.8100 C.ar      3 PHE5        0.0000 
     21 CZ         43.2200  145.6000   60.7800 C.ar      3 PHE5        0.0000 
     22 CZ         41.2100  146.1100   60.3200 C.ar      3 PHE5        0.0000 
     23 CZ         39.9400  146.2100   61.1000 C.ar      3 PHE5        0.0000 
     24 CZ         44.7900  146.9400   60.2900 C.ar      3 PHE5        0.0000 
     25 CZ         42.7800  147.4500   59.8300 C.ar      3 PHE5        0.0000 
     26 CZ         41.5100  147.5500   60.6200 C.ar      3 PHE5        0.0000 
     27 CZ         40.9700  147.2400   62.6400 C.ar      3 PHE5        0.0000 
     28 CZ         40.2300  147.6500   61.4000 C.ar      3 PHE5        0.0000 
     29 CZ         43.8100  148.4800   61.3700 C.ar      3 PHE5        0.0000 
     30 CZ         42.5400  148.5800   62.1600 C.ar      3 PHE5        0.0000 
     31 CZ         41.9900  148.2700   64.1800 C.ar      3 PHE5        0.0000 
     32 CZ         41.2600  148.6800   62.9400 C.ar      3 PHE5        0.0000 
     33 CZ         43.5700  149.6100   63.7000 C.ar      3 PHE5        0.0000 
     34 CA         40.5700  140.6500   57.1000 C.3       4 GLY6        0.0000 
     35 CA         39.5900  142.2000   58.1800 C.3       4 GLY6        0.0000 
     36 CA         38.3100  142.3000   58.9700 C.3       4 GLY6        0.0000 
     37 CA         41.8900  143.1300   58.9400 C.3       4 GLY6        0.0000 
     38 CA         41.1600  143.5300   57.7000 C.3       4 GLY6        0.0000 
     39 CA         42.9200  144.1600   60.4800 C.3       4 GLY6        0.0000 
     40 CA         42.1900  144.5700   59.2400 C.3       4 GLY6        0.0000 
     41 CA         41.4600  144.9700   57.9900 C.3       4 GLY6        0.0000 
     42 CA         40.1800  145.0800   58.7800 C.3       4 GLY6        0.0000 
     43 CA         39.4500  145.4800   57.5300 C.3       4 GLY6        0.0000 
     44 CA         45.0400  145.8100   57.9700 C.3       4 GLY6        0.0000 
     45 CA         44.4900  145.5000   60.0000 C.3       4 GLY6        0.0000 
     46 CA         43.7600  145.9100   58.7500 C.3       4 GLY6        0.0000 
     47 CA         43.0300  146.3100   57.5100 C.3       4 GLY6        0.0000 
     48 CA         42.4900  146.0100   59.5400 C.3       4 GLY6        0.0000 
     49 CA         45.3300  147.2500   58.2600 C.3       4 GLY6        0.0000 
     50 CA         40.7800  147.9600   59.3700 C.3       4 GLY6        0.0000 
     51 CA         39.5000  148.0600   60.1600 C.3       4 GLY6        0.0000 
     52 CA         38.7700  148.4600   58.9100 C.3       4 GLY6        0.0000 
     53 DU         44.0600  147.3500   59.0500 H         5 CUB7        0.0000 
     54 DU         44.3500  148.7900   59.3500 H         5 CUB7        0.0000 
     55 DU         43.6200  149.1900   58.1000 H         5 CUB7        0.0000 
     56 DU         43.0800  148.8900   60.1300 H         5 CUB7        0.0000 
     57 DU         40.5300  149.0900   61.7000 H         5 CUB7        0.0000 
     58 DU         39.8000  149.5000   60.4500 H         5 CUB7        0.0000 
     59 DU         42.8300  150.0200   62.4500 H         5 CUB7        0.0000 
     60 DU         41.5600  150.1200   63.2400 H         5 CUB7        0.0000 
@<TRIPOS>BOND
@<TRIPOS>SUBSTRUCTURE
     1 ALA2        1 GROUP   
     2 LYS4       10 GROUP   
     3 PHE5       16 GROUP   
     4 GLY6       34 GROUP   
     5 CUB7       53 GROUP   
@<TRIPOS>SET

