#    Name: 6o4b_8_NAD
#    Modification time : Fri May 22 19:29:43 2020

@<TRIPOS>MOLECULE
6o4b_8_NAD
   44    48     1     0     1
SMALL
NO_CHARGES


@<TRIPOS>ATOM
      1 PA         43.6500  148.6580   57.3560 P.3       1 NAD601      0.0000 
      2 O1A        42.8680  148.7730   56.0590 O.co2     1 NAD601      0.0000 
      3 O2A        43.5090  149.8560   58.2680 O.co2     1 NAD601      0.0000 
      4 O5B        45.2130  148.4200   56.9900 O.3       1 NAD601      0.0000 
      5 C5B        45.5070  147.1510   56.4300 C.3       1 NAD601      0.0000 
      6 C4B        46.8390  147.2900   55.6460 C.3       1 NAD601      0.0000 
      7 O4B        46.7000  148.1490   54.6720 O.3       1 NAD601      0.0000 
      8 C3B        47.9420  147.8330   56.5450 C.3       1 NAD601      0.0000 
      9 O3B        49.1100  147.1990   56.2360 O.3       1 NAD601      0.0000 
     10 C2B        48.0390  149.3250   56.1340 C.3       1 NAD601      0.0000 
     11 O2B        49.4130  149.8340   56.4390 O.3       1 NAD601      0.0000 
     12 C1B        47.8280  149.2720   54.8610 C.3       1 NAD601      0.0000 
     13 N9A        47.3770  150.4990   54.3280 N.pl3     1 NAD601      0.0000 
     14 C8A        46.8130  151.5310   54.9900 C.2       1 NAD601      0.0000 
     15 N7A        46.5500  152.4940   54.0860 N.2       1 NAD601      0.0000 
     16 C5A        46.9680  152.0570   52.8650 C.ar      1 NAD601      0.0000 
     17 C6A        46.9240  152.6400   51.6180 C.ar      1 NAD601      0.0000 
     18 N6A        46.3990  153.9430   51.3660 N.pl3     1 NAD601      0.0000 
     19 N1A        47.3990  151.9870   50.5400 N.ar      1 NAD601      0.0000 
     20 C2A        47.9120  150.7280   50.6960 C.ar      1 NAD601      0.0000 
     21 N3A        47.9480  150.1450   51.9290 N.ar      1 NAD601      0.0000 
     22 C4A        47.4710  150.8220   53.0110 C.ar      1 NAD601      0.0000 
     23 O3         43.1500  147.3240   58.1050 O.3       1 NAD601      0.0000 
     24 PN         43.5130  146.8150   59.5870 P.3       1 NAD601      0.0000 
     25 O1N        42.9410  147.8080   60.5880 O.co2     1 NAD601      0.0000 
     26 O2N        45.0240  146.6710   59.7550 O.co2     1 NAD601      0.0000 
     27 O5D        42.8650  145.3610   59.7720 O.3       1 NAD601      0.0000 
     28 C5D        41.4790  145.2280   60.0690 C.3       1 NAD601      0.0000 
     29 C4D        40.7200  145.0630   58.7430 C.3       1 NAD601      0.0000 
     30 O4D        41.2640  144.0940   58.0270 O.3       1 NAD601      0.0000 
     31 C3D        39.2830  144.6500   59.0290 C.3       1 NAD601      0.0000 
     32 O3D        38.4440  145.2380   58.1470 O.3       1 NAD601      0.0000 
     33 C2D        39.3280  143.1260   58.7720 C.3       1 NAD601      0.0000 
     34 O2D        37.9850  142.6140   58.4570 O.3       1 NAD601      0.0000 
     35 C1D        40.0840  143.0420   57.7340 C.3       1 NAD601      0.0000 
     36 N1N        40.6000  141.7130   57.6170 N.pl3     1 NAD601      0.0000 
     37 C2N        40.1650  140.9100   56.5890 C.ar      1 NAD601      0.0000 
     38 C3N        40.6800  139.6190   56.4810 C.ar      1 NAD601      0.0000 
     39 C7N        40.1800  138.7040   55.3350 C.2       1 NAD601      0.0000 
     40 O7N        40.7190  137.6340   55.1650 O.2       1 NAD601      0.0000 
     41 N7N        39.0710  139.1290   54.5020 N.am      1 NAD601      0.0000 
     42 C4N        41.6080  139.1520   57.3840 C.ar      1 NAD601      0.0000 
     43 C5N        42.0440  139.9690   58.4080 C.ar      1 NAD601      0.0000 
     44 C6N        41.5310  141.2600   58.5160 C.ar      1 NAD601      0.0000 
@<TRIPOS>BOND
     1    1    2 ar   
     2    1    3 ar   
     3    1    4 1    
     4    1   23 1    
     5    4    5 1    
     6    5    6 1    
     7    6    7 1    
     8    6    8 1    
     9    7   12 1    
    10    8    9 1    
    11    8   10 1    
    12   10   11 1    
    13   10   12 1    
    14   12   13 1    
    15   13   14 1    
    16   13   22 1    
    17   14   15 2    
    18   15   16 1    
    19   16   17 ar   
    20   16   22 ar   
    21   17   18 1    
    22   17   19 ar   
    23   19   20 ar   
    24   20   21 ar   
    25   21   22 ar   
    26   23   24 1    
    27   24   25 ar   
    28   24   26 ar   
    29   24   27 1    
    30   27   28 1    
    31   28   29 1    
    32   29   30 1    
    33   29   31 1    
    34   30   35 1    
    35   31   32 1    
    36   31   33 1    
    37   33   34 1    
    38   33   35 1    
    39   35   36 1    
    40   36   37 ar   
    41   36   44 ar   
    42   37   38 ar   
    43   38   39 1    
    44   38   42 ar   
    45   39   40 2    
    46   39   41 am   
    47   42   43 ar   
    48   43   44 ar   
@<TRIPOS>SUBSTRUCTURE
     1 NAD601      1 GROUP   
@<TRIPOS>SET
ATOM$ORANGE STATIC     ATOMS   COLORGROUP SYSTEM 
42 5 5 6 6 8 8 10 10 12 12 14 14 16 16 17 17 20 \
20 22 22 28 28 29 29 31 31 33 33 35 35 37 37 38 38 39 \
39 42 42 43 43 44 44 

