#    Name: 6o4b_6_NAD_CAVITY_N1_4
#    Modification time : Fri May 22 19:29:36 2020

@<TRIPOS>MOLECULE
6o4b_6_NAD_CAVITY_N1_4
   66     0     5     0     0
SMALL
NO_CHARGES


@<TRIPOS>ATOM
      1 O          59.5900   88.0600   43.1500 O.2       1 ALA2        0.0000 
      2 O          60.4300   89.8000   41.4200 O.2       1 ALA2        0.0000 
      3 O          59.7000   90.2100   40.1700 O.2       1 ALA2        0.0000 
      4 N          59.2600   92.0600   39.2300 N.am      1 ALA2        0.0000 
      5 N          59.5600   93.5000   39.5200 N.am      1 ALA2        0.0000 
      6 N          58.8300   93.9100   38.2800 N.am      1 ALA2        0.0000 
      7 N          58.2800   93.6000   40.3100 N.am      1 ALA2        0.0000 
      8 O          61.8600   94.4300   40.2800 O.2       1 ALA2        0.0000 
      9 N          60.5900   94.5300   41.0600 N.am      1 ALA2        0.0000 
     10 N          57.8500   95.4500   39.3600 N.am      1 ALA2        0.0000 
     11 O          60.8800   95.9700   41.3600 O.2       1 ALA2        0.0000 
     12 N          56.8700   96.9900   40.4400 N.am      1 ALA2        0.0000 
     13 N          59.1700   97.9200   41.2000 N.am      1 ALA2        0.0000 
     14 N          59.4700   99.3600   41.4900 N.am      1 ALA2        0.0000 
     15 NZ         60.9200   87.5400   36.7700 N.4       2 LYS4        0.0000 
     16 NZ         61.9500   88.5700   38.3100 N.4       2 LYS4        0.0000 
     17 NZ         60.2400   90.5200   38.1400 N.4       2 LYS4        0.0000 
     18 NZ         60.5400   91.9600   38.4400 N.4       2 LYS4        0.0000 
     19 CZ         65.4200   87.2500   41.2600 C.ar      3 PHE5        0.0000 
     20 CZ         64.1500   87.3500   42.0400 C.ar      3 PHE5        0.0000 
     21 CZ         65.7200   88.6900   41.5500 C.ar      3 PHE5        0.0000 
     22 CZ         64.9900   89.0900   40.3100 C.ar      3 PHE5        0.0000 
     23 CZ         63.7100   89.1900   41.0900 C.ar      3 PHE5        0.0000 
     24 CZ         62.9800   89.6000   39.8500 C.ar      3 PHE5        0.0000 
     25 CZ         62.2500   90.0100   38.6000 C.ar      3 PHE5        0.0000 
     26 CZ         63.1700   88.8900   43.1200 C.ar      3 PHE5        0.0000 
     27 CZ         62.4400   89.3000   41.8800 C.ar      3 PHE5        0.0000 
     28 CZ         61.9000   88.9900   43.9000 C.ar      3 PHE5        0.0000 
     29 CZ         61.1600   89.4000   42.6600 C.ar      3 PHE5        0.0000 
     30 CZ         62.7400   90.7400   42.1700 C.ar      3 PHE5        0.0000 
     31 CZ         62.0000   91.1400   40.9300 C.ar      3 PHE5        0.0000 
     32 CZ         61.2700   91.5500   39.6900 C.ar      3 PHE5        0.0000 
     33 CZ         62.3000   92.5800   41.2300 C.ar      3 PHE5        0.0000 
     34 CZ         61.5700   92.9900   39.9800 C.ar      3 PHE5        0.0000 
     35 CZ         60.8300   93.4000   38.7400 C.ar      3 PHE5        0.0000 
     36 CZ         57.1700   98.4300   40.7400 C.ar      3 PHE5        0.0000 
     37 CA         64.6900   87.6500   40.0100 C.3       4 GLY6        0.0000 
     38 CA         61.4100   88.2600   40.3400 C.3       4 GLY6        0.0000 
     39 CA         60.6800   88.6700   39.0900 C.3       4 GLY6        0.0000 
     40 CA         59.9400   89.0800   37.8500 C.3       4 GLY6        0.0000 
     41 CA         60.1300   88.3600   41.1200 C.3       4 GLY6        0.0000 
     42 CA         60.9700   90.1100   39.3900 C.3       4 GLY6        0.0000 
     43 CA         59.8900   89.5000   43.4400 C.3       4 GLY6        0.0000 
     44 CA         59.1600   89.9000   42.2000 C.3       4 GLY6        0.0000 
     45 CA         61.4600   90.8400   42.9600 C.3       4 GLY6        0.0000 
     46 CA         60.7300   91.2400   41.7100 C.3       4 GLY6        0.0000 
     47 CA         60.0000   91.6500   40.4700 C.3       4 GLY6        0.0000 
     48 CA         58.5300   92.4700   37.9800 C.3       4 GLY6        0.0000 
     49 CA         59.4500   91.3400   42.5000 C.3       4 GLY6        0.0000 
     50 CA         61.0200   92.6800   42.0100 C.3       4 GLY6        0.0000 
     51 CA         60.2900   93.0900   40.7700 C.3       4 GLY6        0.0000 
     52 CA         59.0200   93.1900   41.5500 C.3       4 GLY6        0.0000 
     53 CA         59.8600   94.9400   39.8200 C.3       4 GLY6        0.0000 
     54 CA         59.3100   94.6300   41.8500 C.3       4 GLY6        0.0000 
     55 CA         58.5800   95.0400   40.6000 C.3       4 GLY6        0.0000 
     56 CA         59.6100   96.0700   42.1400 C.3       4 GLY6        0.0000 
     57 CA         58.8800   96.4800   40.9000 C.3       4 GLY6        0.0000 
     58 CA         58.1400   96.8900   39.6600 C.3       4 GLY6        0.0000 
     59 CA         57.4100   97.2900   38.4100 C.3       4 GLY6        0.0000 
     60 CA         58.2000   99.4600   42.2800 C.3       4 GLY6        0.0000 
     61 DU         62.3900   86.7200   39.2500 H         5 CUB7        0.0000 
     62 DU         63.4200   87.7500   40.8000 H         5 CUB7        0.0000 
     63 DU         62.6800   88.1600   39.5500 H         5 CUB7        0.0000 
     64 DU         62.1400   87.8500   41.5800 H         5 CUB7        0.0000 
     65 DU         60.8700   87.9600   42.3600 H         5 CUB7        0.0000 
     66 DU         61.7100   89.7000   40.6300 H         5 CUB7        0.0000 
@<TRIPOS>BOND
@<TRIPOS>SUBSTRUCTURE
     1 ALA2        1 GROUP   
     2 LYS4       15 GROUP   
     3 PHE5       19 GROUP   
     4 GLY6       37 GROUP   
     5 CUB7       61 GROUP   
@<TRIPOS>SET

