#    Name: 6o4b_4_NAD
#    Modification time : Fri May 22 19:29:25 2020

@<TRIPOS>MOLECULE
6o4b_4_NAD
   44    48     1     0     1
SMALL
NO_CHARGES


@<TRIPOS>ATOM
      1 PA         35.9070    9.1760   59.3490 P.3       1 NAD601      0.0000 
      2 O1A        36.6400    8.9290   58.0530 O.co2     1 NAD601      0.0000 
      3 O2A        35.9190    8.0000   60.2980 O.co2     1 NAD601      0.0000 
      4 O5B        34.3560    9.5280   58.9960 O.3       1 NAD601      0.0000 
      5 C5B        34.1130   10.6880   58.2050 C.3       1 NAD601      0.0000 
      6 C4B        32.7640   10.5080   57.4340 C.3       1 NAD601      0.0000 
      7 O4B        32.9130    9.6120   56.4910 O.3       1 NAD601      0.0000 
      8 C3B        31.6650    9.9920   58.3650 C.3       1 NAD601      0.0000 
      9 O3B        30.4840   10.6480   58.1320 O.3       1 NAD601      0.0000 
     10 C2B        31.5730    8.4890   57.9840 C.3       1 NAD601      0.0000 
     11 O2B        30.2160    7.9850   58.3250 O.3       1 NAD601      0.0000 
     12 C1B        31.7760    8.4960   56.7050 C.3       1 NAD601      0.0000 
     13 N9A        32.2360    7.2560   56.1930 N.pl3     1 NAD601      0.0000 
     14 C8A        32.7370    6.2270   56.8970 C.2       1 NAD601      0.0000 
     15 N7A        33.0360    5.2340   56.0310 N.2       1 NAD601      0.0000 
     16 C5A        32.7220    5.6480   54.7860 C.ar      1 NAD601      0.0000 
     17 C6A        32.8480    5.0200   53.5620 C.ar      1 NAD601      0.0000 
     18 N6A        33.3720    3.6930   53.3810 N.pl3     1 NAD601      0.0000 
     19 N1A        32.4580    5.6550   52.4430 N.ar      1 NAD601      0.0000 
     20 C2A        31.9510    6.9220   52.5290 C.ar      1 NAD601      0.0000 
     21 N3A        31.8350    7.5380   53.7410 N.ar      1 NAD601      0.0000 
     22 C4A        32.2290    6.8960   54.8760 C.ar      1 NAD601      0.0000 
     23 O3         36.5690   10.4320   60.0830 O.3       1 NAD601      0.0000 
     24 PN         36.0670   10.9940   61.5000 P.3       1 NAD601      0.0000 
     25 O1N        36.5040   10.0270   62.5900 O.co2     1 NAD601      0.0000 
     26 O2N        34.5510   11.1540   61.4990 O.co2     1 NAD601      0.0000 
     27 O5D        36.7400   12.4320   61.7290 O.3       1 NAD601      0.0000 
     28 C5D        38.1390   12.5450   61.9810 C.3       1 NAD601      0.0000 
     29 C4D        38.9010   12.7320   60.6540 C.3       1 NAD601      0.0000 
     30 O4D        38.3520   13.6910   59.9380 O.3       1 NAD601      0.0000 
     31 C3D        40.3310   13.1660   60.9380 C.3       1 NAD601      0.0000 
     32 O3D        41.1850   12.4120   60.2040 O.3       1 NAD601      0.0000 
     33 C2D        40.3310   14.6660   60.5200 C.3       1 NAD601      0.0000 
     34 O2D        41.6730   15.1340   60.1210 O.3       1 NAD601      0.0000 
     35 C1D        39.5160   14.7190   59.5190 C.3       1 NAD601      0.0000 
     36 N1N        38.9960   16.0560   59.3470 N.pl3     1 NAD601      0.0000 
     37 C2N        39.4430   16.8400   58.2990 C.ar      1 NAD601      0.0000 
     38 C3N        38.9430   18.1380   58.1390 C.ar      1 NAD601      0.0000 
     39 C7N        39.4440   19.0310   56.9650 C.2       1 NAD601      0.0000 
     40 O7N        38.8610   20.0690   56.7240 O.2       1 NAD601      0.0000 
     41 N7N        40.5940   18.6390   56.1760 N.am      1 NAD601      0.0000 
     42 C4N        38.0050   18.6290   59.0240 C.ar      1 NAD601      0.0000 
     43 C5N        37.5600   17.8430   60.0700 C.ar      1 NAD601      0.0000 
     44 C6N        38.0620   16.5500   60.2200 C.ar      1 NAD601      0.0000 
@<TRIPOS>BOND
     1    1    2 ar   
     2    1    3 ar   
     3    1    4 1    
     4    1   23 1    
     5    4    5 1    
     6    5    6 1    
     7    6    7 1    
     8    6    8 1    
     9    7   12 1    
    10    8    9 1    
    11    8   10 1    
    12   10   11 1    
    13   10   12 1    
    14   12   13 1    
    15   13   14 1    
    16   13   22 1    
    17   14   15 2    
    18   15   16 1    
    19   16   17 ar   
    20   16   22 ar   
    21   17   18 1    
    22   17   19 ar   
    23   19   20 ar   
    24   20   21 ar   
    25   21   22 ar   
    26   23   24 1    
    27   24   25 ar   
    28   24   26 ar   
    29   24   27 1    
    30   27   28 1    
    31   28   29 1    
    32   29   30 1    
    33   29   31 1    
    34   30   35 1    
    35   31   32 1    
    36   31   33 1    
    37   33   34 1    
    38   33   35 1    
    39   35   36 1    
    40   36   37 ar   
    41   36   44 ar   
    42   37   38 ar   
    43   38   39 1    
    44   38   42 ar   
    45   39   40 2    
    46   39   41 am   
    47   42   43 ar   
    48   43   44 ar   
@<TRIPOS>SUBSTRUCTURE
     1 NAD601      1 GROUP   
@<TRIPOS>SET
ATOM$ORANGE STATIC     ATOMS   COLORGROUP SYSTEM 
42 5 5 6 6 8 8 10 10 12 12 14 14 16 16 17 17 20 \
20 22 22 28 28 29 29 31 31 33 33 35 35 37 37 38 38 39 \
39 42 42 43 43 44 44 

