#    Name: 6o4b_6_NAD
#    Modification time : Fri May 22 19:29:34 2020

@<TRIPOS>MOLECULE
6o4b_6_NAD
   44    48     1     0     1
SMALL
NO_CHARGES


@<TRIPOS>ATOM
      1 PA         58.9100   87.6770   43.3030 P.3       1 NAD601      0.0000 
      2 O1A        57.7440   87.4820   42.3620 O.co2     1 NAD601      0.0000 
      3 O2A        59.8340   86.4770   43.3380 O.co2     1 NAD601      0.0000 
      4 O5B        58.3710   87.9670   44.7990 O.3       1 NAD601      0.0000 
      5 C5B        57.5800   89.1460   44.9490 C.3       1 NAD601      0.0000 
      6 C4B        56.8350   89.0030   46.2960 C.3       1 NAD601      0.0000 
      7 O4B        55.9280   88.0740   46.1320 O.3       1 NAD601      0.0000 
      8 C3B        57.7770   88.4840   47.3870 C.3       1 NAD601      0.0000 
      9 O3B        57.4710   89.0840   48.5660 O.3       1 NAD601      0.0000 
     10 C2B        57.4210   86.9810   47.4970 C.3       1 NAD601      0.0000 
     11 O2B        57.7950   86.4670   48.8480 O.3       1 NAD601      0.0000 
     12 C1B        56.1270   86.9980   47.2960 C.3       1 NAD601      0.0000 
     13 N9A        55.6370   85.7720   46.7960 N.pl3     1 NAD601      0.0000 
     14 C8A        56.3420   84.7610   46.2480 C.2       1 NAD601      0.0000 
     15 N7A        55.4660   83.7840   45.9120 N.2       1 NAD601      0.0000 
     16 C5A        54.2290   84.1990   46.2540 C.ar      1 NAD601      0.0000 
     17 C6A        52.9950   83.5970   46.1280 C.ar      1 NAD601      0.0000 
     18 N6A        52.7820   82.3020   45.5570 N.pl3     1 NAD601      0.0000 
     19 N1A        51.8980   84.2310   46.5530 N.ar      1 NAD601      0.0000 
     20 C2A        51.9980   85.4830   47.0960 C.ar      1 NAD601      0.0000 
     21 N3A        53.2180   86.0730   47.2270 N.ar      1 NAD601      0.0000 
     22 C4A        54.3280   85.4220   46.7990 C.ar      1 NAD601      0.0000 
     23 O3         59.6710   89.0180   42.8480 O.3       1 NAD601      0.0000 
     24 PN         61.1480   89.5060   43.2860 P.3       1 NAD601      0.0000 
     25 O1N        62.1230   88.4560   42.7750 O.co2     1 NAD601      0.0000 
     26 O2N        61.2580   89.7060   44.7960 O.co2     1 NAD601      0.0000 
     27 O5D        61.3850   90.9000   42.5220 O.3       1 NAD601      0.0000 
     28 C5D        61.6740   90.9120   41.1240 C.3       1 NAD601      0.0000 
     29 C4D        60.4060   91.0940   40.2590 C.3       1 NAD601      0.0000 
     30 O4D        59.6260   92.0380   40.7630 O.3       1 NAD601      0.0000 
     31 C3D        60.8140   91.5700   38.8650 C.3       1 NAD601      0.0000 
     32 O3D        60.0520   91.0230   37.8850 O.3       1 NAD601      0.0000 
     33 C2D        60.5510   93.0950   38.9420 C.3       1 NAD601      0.0000 
     34 O2D        60.4070   93.6840   37.5890 O.3       1 NAD601      0.0000 
     35 C1D        59.4420   93.1450   39.6100 C.3       1 NAD601      0.0000 
     36 N1N        59.2710   94.4550   40.1690 N.pl3     1 NAD601      0.0000 
     37 C2N        58.2470   95.2590   39.7040 C.ar      1 NAD601      0.0000 
     38 C3N        58.1040   96.5350   40.2460 C.ar      1 NAD601      0.0000 
     39 C7N        56.9760   97.4840   39.7560 C.2       1 NAD601      0.0000 
     40 O7N        56.7770   98.4850   40.4140 O.2       1 NAD601      0.0000 
     41 N7N        56.1900   97.2050   38.5570 N.am      1 NAD601      0.0000 
     42 C4N        58.9720   96.9780   41.2280 C.ar      1 NAD601      0.0000 
     43 C5N        59.9890   96.1640   41.6950 C.ar      1 NAD601      0.0000 
     44 C6N        60.1300   94.8910   41.1460 C.ar      1 NAD601      0.0000 
@<TRIPOS>BOND
     1    1    2 ar   
     2    1    3 ar   
     3    1    4 1    
     4    1   23 1    
     5    4    5 1    
     6    5    6 1    
     7    6    7 1    
     8    6    8 1    
     9    7   12 1    
    10    8    9 1    
    11    8   10 1    
    12   10   11 1    
    13   10   12 1    
    14   12   13 1    
    15   13   14 1    
    16   13   22 1    
    17   14   15 2    
    18   15   16 1    
    19   16   17 ar   
    20   16   22 ar   
    21   17   18 1    
    22   17   19 ar   
    23   19   20 ar   
    24   20   21 ar   
    25   21   22 ar   
    26   23   24 1    
    27   24   25 ar   
    28   24   26 ar   
    29   24   27 1    
    30   27   28 1    
    31   28   29 1    
    32   29   30 1    
    33   29   31 1    
    34   30   35 1    
    35   31   32 1    
    36   31   33 1    
    37   33   34 1    
    38   33   35 1    
    39   35   36 1    
    40   36   37 ar   
    41   36   44 ar   
    42   37   38 ar   
    43   38   39 1    
    44   38   42 ar   
    45   39   40 2    
    46   39   41 am   
    47   42   43 ar   
    48   43   44 ar   
@<TRIPOS>SUBSTRUCTURE
     1 NAD601      1 GROUP   
@<TRIPOS>SET
ATOM$ORANGE STATIC     ATOMS   COLORGROUP SYSTEM 
42 5 5 6 6 8 8 10 10 12 12 14 14 16 16 17 17 20 \
20 22 22 28 28 29 29 31 31 33 33 35 35 37 37 38 38 39 \
39 42 42 43 43 44 44 

