#    Name: 6k0g_1_NAD
#    Modification time : Fri May 22 19:36:19 2020

@<TRIPOS>MOLECULE
6k0g_1_NAD
   44    48     1     0     1
SMALL
NO_CHARGES


@<TRIPOS>ATOM
      1 PA          9.5240   15.9400  -11.8380 P.3       1 NAD402      0.0000 
      2 O1A         9.8880   14.6500  -12.4560 O.co2     1 NAD402      0.0000 
      3 O2A         9.8520   17.1580  -12.5920 O.co2     1 NAD402      0.0000 
      4 O5B        10.1240   16.1740  -10.3940 O.3       1 NAD402      0.0000 
      5 C5B        10.5420   15.0590   -9.6150 C.3       1 NAD402      0.0000 
      6 C4B        12.0430   15.1260   -9.3330 C.3       1 NAD402      0.0000 
      7 O4B        12.4760   14.0170   -8.4650 O.3       1 NAD402      0.0000 
      8 C3B        12.9060   15.0630  -10.6080 C.3       1 NAD402      0.0000 
      9 O3B        13.7730   16.2120  -10.6540 O.3       1 NAD402      0.0000 
     10 C2B        13.6620   13.7680  -10.4560 C.3       1 NAD402      0.0000 
     11 O2B        14.9390   13.7910  -11.0000 O.3       1 NAD402      0.0000 
     12 C1B        13.7340   13.6000   -8.9370 C.3       1 NAD402      0.0000 
     13 N9A        13.8180   12.2510   -8.4070 N.pl3     1 NAD402      0.0000 
     14 C8A        12.9690   11.2250   -8.6300 C.2       1 NAD402      0.0000 
     15 N7A        13.3180   10.1410   -7.9090 N.2       1 NAD402      0.0000 
     16 C5A        14.3910   10.5280   -7.1890 C.ar      1 NAD402      0.0000 
     17 C6A        15.2700    9.9180   -6.1790 C.ar      1 NAD402      0.0000 
     18 N6A        15.0500    8.6780   -5.8140 N.pl3     1 NAD402      0.0000 
     19 N1A        16.2450   10.6150   -5.5960 N.ar      1 NAD402      0.0000 
     20 C2A        16.4810   11.8970   -5.9310 C.ar      1 NAD402      0.0000 
     21 N3A        15.7740   12.5040   -6.9100 N.ar      1 NAD402      0.0000 
     22 C4A        14.6870   11.9140   -7.4900 C.ar      1 NAD402      0.0000 
     23 O3          7.9550   15.8730  -11.5690 O.3       1 NAD402      0.0000 
     24 PN          6.9950   16.9820  -10.9200 P.3       1 NAD402      0.0000 
     25 O1N         7.7780   18.1200  -10.4020 O.co2     1 NAD402      0.0000 
     26 O2N         5.9600   17.1550  -11.9900 O.co2     1 NAD402      0.0000 
     27 O5D         6.3010   16.1860   -9.7040 O.3       1 NAD402      0.0000 
     28 C5D         6.9090   16.2930   -8.3870 C.3       1 NAD402      0.0000 
     29 C4D         6.1470   15.4120   -7.4560 C.3       1 NAD402      0.0000 
     30 O4D         4.7760   15.7630   -7.5000 O.3       1 NAD402      0.0000 
     31 C3D         6.2380   13.8920   -7.8100 C.3       1 NAD402      0.0000 
     32 O3D         6.2660   13.1580   -6.5800 O.3       1 NAD402      0.0000 
     33 C2D         4.9490   13.6800   -8.4930 C.3       1 NAD402      0.0000 
     34 O2D         4.5300   12.3050   -8.3770 O.3       1 NAD402      0.0000 
     35 C1D         3.9820   14.6040   -7.7880 C.3       1 NAD402      0.0000 
     36 N1N         2.8090   14.9850   -8.5880 N.pl3     1 NAD402      0.0000 
     37 C2N         2.9420   15.5140   -9.8490 C.ar      1 NAD402      0.0000 
     38 C3N         1.8200   15.8720  -10.5730 C.ar      1 NAD402      0.0000 
     39 C7N         2.0510   16.4280  -11.9880 C.2       1 NAD402      0.0000 
     40 O7N         3.1930   16.8180  -12.3940 O.2       1 NAD402      0.0000 
     41 N7N         1.0170   16.4250  -12.6810 N.am      1 NAD402      0.0000 
     42 C4N         0.5300   15.6290  -10.0340 C.ar      1 NAD402      0.0000 
     43 C5N         0.3930   15.0800   -8.7240 C.ar      1 NAD402      0.0000 
     44 C6N         1.5650   14.7740   -8.0450 C.ar      1 NAD402      0.0000 
@<TRIPOS>BOND
     1    1    2 ar   
     2    1    3 ar   
     3    1    4 1    
     4    1   23 1    
     5    4    5 1    
     6    5    6 1    
     7    6    7 1    
     8    6    8 1    
     9    7   12 1    
    10    8    9 1    
    11    8   10 1    
    12   10   11 1    
    13   10   12 1    
    14   12   13 1    
    15   13   14 1    
    16   13   22 1    
    17   14   15 2    
    18   15   16 1    
    19   16   17 ar   
    20   16   22 ar   
    21   17   18 1    
    22   17   19 ar   
    23   19   20 ar   
    24   20   21 ar   
    25   21   22 ar   
    26   23   24 1    
    27   24   25 ar   
    28   24   26 ar   
    29   24   27 1    
    30   27   28 1    
    31   28   29 1    
    32   29   30 1    
    33   29   31 1    
    34   30   35 1    
    35   31   32 1    
    36   31   33 1    
    37   33   34 1    
    38   33   35 1    
    39   35   36 1    
    40   36   37 ar   
    41   36   44 ar   
    42   37   38 ar   
    43   38   39 1    
    44   38   42 ar   
    45   39   40 2    
    46   39   41 am   
    47   42   43 ar   
    48   43   44 ar   
@<TRIPOS>SUBSTRUCTURE
     1 NAD402      1 GROUP   
@<TRIPOS>SET
ATOM$ORANGE STATIC     ATOMS   COLORGROUP SYSTEM 
42 5 5 6 6 8 8 10 10 12 12 14 14 16 16 17 17 20 \
20 22 22 28 28 29 29 31 31 33 33 35 35 37 37 38 38 39 \
39 42 42 43 43 44 44 

