#    Name: 6iuy_4_NAD_CAVITY_N1_4
#    Modification time : Fri May 22 19:30:04 2020

@<TRIPOS>MOLECULE
6iuy_4_NAD_CAVITY_N1_4
   77     0     5     0     0
SMALL
NO_CHARGES


@<TRIPOS>ATOM
      1 N         -34.0000   12.5300  -15.0400 N.am      1 ALA2        0.0000 
      2 N         -35.2000   13.3600  -14.6900 N.am      1 ALA2        0.0000 
      3 N         -33.9600   11.9900  -13.6500 N.am      1 ALA2        0.0000 
      4 N         -35.1500   12.8200  -13.2900 N.am      1 ALA2        0.0000 
      5 O         -36.3100   13.1100  -11.5300 O.2       1 ALA2        0.0000 
      6 O         -36.2700   12.5600  -10.1300 O.2       1 ALA2        0.0000 
      7 N         -34.3300   15.0300  -15.6700 N.am      1 ALA2        0.0000 
      8 N         -31.9000   12.8300  -14.9900 N.am      1 ALA2        0.0000 
      9 O         -33.0500   13.1100  -13.2400 O.2       1 ALA2        0.0000 
     10 N         -33.4300   16.1600  -15.2600 N.am      1 ALA2        0.0000 
     11 N         -37.0200   18.6500  -14.1900 N.am      1 ALA2        0.0000 
     12 N         -32.1900   14.7800  -14.2200 N.am      1 ALA2        0.0000 
     13 N         -36.9800   18.1000  -12.7900 N.am      1 ALA2        0.0000 
     14 N         -38.1800   18.9300  -12.4300 N.am      1 ALA2        0.0000 
     15 N         -32.1500   14.2400  -12.8300 N.am      1 ALA2        0.0000 
     16 O         -38.1300   18.3900  -11.0300 O.2       1 ALA2        0.0000 
     17 O         -39.2900   18.6800   -9.2800 O.2       1 ALA2        0.0000 
     18 N         -31.2900   15.9100  -13.8100 N.am      1 ALA2        0.0000 
     19 O         -32.7800   18.6900  -12.6900 O.2       1 ALA2        0.0000 
     20 N         -31.8800   19.8200  -12.2800 N.am      1 ALA2        0.0000 
     21 OD1       -34.2100   13.4000  -11.4800 O.co2     2 ASP3        0.0000 
     22 OD1       -35.4100   14.2300  -11.1200 O.co2     2 ASP3        0.0000 
     23 OD1       -36.6000   15.0600  -10.7600 O.co2     2 ASP3        0.0000 
     24 OD1       -35.3600   13.6900   -9.7200 O.co2     2 ASP3        0.0000 
     25 OD1       -34.5900   16.4400  -13.5100 O.co2     2 ASP3        0.0000 
     26 OD1       -33.3500   15.0700  -12.4700 O.co2     2 ASP3        0.0000 
     27 OD1       -34.5400   15.9000  -12.1100 O.co2     2 ASP3        0.0000 
     28 OD1       -35.7400   16.7300  -11.7500 O.co2     2 ASP3        0.0000 
     29 OD1       -36.9400   17.5600  -11.3900 O.co2     2 ASP3        0.0000 
     30 OD1       -36.9000   17.0200  -10.0000 O.co2     2 ASP3        0.0000 
     31 OD1       -34.9200   18.9400  -14.1400 O.co2     2 ASP3        0.0000 
     32 OD1       -36.1200   19.7700  -13.7800 O.co2     2 ASP3        0.0000 
     33 OD1       -33.6800   17.5700  -13.1000 O.co2     2 ASP3        0.0000 
     34 OD1       -34.8800   18.4000  -12.7400 O.co2     2 ASP3        0.0000 
     35 OD1       -32.4400   16.2000  -12.0600 O.co2     2 ASP3        0.0000 
     36 OD1       -36.0300   18.6900  -10.9800 O.co2     2 ASP3        0.0000 
     37 OD1       -37.1900   18.9700   -9.2300 O.co2     2 ASP3        0.0000 
     38 OD1       -34.0200   20.0700  -13.7300 O.co2     2 ASP3        0.0000 
     39 OD1       -35.2100   20.9000  -13.3700 O.co2     2 ASP3        0.0000 
     40 OD1       -33.9800   19.5200  -12.3300 O.co2     2 ASP3        0.0000 
     41 OD1       -35.1700   20.3500  -11.9700 O.co2     2 ASP3        0.0000 
     42 OD1       -33.9300   18.9800  -10.9300 O.co2     2 ASP3        0.0000 
     43 OD1       -35.1300   19.8100  -10.5700 O.co2     2 ASP3        0.0000 
     44 CZ        -34.2900   14.4900  -14.2800 C.ar      3 PHE5        0.0000 
     45 CZ        -35.4900   15.3200  -13.9200 C.ar      3 PHE5        0.0000 
     46 CZ        -35.8200   17.8200  -14.5500 C.ar      3 PHE5        0.0000 
     47 CA        -35.0700   11.7300  -10.4900 C.3       4 GLY6        0.0000 
     48 CA        -33.1400   14.2000  -16.0300 C.3       4 GLY6        0.0000 
     49 CA        -33.1000   13.6600  -14.6300 C.3       4 GLY6        0.0000 
     50 CA        -37.8800   16.9800  -13.2000 C.3       4 GLY6        0.0000 
     51 CA        -35.4500   14.7800  -12.5200 C.3       4 GLY6        0.0000 
     52 CA        -37.8400   16.4400  -11.8000 C.3       4 GLY6        0.0000 
     53 CA        -40.1500   17.0100   -8.2900 C.3       4 GLY6        0.0000 
     54 CA        -34.6300   16.9900  -14.9000 C.3       4 GLY6        0.0000 
     55 CA        -35.7800   17.2700  -13.1500 C.3       4 GLY6        0.0000 
     56 CA        -38.0900   17.8500   -9.6400 C.3       4 GLY6        0.0000 
     57 CA        -38.0500   17.3100   -8.2400 C.3       4 GLY6        0.0000 
     58 CA        -39.2500   18.1400   -7.8800 C.3       4 GLY6        0.0000 
     59 CA        -32.5300   17.2800  -14.8500 C.3       4 GLY6        0.0000 
     60 CA        -33.7200   18.1100  -14.5000 C.3       4 GLY6        0.0000 
     61 CA        -32.4900   16.7400  -13.4600 C.3       4 GLY6        0.0000 
     62 CA        -37.2700   20.0600  -12.0200 C.3       4 GLY6        0.0000 
     63 CA        -37.2300   19.5200  -10.6200 C.3       4 GLY6        0.0000 
     64 CA        -38.4300   20.3500  -10.2700 C.3       4 GLY6        0.0000 
     65 CA        -38.3900   19.8000   -8.8700 C.3       4 GLY6        0.0000 
     66 CA        -38.3400   19.2600   -7.4700 C.3       4 GLY6        0.0000 
     67 CA        -31.6200   18.4100  -14.4400 C.3       4 GLY6        0.0000 
     68 CA        -32.8200   19.2400  -14.0900 C.3       4 GLY6        0.0000 
     69 CA        -31.5800   17.8600  -13.0500 C.3       4 GLY6        0.0000 
     70 CA        -36.3700   21.1800  -11.6100 C.3       4 GLY6        0.0000 
     71 CA        -36.3300   20.6400  -10.2100 C.3       4 GLY6        0.0000 
     72 CA        -36.2900   20.1000   -8.8200 C.3       4 GLY6        0.0000 
     73 CA        -37.4800   20.9300   -8.4600 C.3       4 GLY6        0.0000 
     74 DU        -35.1100   12.2800  -11.8900 H         5 CUB7        0.0000 
     75 DU        -34.2500   13.9500  -12.8800 H         5 CUB7        0.0000 
     76 DU        -33.3900   15.6100  -13.8700 H         5 CUB7        0.0000 
     77 DU        -36.0800   19.2300  -12.3800 H         5 CUB7        0.0000 
@<TRIPOS>BOND
@<TRIPOS>SUBSTRUCTURE
     1 ALA2        1 GROUP   
     2 ASP3       21 GROUP   
     3 PHE5       44 GROUP   
     4 GLY6       47 GROUP   
     5 CUB7       74 GROUP   
@<TRIPOS>SET

