#    Name: 6iuy_4_NAD
#    Modification time : Fri May 22 19:30:01 2020

@<TRIPOS>MOLECULE
6iuy_4_NAD
   70    74     1     0     1
SMALL
NO_CHARGES


@<TRIPOS>ATOM
      1 PA        -34.7630   11.8740   -8.4760 P.3       1 NAD701      0.0000 
      2 O1A       -33.6460   12.8460   -8.2130 O.co2     1 NAD701      0.0000 
      3 O2A       -36.1240   12.3670   -8.0460 O.co2     1 NAD701      0.0000 
      4 O5B       -34.5260   10.4760   -7.6780 O.3       1 NAD701      0.0000 
      5 C5B       -33.2530    9.8640   -7.5950 C.3       1 NAD701      0.0000 
      6 C4B       -33.3790    8.4560   -8.2770 C.3       1 NAD701      0.0000 
      7 O4B       -32.1920    7.9290   -8.3680 O.3       1 NAD701      0.0000 
      8 C3B       -34.1590    7.3810   -7.4940 C.3       1 NAD701      0.0000 
      9 O3B       -35.3840    7.1300   -8.0430 O.3       1 NAD701      0.0000 
     10 C2B       -33.2670    6.1140   -7.6360 C.3       1 NAD701      0.0000 
     11 O2B       -34.1260    4.8950   -7.8250 O.3       1 NAD701      0.0000 
     12 C1B       -32.5680    6.4060   -8.6940 C.3       1 NAD701      0.0000 
     13 N9A       -31.4110    5.5990   -8.9660 N.pl3     1 NAD701      0.0000 
     14 C8A       -31.0930    4.9410  -10.1310 C.2       1 NAD701      0.0000 
     15 N7A       -29.9060    4.2870   -9.9690 N.2       1 NAD701      0.0000 
     16 C5A       -29.5060    4.5540   -8.6870 C.ar      1 NAD701      0.0000 
     17 C6A       -28.3940    4.1670   -7.9710 C.ar      1 NAD701      0.0000 
     18 N6A       -27.3550    3.3290   -8.4550 N.pl3     1 NAD701      0.0000 
     19 N1A       -28.2270    4.5740   -6.7090 N.ar      1 NAD701      0.0000 
     20 C2A       -29.1550    5.3850   -6.1180 C.ar      1 NAD701      0.0000 
     21 N3A       -30.2580    5.7850   -6.8020 N.ar      1 NAD701      0.0000 
     22 C4A       -30.4180    5.3640   -8.0830 C.ar      1 NAD701      0.0000 
     23 O3        -34.9220   11.5020  -10.0120 O.3       1 NAD701      0.0000 
     24 PN        -35.6230   12.3520  -11.1730 P.3       1 NAD701      0.0000 
     25 O1N       -36.6250   11.5770  -12.0370 O.co2     1 NAD701      0.0000 
     26 O2N       -36.2840   13.6350  -10.6750 O.co2     1 NAD701      0.0000 
     27 O5D       -34.3520   12.6410  -12.0580 O.3       1 NAD701      0.0000 
     28 C5D       -34.6340   13.6890  -12.9110 C.3       1 NAD701      0.0000 
     29 C4D       -33.6180   13.7080  -14.0340 C.3       1 NAD701      0.0000 
     30 O4D       -34.2050   14.4740  -14.9040 O.3       1 NAD701      0.0000 
     31 C3D       -32.3910   14.4670  -13.5690 C.3       1 NAD701      0.0000 
     32 O3D       -31.4100   14.4020  -14.4760 O.3       1 NAD701      0.0000 
     33 C2D       -32.9310   15.9190  -13.5040 C.3       1 NAD701      0.0000 
     34 O2D       -31.7560   16.8290  -13.6380 O.3       1 NAD701      0.0000 
     35 C1D       -33.7990   15.9880  -14.4990 C.3       1 NAD701      0.0000 
     36 N1N       -35.0270   16.7250  -14.2390 N.pl3     1 NAD701      0.0000 
     37 C2N       -35.6730   16.7800  -13.0030 C.ar      1 NAD701      0.0000 
     38 C3N       -36.8350   17.5390  -12.8390 C.ar      1 NAD701      0.0000 
     39 C7N       -37.5290   17.5850  -11.4500 C.2       1 NAD701      0.0000 
     40 O7N       -38.3700   18.4190  -11.2150 O.2       1 NAD701      0.0000 
     41 N7N       -37.1810   16.6060  -10.4470 N.am      1 NAD701      0.0000 
     42 C4N       -37.3720   18.2200  -13.9060 C.ar      1 NAD701      0.0000 
     43 C5N       -36.7530   18.1540  -15.1420 C.ar      1 NAD701      0.0000 
     44 C6N       -35.5860   17.4070  -15.2990 C.ar      1 NAD701      0.0000 
     45 H51A      -32.9930    9.7580   -6.6580 H         1 NAD701      0.0000 
     46 H52A      -32.5890   10.4070   -8.0680 H         1 NAD701      0.0000 
     47 H4B       -33.7660    8.5560   -9.1750 H         1 NAD701      0.0000 
     48 H3B       -34.2470    7.6370   -6.5540 H         1 NAD701      0.0000 
     49 HO3A      -35.9100    6.7470   -7.4340 H         1 NAD701      0.0000 
     50 H2B       -32.6830    6.0110   -6.8520 H         1 NAD701      0.0000 
     51 HO2A      -34.2830    4.7790   -8.6780 H         1 NAD701      0.0000 
     52 H1B       -33.1700    6.3840   -9.4950 H         1 NAD701      0.0000 
     53 H8A       -31.6410    4.9370  -10.9560 H         1 NAD701      0.0000 
     54 H61A      -27.4690    2.4180   -8.4690 H         1 NAD701      0.0000 
     55 H62A      -26.5720    3.6970   -8.7520 H         1 NAD701      0.0000 
     56 H2A       -28.8910    5.5940   -5.1990 H         1 NAD701      0.0000 
     57 H51N      -35.5270   13.5730  -13.2830 H         1 NAD701      0.0000 
     58 H52N      -34.5920   14.5340  -12.4180 H         1 NAD701      0.0000 
     59 H4D       -33.4140   12.8240  -14.3810 H         1 NAD701      0.0000 
     60 H3D       -32.0870   14.1550  -12.6800 H         1 NAD701      0.0000 
     61 HO3N      -31.6760   14.7960  -15.2290 H         1 NAD701      0.0000 
     62 H2D       -33.3810   16.0730  -12.6550 H         1 NAD701      0.0000 
     63 HO2N      -31.7370   17.3860  -12.9590 H         1 NAD701      0.0000 
     64 H1D       -33.3480   16.4050  -15.2690 H         1 NAD701      0.0000 
     65 H2N       -35.2860   16.3060  -12.2290 H         1 NAD701      0.0000 
     66 H71N      -36.5450   15.9700  -10.6280 H         1 NAD701      0.0000 
     67 H72N      -37.5860   16.6260   -9.6310 H         1 NAD701      0.0000 
     68 H4N       -38.1980   18.7330  -13.7960 H         1 NAD701      0.0000 
     69 H5N       -37.1330   18.6400  -15.9100 H         1 NAD701      0.0000 
     70 H6N       -35.1460   17.3790  -16.1750 H         1 NAD701      0.0000 
@<TRIPOS>BOND
     1    1    2 ar   
     2    1    3 ar   
     3    1    4 1    
     4    1   23 1    
     5    4    5 1    
     6    5    6 1    
     7    5   45 1    
     8    5   46 1    
     9    6    7 1    
    10    6    8 1    
    11    6   47 1    
    12    7   12 1    
    13    8    9 1    
    14    8   10 1    
    15    8   48 1    
    16    9   49 1    
    17   10   11 1    
    18   10   12 1    
    19   10   50 1    
    20   12   52 1    
    21   12   13 1    
    22   11   51 1    
    23   13   14 1    
    24   13   22 1    
    25   14   15 2    
    26   14   53 1    
    27   15   16 1    
    28   16   17 ar   
    29   16   22 ar   
    30   17   18 1    
    31   17   19 ar   
    32   18   54 1    
    33   18   55 1    
    34   19   20 ar   
    35   20   21 ar   
    36   20   56 1    
    37   21   22 ar   
    38   23   24 1    
    39   24   25 ar   
    40   24   26 ar   
    41   24   27 1    
    42   27   28 1    
    43   28   29 1    
    44   28   57 1    
    45   28   58 1    
    46   29   30 1    
    47   29   31 1    
    48   29   59 1    
    49   30   35 1    
    50   31   32 1    
    51   31   33 1    
    52   31   60 1    
    53   32   61 1    
    54   33   34 1    
    55   33   35 1    
    56   33   62 1    
    57   35   64 1    
    58   35   36 1    
    59   34   63 1    
    60   36   37 ar   
    61   36   44 ar   
    62   37   38 ar   
    63   37   65 1    
    64   38   39 1    
    65   38   42 ar   
    66   39   40 2    
    67   39   41 am   
    68   41   66 1    
    69   42   43 ar   
    70   41   67 1    
    71   42   68 1    
    72   43   44 ar   
    73   43   69 1    
    74   44   70 1    
@<TRIPOS>SUBSTRUCTURE
     1 NAD701      1 GROUP   
@<TRIPOS>SET
ATOM$ORANGE STATIC     ATOMS   COLORGROUP SYSTEM 
42 5 5 6 6 8 8 10 10 12 12 14 14 16 16 17 17 20 \
20 22 22 28 28 29 29 31 31 33 33 35 35 37 37 38 38 39 \
39 42 42 43 43 44 44 

