#    Name: 6o5m_5_ACP
#    Modification time : Fri May 22 19:33:52 2020

@<TRIPOS>MOLECULE
6o5m_5_ACP
   31    33     1     0     1
SMALL
NO_CHARGES


@<TRIPOS>ATOM
      1 PG          8.3320  -49.4670  -93.7310 P.3       1 ACP402      0.0000 
      2 O1G         9.1800  -50.2370  -92.7480 O.co2     1 ACP402      0.0000 
      3 O2G         8.5200  -47.9880  -93.4970 O.co2     1 ACP402      0.0000 
      4 O3G         6.8790  -49.8240  -93.5260 O.co2     1 ACP402      0.0000 
      5 PB         10.6530  -49.6510  -95.7210 P.3       1 ACP402      0.0000 
      6 O1B        11.4180  -50.6450  -94.8800 O.co2     1 ACP402      0.0000 
      7 O2B        11.0200  -48.2510  -95.2890 O.co2     1 ACP402      0.0000 
      8 C3B         8.8230  -49.8890  -95.4760 C.3       1 ACP402      0.0000 
      9 PA         10.5900  -51.0360  -98.3390 P.3       1 ACP402      0.0000 
     10 O1A         9.3870  -51.7820  -97.8130 O.co2     1 ACP402      0.0000 
     11 O2A        11.7230  -52.0070  -98.5630 O.co2     1 ACP402      0.0000 
     12 O3A        11.0650  -49.8330  -97.3100 O.3       1 ACP402      0.0000 
     13 O5'        10.1940  -50.3370  -99.7760 O.3       1 ACP402      0.0000 
     14 C5'         9.9540  -48.9590  -99.7920 C.3       1 ACP402      0.0000 
     15 C4'         9.1930  -48.6180 -101.0970 C.3       1 ACP402      0.0000 
     16 O4'         9.8580  -49.0840 -102.1170 O.3       1 ACP402      0.0000 
     17 C3'         7.8360  -49.3470 -101.0980 C.3       1 ACP402      0.0000 
     18 O3'         6.8480  -48.4760 -100.7710 O.3       1 ACP402      0.0000 
     19 C2'         7.6410  -49.8500 -102.5400 C.3       1 ACP402      0.0000 
     20 O2'         6.7230  -48.9080 -103.2510 O.3       1 ACP402      0.0000 
     21 C1'         8.8250  -49.8510 -103.1020 C.3       1 ACP402      0.0000 
     22 N9          9.3150  -51.1880 -103.3540 N.pl3     1 ACP402      0.0000 
     23 C8         10.0360  -51.9720 -102.5460 C.2       1 ACP402      0.0000 
     24 N7         10.2810  -53.1210 -103.1860 N.2       1 ACP402      0.0000 
     25 C5          9.7150  -53.0470 -104.3980 C.ar      1 ACP402      0.0000 
     26 C6          9.6600  -53.9370 -105.4500 C.ar      1 ACP402      0.0000 
     27 N6         10.1850  -55.2750 -105.6500 N.pl3     1 ACP402      0.0000 
     28 N1          9.0220  -53.6060 -106.5600 N.ar      1 ACP402      0.0000 
     29 C2          8.4200  -52.3980 -106.6630 C.ar      1 ACP402      0.0000 
     30 N3          8.4740  -51.5250 -105.6330 N.ar      1 ACP402      0.0000 
     31 C4          9.1220  -51.8540 -104.5020 C.ar      1 ACP402      0.0000 
@<TRIPOS>BOND
     1    1    2 ar   
     2    1    3 ar   
     3    1    4 ar   
     4    1    8 1    
     5    5    6 ar   
     6    5    7 ar   
     7    5    8 1    
     8    5   12 1    
     9    9   10 ar   
    10    9   11 ar   
    11    9   12 1    
    12    9   13 1    
    13   13   14 1    
    14   14   15 1    
    15   15   16 1    
    16   15   17 1    
    17   16   21 1    
    18   17   18 1    
    19   17   19 1    
    20   19   20 1    
    21   19   21 1    
    22   21   22 1    
    23   22   23 1    
    24   22   31 1    
    25   23   24 2    
    26   24   25 1    
    27   25   26 ar   
    28   25   31 ar   
    29   26   27 1    
    30   26   28 ar   
    31   28   29 ar   
    32   29   30 ar   
    33   30   31 ar   
@<TRIPOS>SUBSTRUCTURE
     1 ACP402      1 GROUP   
@<TRIPOS>SET
ATOM$ORANGE STATIC     ATOMS   COLORGROUP SYSTEM 
22 8 8 14 14 15 15 17 17 19 19 21 21 23 23 25 25 26 \
26 29 29 31 31 

