#    Name: 6o5m_4_GTP
#    Modification time : Fri May 22 19:33:47 2020

@<TRIPOS>MOLECULE
6o5m_4_GTP
   32    34     1     0     1
SMALL
NO_CHARGES


@<TRIPOS>ATOM
      1 PG         26.5600   11.6060   44.7680 P.3       1 GTP501      0.0000 
      2 O1G        25.3700   11.7780   45.6820 O.co2     1 GTP501      0.0000 
      3 O2G        27.6940   10.9460   45.5170 O.co2     1 GTP501      0.0000 
      4 O3G        27.0200   12.9560   44.2710 O.co2     1 GTP501      0.0000 
      5 O3B        26.1450   10.6780   43.5160 O.3       1 GTP501      0.0000 
      6 PB         24.6650   10.0530   43.3870 P.3       1 GTP501      0.0000 
      7 O1B        24.6460    9.1030   42.2120 O.co2     1 GTP501      0.0000 
      8 O2B        24.2680    9.3400   44.6560 O.co2     1 GTP501      0.0000 
      9 O3A        23.6880   11.3020   43.0950 O.3       1 GTP501      0.0000 
     10 PA         22.1650   11.0720   42.6120 P.3       1 GTP501      0.0000 
     11 O1A        21.9010    9.6020   42.3890 O.co2     1 GTP501      0.0000 
     12 O2A        21.2000   11.6370   43.6280 O.co2     1 GTP501      0.0000 
     13 O5'        22.0590   11.8690   41.2150 O.3       1 GTP501      0.0000 
     14 C5'        21.3970   13.1120   41.1230 C.3       1 GTP501      0.0000 
     15 C4'        20.2410   13.0220   40.1310 C.3       1 GTP501      0.0000 
     16 O4'        19.5380   11.8120   40.3230 O.3       1 GTP501      0.0000 
     17 C3'        19.2440   14.1510   40.3210 C.3       1 GTP501      0.0000 
     18 O3'        19.0330   14.7850   39.0810 O.3       1 GTP501      0.0000 
     19 C2'        17.9620   13.4790   40.7640 C.3       1 GTP501      0.0000 
     20 O2'        16.8460   14.0680   40.1380 O.3       1 GTP501      0.0000 
     21 C1'        18.1420   12.0330   40.3360 C.3       1 GTP501      0.0000 
     22 N9         17.5410   11.0930   41.2970 N.pl3     1 GTP501      0.0000 
     23 C8         17.9860   10.8340   42.5670 C.2       1 GTP501      0.0000 
     24 N7         17.1810    9.8980   43.1200 N.2       1 GTP501      0.0000 
     25 C5         16.2370    9.5490   42.2180 C.2       1 GTP501      0.0000 
     26 C6         15.1830    8.6460   42.2700 C.2       1 GTP501      0.0000 
     27 O6         14.9830    7.9870   43.2880 O.2       1 GTP501      0.0000 
     28 N1         14.3610    8.4940   41.1710 N.am      1 GTP501      0.0000 
     29 C2         14.5920    9.2390   40.0310 C.2       1 GTP501      0.0000 
     30 N2         13.7990    9.0930   38.9730 N.pl3     1 GTP501      0.0000 
     31 N3         15.6430   10.1340   39.9880 N.2       1 GTP501      0.0000 
     32 C4         16.4530   10.2890   41.0650 C.2       1 GTP501      0.0000 
@<TRIPOS>BOND
     1    1    2 ar   
     2    1    3 ar   
     3    1    4 ar   
     4    1    5 1    
     5    5    6 1    
     6    6    7 ar   
     7    6    8 ar   
     8    6    9 1    
     9    9   10 1    
    10   10   11 ar   
    11   10   12 ar   
    12   10   13 1    
    13   13   14 1    
    14   14   15 1    
    15   15   16 1    
    16   15   17 1    
    17   16   21 1    
    18   17   18 1    
    19   17   19 1    
    20   19   20 1    
    21   19   21 1    
    22   21   22 1    
    23   22   23 1    
    24   22   32 1    
    25   23   24 2    
    26   24   25 1    
    27   25   26 1    
    28   25   32 2    
    29   26   27 2    
    30   26   28 am   
    31   28   29 1    
    32   29   30 1    
    33   29   31 2    
    34   31   32 1    
@<TRIPOS>SUBSTRUCTURE
     1 GTP501      1 GROUP   
@<TRIPOS>SET
ATOM$ORANGE STATIC     ATOMS   COLORGROUP SYSTEM 
20 14 14 15 15 17 17 19 19 21 21 23 23 25 25 26 26 29 \
29 32 32 

