#    Name: 6o5m_4_GTP_CAVITY_N1_ALL
#    Modification time : Fri May 22 19:33:49 2020

@<TRIPOS>MOLECULE
6o5m_4_GTP_CAVITY_N1_ALL
   98     0     6     0     0
SMALL
NO_CHARGES


@<TRIPOS>ATOM
      1 OG         20.5200   11.8800   40.2000 O.3       1 SER1        0.0000 
      2 OG         21.6400   12.7100   39.6500 O.3       1 SER1        0.0000 
      3 OG         19.5300   12.9100   39.7500 O.3       1 SER1        0.0000 
      4 OG         22.6300   10.5200   42.4300 O.3       1 SER1        0.0000 
      5 OG         21.6400   11.5500   41.9700 O.3       1 SER1        0.0000 
      6 OG         20.6500   12.5900   41.5200 O.3       1 SER1        0.0000 
      7 OG         17.4200   11.9600   42.1800 O.3       1 SER1        0.0000 
      8 OG         18.5400   12.7900   41.6200 O.3       1 SER1        0.0000 
      9 OG         17.5500   13.8200   41.1700 O.3       1 SER1        0.0000 
     10 OG         18.6700   14.6500   40.6100 O.3       1 SER1        0.0000 
     11 OG         18.6700   13.5000   42.9400 O.3       1 SER1        0.0000 
     12 OG         18.8000   15.3600   41.9300 O.3       1 SER1        0.0000 
     13 OG         25.9900   10.7000   45.4200 O.3       1 SER1        0.0000 
     14 OG         27.1100   11.5300   44.8600 O.3       1 SER1        0.0000 
     15 OG         17.6900   13.3700   44.8100 O.3       1 SER1        0.0000 
     16 OG         18.8100   14.2000   44.2600 O.3       1 SER1        0.0000 
     17 OG         19.9300   15.0300   43.7000 O.3       1 SER1        0.0000 
     18 OG         21.0500   15.8600   43.1400 O.3       1 SER1        0.0000 
     19 OG         17.8200   15.2300   43.8000 O.3       1 SER1        0.0000 
     20 OG         18.9400   16.0600   43.2400 O.3       1 SER1        0.0000 
     21 OG         21.1800   16.5700   44.4600 O.3       1 SER1        0.0000 
     22 N          14.9200    8.8900   40.6600 N.am      2 ALA2        0.0000 
     23 N          16.0400    9.7200   40.1000 N.am      2 ALA2        0.0000 
     24 N          17.1600   10.5500   39.5400 N.am      2 ALA2        0.0000 
     25 O          20.5200   13.0300   37.8800 O.2       2 ALA2        0.0000 
     26 O          18.4100   13.2400   37.9800 O.2       2 ALA2        0.0000 
     27 O          17.4200   14.2700   37.5200 O.2       2 ALA2        0.0000 
     28 O          18.4100   12.0800   40.3000 O.2       2 ALA2        0.0000 
     29 O          16.3000   12.2900   40.4100 O.2       2 ALA2        0.0000 
     30 O          17.4200   13.1200   39.8500 O.2       2 ALA2        0.0000 
     31 O          18.5400   13.9400   39.2900 O.2       2 ALA2        0.0000 
     32 O          23.6200    9.4900   42.8800 O.2       2 ALA2        0.0000 
     33 O          24.7400   10.3200   42.3300 O.2       2 ALA2        0.0000 
     34 O          21.5100    9.6900   42.9900 O.2       2 ALA2        0.0000 
     35 O          18.2800    9.0700   43.6400 O.2       2 ALA2        0.0000 
     36 O          19.4000    9.9000   43.0900 O.2       2 ALA2        0.0000 
     37 O          17.2900   10.1000   43.1900 O.2       2 ALA2        0.0000 
     38 O          21.7700   13.4200   40.9600 O.2       2 ALA2        0.0000 
     39 O          23.7500   10.2000   44.2000 O.2       2 ALA2        0.0000 
     40 O          24.8700   11.0300   43.6400 O.2       2 ALA2        0.0000 
     41 O          25.9900   11.8500   43.0900 O.2       2 ALA2        0.0000 
     42 O          22.8900   13.0900   42.7400 O.2       2 ALA2        0.0000 
     43 O          16.3000    9.9800   45.0600 O.2       2 ALA2        0.0000 
     44 O          18.5400   11.6400   43.9500 O.2       2 ALA2        0.0000 
     45 O          19.6600   12.4600   43.3900 O.2       2 ALA2        0.0000 
     46 O          21.9000   14.1200   42.2800 O.2       2 ALA2        0.0000 
     47 O          23.0200   14.9500   41.7200 O.2       2 ALA2        0.0000 
     48 O          25.0000   11.7300   44.9600 O.2       2 ALA2        0.0000 
     49 O          26.1200   12.5600   44.4100 O.2       2 ALA2        0.0000 
     50 N          22.8900   11.9300   45.0600 N.am      2 ALA2        0.0000 
     51 O          24.0100   12.7600   44.5100 O.2       2 ALA2        0.0000 
     52 N          21.9000   12.9700   44.6100 N.am      2 ALA2        0.0000 
     53 O          19.7900   13.1700   44.7100 O.2       2 ALA2        0.0000 
     54 O          22.0300   14.8300   43.6000 O.2       2 ALA2        0.0000 
     55 O          27.2400   12.2300   46.1800 O.2       2 ALA2        0.0000 
     56 O          25.1300   12.4400   46.2800 O.2       2 ALA2        0.0000 
     57 O          26.2500   13.2700   45.7200 O.2       2 ALA2        0.0000 
     58 N          23.0200   12.6400   46.3800 N.am      2 ALA2        0.0000 
     59 O          24.1400   13.4700   45.8200 O.2       2 ALA2        0.0000 
     60 O          27.3700   12.9400   47.4900 O.2       2 ALA2        0.0000 
     61 O          26.3800   13.9700   47.0400 O.2       2 ALA2        0.0000 
     62 NZ         20.6500   13.7400   39.1900 N.4       3 LYS4        0.0000 
     63 NZ         19.6600   14.7700   38.7400 N.4       3 LYS4        0.0000 
     64 NZ         19.6600   13.6200   41.0700 N.4       3 LYS4        0.0000 
     65 NZ         20.7800   14.4500   40.5100 N.4       3 LYS4        0.0000 
     66 NZ         19.7900   14.3200   42.3800 N.4       3 LYS4        0.0000 
     67 NZ         20.9100   15.1500   41.8300 N.4       3 LYS4        0.0000 
     68 NZ         26.3900   12.8200   49.3700 N.4       3 LYS4        0.0000 
     69 CZ         16.1700   10.4300   41.4200 C.ar      4 PHE5        0.0000 
     70 CZ         17.2900   11.2600   40.8600 C.ar      4 PHE5        0.0000 
     71 CZ         15.0500    8.4400   44.3000 C.ar      4 PHE5        0.0000 
     72 CZ         16.1700    9.2700   43.7400 C.ar      4 PHE5        0.0000 
     73 CZ         16.3000   11.1300   42.7300 C.ar      4 PHE5        0.0000 
     74 CZ         15.1800    9.1500   45.6200 C.ar      4 PHE5        0.0000 
     75 CA         18.2800   11.3800   38.9900 C.3       5 GLY6        0.0000 
     76 CA         19.4000   12.2100   38.4300 C.3       5 GLY6        0.0000 
     77 CA         19.5300   14.0700   37.4200 C.3       5 GLY6        0.0000 
     78 CA         16.0400    8.5700   42.4300 C.3       5 GLY6        0.0000 
     79 CA         17.1600    9.3900   41.8700 C.3       5 GLY6        0.0000 
     80 CA         19.4000   11.0500   40.7600 C.3       5 GLY6        0.0000 
     81 CA         17.5500   14.9800   38.8400 C.3       5 GLY6        0.0000 
     82 CA         23.7500   11.3500   41.8700 C.3       5 GLY6        0.0000 
     83 CA         17.1600    8.2400   44.2000 C.3       5 GLY6        0.0000 
     84 CA         20.5200   10.7300   42.5300 C.3       5 GLY6        0.0000 
     85 CA         22.7600   12.3800   41.4200 C.3       5 GLY6        0.0000 
     86 CA         18.4100   10.9300   42.6300 C.3       5 GLY6        0.0000 
     87 CA         19.5300   11.7600   42.0800 C.3       5 GLY6        0.0000 
     88 CA         25.8600    9.9900   44.1000 C.3       5 GLY6        0.0000 
     89 CA         22.7600   11.2300   43.7500 C.3       5 GLY6        0.0000 
     90 CA         23.8800   12.0600   43.1900 C.3       5 GLY6        0.0000 
     91 CA         15.0500    7.2900   46.6300 C.3       5 GLY6        0.0000 
     92 CA         16.1700    8.1200   46.0700 C.3       5 GLY6        0.0000 
     93 CA         20.6500   11.4300   43.8500 C.3       5 GLY6        0.0000 
     94 CA         14.0600    8.3200   46.1700 C.3       5 GLY6        0.0000 
     95 DU         21.7700   12.2600   43.2900 H         6 CUB7        0.0000 
     96 DU         20.7800   13.2900   42.8400 H         6 CUB7        0.0000 
     97 DU         20.9100   14.0000   44.1500 H         6 CUB7        0.0000 
     98 DU         25.2600   13.1400   47.6000 H         6 CUB7        0.0000 
@<TRIPOS>BOND
@<TRIPOS>SUBSTRUCTURE
     1 SER1        1 GROUP   
     2 ALA2       22 GROUP   
     3 LYS4       62 GROUP   
     4 PHE5       69 GROUP   
     5 GLY6       75 GROUP   
     6 CUB7       95 GROUP   
@<TRIPOS>SET

