#    Name: 6ko7_3_ET
#    Modification time : Fri May 22 19:32:46 2020

@<TRIPOS>MOLECULE
6ko7_3_ET
   24    27     1     0     0
SMALL
NO_CHARGES


@<TRIPOS>ATOM
      1 C1         14.6150  -15.3820   31.8900 C.ar      1 ET301       0.0000 
      2 C2         13.6970  -16.3860   32.0890 C.ar      1 ET301       0.0000 
      3 C3         12.5920  -16.1930   32.9750 C.ar      1 ET301       0.0000 
      4 C4         12.4370  -14.9600   33.6090 C.ar      1 ET301       0.0000 
      5 N5         13.2070  -12.7130   34.1090 N.pl3     1 ET301       0.0000 
      6 C6         14.1650  -11.7670   34.1010 C.ar      1 ET301       0.0000 
      7 C7         16.0880  -10.7660   32.9180 C.ar      1 ET301       0.0000 
      8 C8         17.0380  -10.7700   31.9280 C.ar      1 ET301       0.0000 
      9 C9         17.2400  -11.9500   31.2050 C.ar      1 ET301       0.0000 
     10 C10        16.4260  -13.0670   31.4150 C.ar      1 ET301       0.0000 
     11 C11        15.2640  -11.8590   33.1210 C.ar      1 ET301       0.0000 
     12 C12        15.4040  -13.0230   32.3570 C.ar      1 ET301       0.0000 
     13 C13        14.4770  -14.1380   32.5820 C.ar      1 ET301       0.0000 
     14 C14        13.3680  -13.9190   33.4000 C.ar      1 ET301       0.0000 
     15 C15        14.0230  -10.5020   34.8680 C.ar      1 ET301       0.0000 
     16 C16        14.7750  -10.2780   36.0220 C.ar      1 ET301       0.0000 
     17 C17        14.6930   -9.0790   36.6840 C.ar      1 ET301       0.0000 
     18 C18        13.8210   -8.1130   36.2480 C.ar      1 ET301       0.0000 
     19 C19        13.0860   -8.3060   35.1130 C.ar      1 ET301       0.0000 
     20 C20        13.1630   -9.5060   34.4180 C.ar      1 ET301       0.0000 
     21 C21        12.0170  -12.5150   35.0350 C.3       1 ET301       0.0000 
     22 C22        10.6800  -12.3230   34.3370 C.3       1 ET301       0.0000 
     23 N23        11.6850  -17.1920   33.1910 N.pl3     1 ET301       0.0000 
     24 N24        17.8460   -9.6800   31.7380 N.pl3     1 ET301       0.0000 
@<TRIPOS>BOND
     1    1    2 ar   
     2    1   13 ar   
     3    2    3 ar   
     4    3    4 ar   
     5    3   23 1    
     6    4   14 ar   
     7    5    6 ar   
     8    5   14 ar   
     9    5   21 1    
    10    6   11 ar   
    11    6   15 1    
    12    7    8 ar   
    13    7   11 ar   
    14    8    9 ar   
    15    8   24 1    
    16    9   10 ar   
    17   10   12 ar   
    18   11   12 ar   
    19   12   13 ar   
    20   13   14 ar   
    21   15   16 ar   
    22   15   20 ar   
    23   16   17 ar   
    24   17   18 ar   
    25   18   19 ar   
    26   19   20 ar   
    27   21   22 1    
@<TRIPOS>SUBSTRUCTURE
     1 ET301       1 GROUP   
@<TRIPOS>SET

