#    Name: 6ko7_2_ET
#    Modification time : Fri May 22 19:32:43 2020

@<TRIPOS>MOLECULE
6ko7_2_ET
   24    27     1     0     0
SMALL
NO_CHARGES


@<TRIPOS>ATOM
      1 C1        -14.0650    2.9530  -19.0950 C.ar      1 ET301       0.0000 
      2 C2        -13.2010    2.9390  -18.0070 C.ar      1 ET301       0.0000 
      3 C3        -12.0160    2.1330  -18.0370 C.ar      1 ET301       0.0000 
      4 C4        -11.7320    1.3560  -19.1740 C.ar      1 ET301       0.0000 
      5 N5        -12.2860    0.5630  -21.3980 N.pl3     1 ET301       0.0000 
      6 C6        -13.1540    0.4440  -22.4080 C.ar      1 ET301       0.0000 
      7 C7        -15.1200    1.3720  -23.6520 C.ar      1 ET301       0.0000 
      8 C8        -16.1640    2.3050  -23.7390 C.ar      1 ET301       0.0000 
      9 C9        -16.4960    3.0970  -22.6060 C.ar      1 ET301       0.0000 
     10 C10       -15.7520    2.9960  -21.4730 C.ar      1 ET301       0.0000 
     11 C11       -14.3700    1.2960  -22.4720 C.ar      1 ET301       0.0000 
     12 C12       -14.6800    2.1100  -21.3890 C.ar      1 ET301       0.0000 
     13 C13       -13.8110    2.1020  -20.2050 C.ar      1 ET301       0.0000 
     14 C14       -12.6030    1.3420  -20.2580 C.ar      1 ET301       0.0000 
     15 C15       -12.9710   -0.4860  -23.5650 C.ar      1 ET301       0.0000 
     16 C16       -13.6490   -1.7000  -23.5630 C.ar      1 ET301       0.0000 
     17 C17       -13.5700   -2.5320  -24.6600 C.ar      1 ET301       0.0000 
     18 C18       -12.7920   -2.2020  -25.7460 C.ar      1 ET301       0.0000 
     19 C19       -12.0940   -1.0170  -25.7530 C.ar      1 ET301       0.0000 
     20 C20       -12.2060   -0.1480  -24.6850 C.ar      1 ET301       0.0000 
     21 C21       -11.1180   -0.3560  -21.4350 C.3       1 ET301       0.0000 
     22 C22        -9.7870    0.2960  -21.6050 C.3       1 ET301       0.0000 
     23 N23       -11.1610    2.1010  -16.9820 N.pl3     1 ET301       0.0000 
     24 N24       -16.9200    2.3950  -24.8410 N.pl3     1 ET301       0.0000 
@<TRIPOS>BOND
     1    1    2 ar   
     2    1   13 ar   
     3    2    3 ar   
     4    3    4 ar   
     5    3   23 1    
     6    4   14 ar   
     7    5    6 ar   
     8    5   14 ar   
     9    5   21 1    
    10    6   11 ar   
    11    6   15 1    
    12    7    8 ar   
    13    7   11 ar   
    14    8    9 ar   
    15    8   24 1    
    16    9   10 ar   
    17   10   12 ar   
    18   11   12 ar   
    19   12   13 ar   
    20   13   14 ar   
    21   15   16 ar   
    22   15   20 ar   
    23   16   17 ar   
    24   17   18 ar   
    25   18   19 ar   
    26   19   20 ar   
    27   21   22 1    
@<TRIPOS>SUBSTRUCTURE
     1 ET301       1 GROUP   
@<TRIPOS>SET

