#    Name: 6ko7_4_ET
#    Modification time : Fri May 22 19:32:49 2020

@<TRIPOS>MOLECULE
6ko7_4_ET
   24    27     1     0     0
SMALL
NO_CHARGES


@<TRIPOS>ATOM
      1 C1         -3.9560   -2.4640   18.3390 C.ar      1 ET301       0.0000 
      2 C2         -3.1520   -2.4100   17.2270 C.ar      1 ET301       0.0000 
      3 C3         -1.9840   -1.5880   17.2070 C.ar      1 ET301       0.0000 
      4 C4         -1.6670   -0.7970   18.3490 C.ar      1 ET301       0.0000 
      5 N5         -2.2340   -0.0590   20.6370 N.pl3     1 ET301       0.0000 
      6 C6         -3.1230    0.0190   21.6700 C.ar      1 ET301       0.0000 
      7 C7         -4.9940   -0.9560   22.8930 C.ar      1 ET301       0.0000 
      8 C8         -6.0060   -1.9010   22.9690 C.ar      1 ET301       0.0000 
      9 C9         -6.3060   -2.7060   21.8520 C.ar      1 ET301       0.0000 
     10 C10        -5.5840   -2.5910   20.7200 C.ar      1 ET301       0.0000 
     11 C11        -4.2760   -0.8290   21.7150 C.ar      1 ET301       0.0000 
     12 C12        -4.5230   -1.7030   20.6480 C.ar      1 ET301       0.0000 
     13 C13        -3.6910   -1.6410   19.4550 C.ar      1 ET301       0.0000 
     14 C14        -2.5190   -0.8280   19.4910 C.ar      1 ET301       0.0000 
     15 C15        -2.9140    0.9180   22.8440 C.ar      1 ET301       0.0000 
     16 C16        -2.1360    0.5290   23.9380 C.ar      1 ET301       0.0000 
     17 C17        -1.9500    1.3890   25.0060 C.ar      1 ET301       0.0000 
     18 C18        -2.5840    2.6200   25.0430 C.ar      1 ET301       0.0000 
     19 C19        -3.3770    2.9980   23.9800 C.ar      1 ET301       0.0000 
     20 C20        -3.5520    2.1500   22.8900 C.ar      1 ET301       0.0000 
     21 C21        -0.9770    0.7750   20.7570 C.3       1 ET301       0.0000 
     22 C22         0.2850    0.0120   21.0200 C.3       1 ET301       0.0000 
     23 N23        -1.2030   -1.5990   16.0870 N.pl3     1 ET301       0.0000 
     24 N24        -6.7740   -2.0260   24.0600 N.pl3     1 ET301       0.0000 
@<TRIPOS>BOND
     1    1    2 ar   
     2    1   13 ar   
     3    2    3 ar   
     4    3    4 ar   
     5    3   23 1    
     6    4   14 ar   
     7    5    6 ar   
     8    5   14 ar   
     9    5   21 1    
    10    6   11 ar   
    11    6   15 1    
    12    7    8 ar   
    13    7   11 ar   
    14    8    9 ar   
    15    8   24 1    
    16    9   10 ar   
    17   10   12 ar   
    18   11   12 ar   
    19   12   13 ar   
    20   13   14 ar   
    21   15   16 ar   
    22   15   20 ar   
    23   16   17 ar   
    24   17   18 ar   
    25   18   19 ar   
    26   19   20 ar   
    27   21   22 1    
@<TRIPOS>SUBSTRUCTURE
     1 ET301       1 GROUP   
@<TRIPOS>SET

