#    Name: 6ko7_1_ET
#    Modification time : Fri May 22 19:32:41 2020

@<TRIPOS>MOLECULE
6ko7_1_ET
   24    27     1     0     0
SMALL
NO_CHARGES


@<TRIPOS>ATOM
      1 C1          4.3500   15.7020  -32.7820 C.ar      1 ET301       0.0000 
      2 C2          3.3780   16.6740  -32.9040 C.ar      1 ET301       0.0000 
      3 C3          2.2440   16.4840  -33.7450 C.ar      1 ET301       0.0000 
      4 C4          2.1190   15.2680  -34.4300 C.ar      1 ET301       0.0000 
      5 N5          2.9890   13.0540  -34.9850 N.pl3     1 ET301       0.0000 
      6 C6          3.9970   12.1300  -34.9880 C.ar      1 ET301       0.0000 
      7 C7          5.9030   11.1060  -33.8250 C.ar      1 ET301       0.0000 
      8 C8          6.8380   11.1280  -32.8070 C.ar      1 ET301       0.0000 
      9 C9          6.9850   12.3150  -32.0680 C.ar      1 ET301       0.0000 
     10 C10         6.2280   13.4360  -32.3240 C.ar      1 ET301       0.0000 
     11 C11         5.0620   12.1990  -34.0280 C.ar      1 ET301       0.0000 
     12 C12         5.1990   13.3700  -33.2620 C.ar      1 ET301       0.0000 
     13 C13         4.2390   14.4780  -33.4680 C.ar      1 ET301       0.0000 
     14 C14         3.1050   14.2420  -34.2490 C.ar      1 ET301       0.0000 
     15 C15         3.9010   10.8700  -35.7460 C.ar      1 ET301       0.0000 
     16 C16         4.6690   10.6800  -36.8810 C.ar      1 ET301       0.0000 
     17 C17         4.5700    9.5050  -37.5790 C.ar      1 ET301       0.0000 
     18 C18         3.7130    8.5290  -37.1640 C.ar      1 ET301       0.0000 
     19 C19         2.9680    8.6910  -36.0240 C.ar      1 ET301       0.0000 
     20 C20         3.0440    9.8710  -35.3150 C.ar      1 ET301       0.0000 
     21 C21         1.7870   12.8810  -35.8780 C.3       1 ET301       0.0000 
     22 C22         0.5360   12.5320  -35.1450 C.3       1 ET301       0.0000 
     23 N23         1.3230   17.4900  -33.9070 N.pl3     1 ET301       0.0000 
     24 N24         7.6910   10.0690  -32.5820 N.pl3     1 ET301       0.0000 
@<TRIPOS>BOND
     1    1    2 ar   
     2    1   13 ar   
     3    2    3 ar   
     4    3    4 ar   
     5    3   23 1    
     6    4   14 ar   
     7    5    6 ar   
     8    5   14 ar   
     9    5   21 1    
    10    6   11 ar   
    11    6   15 1    
    12    7    8 ar   
    13    7   11 ar   
    14    8    9 ar   
    15    8   24 1    
    16    9   10 ar   
    17   10   12 ar   
    18   11   12 ar   
    19   12   13 ar   
    20   13   14 ar   
    21   15   16 ar   
    22   15   20 ar   
    23   16   17 ar   
    24   17   18 ar   
    25   18   19 ar   
    26   19   20 ar   
    27   21   22 1    
@<TRIPOS>SUBSTRUCTURE
     1 ET301       1 GROUP   
@<TRIPOS>SET

