#    Name: 5w74_3_ADP
#    Modification time : Fri May 22 19:14:40 2020

@<TRIPOS>MOLECULE
5w74_3_ADP
   27    29     1     0     1
SMALL
NO_CHARGES


@<TRIPOS>ATOM
      1 PB         27.2000  -86.6070  -22.8670 P.3       1 ADP600      0.0000 
      2 O1B        27.8880  -86.4350  -24.1990 O.co2     1 ADP600      0.0000 
      3 O2B        28.1200  -86.4640  -21.6810 O.co2     1 ADP600      0.0000 
      4 O3B        26.3080  -87.8220  -22.7700 O.co2     1 ADP600      0.0000 
      5 PA         26.0240  -84.3240  -21.5540 P.3       1 ADP600      0.0000 
      6 O1A        25.3140  -83.0910  -22.0670 O.co2     1 ADP600      0.0000 
      7 O2A        27.3880  -84.1560  -20.9340 O.co2     1 ADP600      0.0000 
      8 O3A        26.1700  -85.3560  -22.7950 O.3       1 ADP600      0.0000 
      9 O5'        25.0470  -85.0190  -20.4690 O.3       1 ADP600      0.0000 
     10 C5'        25.0030  -86.4310  -20.2640 C.3       1 ADP600      0.0000 
     11 C4'        24.5630  -86.7710  -18.8430 C.3       1 ADP600      0.0000 
     12 O4'        23.5510  -85.8710  -18.3800 O.3       1 ADP600      0.0000 
     13 C3'        23.9820  -88.1750  -18.7500 C.3       1 ADP600      0.0000 
     14 O3'        24.8760  -89.0340  -18.0330 O.3       1 ADP600      0.0000 
     15 C2'        22.6830  -88.0360  -17.9830 C.3       1 ADP600      0.0000 
     16 O2'        22.6920  -88.9050  -16.8480 O.3       1 ADP600      0.0000 
     17 C1'        22.6300  -86.5810  -17.5440 C.3       1 ADP600      0.0000 
     18 N9         21.2520  -86.0430  -17.6720 N.pl3     1 ADP600      0.0000 
     19 C8         20.6430  -85.6380  -18.8030 C.2       1 ADP600      0.0000 
     20 N7         19.3800  -85.2050  -18.5490 N.2       1 ADP600      0.0000 
     21 C5         19.1660  -85.3340  -17.2260 C.ar      1 ADP600      0.0000 
     22 C6         18.0500  -85.0640  -16.2880 C.ar      1 ADP600      0.0000 
     23 N6         16.8740  -84.5550  -16.7270 N.pl3     1 ADP600      0.0000 
     24 N1         18.2440  -85.3430  -14.9800 N.ar      1 ADP600      0.0000 
     25 C2         19.4070  -85.8490  -14.5300 C.ar      1 ADP600      0.0000 
     26 N3         20.4580  -86.1170  -15.3230 N.ar      1 ADP600      0.0000 
     27 C4         20.4020  -85.8870  -16.6560 C.ar      1 ADP600      0.0000 
@<TRIPOS>BOND
     1    1    2 ar   
     2    1    3 ar   
     3    1    4 ar   
     4    1    8 1    
     5    5    6 ar   
     6    5    7 ar   
     7    5    8 1    
     8    5    9 1    
     9    9   10 1    
    10   10   11 1    
    11   11   12 1    
    12   11   13 1    
    13   12   17 1    
    14   13   14 1    
    15   13   15 1    
    16   15   16 1    
    17   15   17 1    
    18   17   18 1    
    19   18   19 1    
    20   18   27 1    
    21   19   20 2    
    22   20   21 1    
    23   21   22 ar   
    24   21   27 ar   
    25   22   23 1    
    26   22   24 ar   
    27   24   25 ar   
    28   25   26 ar   
    29   26   27 ar   
@<TRIPOS>SUBSTRUCTURE
     1 ADP600      1 GROUP   
@<TRIPOS>SET
ATOM$ORANGE STATIC     ATOMS   COLORGROUP SYSTEM 
20 10 10 11 11 13 13 15 15 17 17 19 19 21 21 22 22 25 \
25 27 27 

