#    Name: 5w74_5_ADP_CAVITY_N1_6
#    Modification time : Fri May 22 19:14:58 2020

@<TRIPOS>MOLECULE
5w74_5_ADP_CAVITY_N1_6
   61     0     6     0     0
SMALL
NO_CHARGES


@<TRIPOS>ATOM
      1 OG         45.8100    3.7800  -20.4800 O.3       1 SER1        0.0000 
      2 OG         44.7900    4.8600  -20.6900 O.3       1 SER1        0.0000 
      3 O          44.6900   -0.5700  -16.2200 O.2       2 ALA2        0.0000 
      4 N          46.4100   -0.6700  -14.2800 N.am      2 ALA2        0.0000 
      5 N          45.4000    0.4200  -14.4900 N.am      2 ALA2        0.0000 
      6 N          47.4600    0.3700  -14.0000 N.am      2 ALA2        0.0000 
      7 N          46.4500    1.4500  -14.2200 N.am      2 ALA2        0.0000 
      8 N          46.7900    1.4900  -15.6700 N.am      2 ALA2        0.0000 
      9 N          46.1500    3.8100  -21.9400 N.am      2 ALA2        0.0000 
     10 N          47.8500    2.5200  -15.4000 N.am      2 ALA2        0.0000 
     11 N          46.8400    3.6100  -15.6100 N.am      2 ALA2        0.0000 
     12 N          45.8500    5.9000  -20.4100 N.am      2 ALA2        0.0000 
     13 N          46.8800    5.7300  -15.5500 N.am      2 ALA2        0.0000 
     14 N          46.2100    6.8500  -17.2200 N.am      2 ALA2        0.0000 
     15 N          46.5500    6.8900  -18.6800 N.am      2 ALA2        0.0000 
     16 N          47.9300    6.7600  -15.2700 N.am      2 ALA2        0.0000 
     17 N          47.2600    7.8900  -16.9400 N.am      2 ALA2        0.0000 
     18 N          47.6100    7.9200  -18.4000 N.am      2 ALA2        0.0000 
     19 NZ         48.9600    6.8700  -19.6500 N.4       3 LYS4        0.0000 
     20 NZ         49.6700    7.8700  -17.9200 N.4       3 LYS4        0.0000 
     21 CZ         48.1900    2.5600  -16.8600 C.ar      4 PHE5        0.0000 
     22 CZ         48.5400    2.6000  -18.3200 C.ar      4 PHE5        0.0000 
     23 CZ         47.5200    3.6800  -18.5300 C.ar      4 PHE5        0.0000 
     24 CZ         48.2300    4.6800  -16.8000 C.ar      4 PHE5        0.0000 
     25 CZ         48.5800    4.7200  -18.2600 C.ar      4 PHE5        0.0000 
     26 CZ         48.9200    4.7500  -19.7200 C.ar      4 PHE5        0.0000 
     27 CZ         47.5700    5.8000  -18.4700 C.ar      4 PHE5        0.0000 
     28 CZ         49.9700    5.7900  -19.4400 C.ar      4 PHE5        0.0000 
     29 CZ         48.2700    6.8000  -16.7300 C.ar      4 PHE5        0.0000 
     30 CZ         48.6200    6.8400  -18.1900 C.ar      4 PHE5        0.0000 
     31 CZ         49.3300    7.8300  -16.4600 C.ar      4 PHE5        0.0000 
     32 CA         45.3600   -1.7000  -14.5500 C.3       5 GLY6        0.0000 
     33 CA         45.7000   -1.6600  -16.0100 C.3       5 GLY6        0.0000 
     34 CA         47.7600   -1.7200  -15.5300 C.3       5 GLY6        0.0000 
     35 CA         46.7500   -0.6300  -15.7400 C.3       5 GLY6        0.0000 
     36 CA         47.1000   -0.5900  -17.2000 C.3       5 GLY6        0.0000 
     37 CA         45.7400    0.4600  -15.9500 C.3       5 GLY6        0.0000 
     38 CA         46.0900    0.4900  -17.4100 C.3       5 GLY6        0.0000 
     39 CA         46.4300    0.5300  -18.8700 C.3       5 GLY6        0.0000 
     40 CA         46.7700    0.5700  -20.3300 C.3       5 GLY6        0.0000 
     41 CA         45.4200    1.6200  -19.0800 C.3       5 GLY6        0.0000 
     42 CA         45.7600    1.6600  -20.5400 C.3       5 GLY6        0.0000 
     43 CA         47.8100    0.4000  -15.4600 C.3       5 GLY6        0.0000 
     44 CA         48.1500    0.4400  -16.9200 C.3       5 GLY6        0.0000 
     45 CA         47.1400    1.5300  -17.1300 C.3       5 GLY6        0.0000 
     46 CA         47.4800    1.5600  -18.5900 C.3       5 GLY6        0.0000 
     47 CA         45.7800    2.5800  -15.8900 C.3       5 GLY6        0.0000 
     48 CA         46.1300    2.6100  -17.3500 C.3       5 GLY6        0.0000 
     49 CA         46.4700    2.6500  -18.8100 C.3       5 GLY6        0.0000 
     50 CA         46.8200    2.6900  -20.2600 C.3       5 GLY6        0.0000 
     51 CA         47.1800    3.6500  -17.0700 C.3       5 GLY6        0.0000 
     52 CA         47.8700    3.7200  -19.9900 C.3       5 GLY6        0.0000 
     53 CA         46.5100    4.7700  -18.7400 C.3       5 GLY6        0.0000 
     54 CA         47.2000    4.8400  -21.6600 C.3       5 GLY6        0.0000 
     55 CA         45.5000    5.8600  -18.9500 C.3       5 GLY6        0.0000 
     56 CA         47.2200    5.7700  -17.0100 C.3       5 GLY6        0.0000 
     57 CA         48.2600    5.8800  -21.3900 C.3       5 GLY6        0.0000 
     58 CA         46.9000    6.9300  -20.1400 C.3       5 GLY6        0.0000 
     59 CA         46.9200    7.8500  -15.4900 C.3       5 GLY6        0.0000 
     60 DU         46.8600    4.8100  -20.2000 H         6 CUB7        0.0000 
     61 DU         47.9100    5.8400  -19.9300 H         6 CUB7        0.0000 
@<TRIPOS>BOND
@<TRIPOS>SUBSTRUCTURE
     1 SER1        1 GROUP   
     2 ALA2        3 GROUP   
     3 LYS4       19 GROUP   
     4 PHE5       21 GROUP   
     5 GLY6       32 GROUP   
     6 CUB7       60 GROUP   
@<TRIPOS>SET

