#    Name: 5w74_4_ADP
#    Modification time : Fri May 22 19:14:48 2020

@<TRIPOS>MOLECULE
5w74_4_ADP
   27    29     1     0     1
SMALL
NO_CHARGES


@<TRIPOS>ATOM
      1 PB         19.4720  -43.9600  -22.6410 P.3       1 ADP600      0.0000 
      2 O1B        20.0530  -44.3530  -23.9790 O.co2     1 ADP600      0.0000 
      3 O2B        20.2110  -44.5230  -21.4560 O.co2     1 ADP600      0.0000 
      4 O3B        17.9750  -44.1100  -22.5260 O.co2     1 ADP600      0.0000 
      5 PA         20.3380  -41.5580  -21.3400 P.3       1 ADP600      0.0000 
      6 O1A        20.7180  -40.1830  -21.8380 O.co2     1 ADP600      0.0000 
      7 O2A        21.4120  -42.4250  -20.7310 O.co2     1 ADP600      0.0000 
      8 O3A        19.6730  -42.3570  -22.5760 O.3       1 ADP600      0.0000 
      9 O5'        19.1800  -41.3350  -20.2400 O.3       1 ADP600      0.0000 
     10 C5'        18.1470  -42.2860  -19.9890 C.3       1 ADP600      0.0000 
     11 C4'        17.6300  -42.1360  -18.5630 C.3       1 ADP600      0.0000 
     12 O4'        17.5770  -40.7560  -18.1970 O.3       1 ADP600      0.0000 
     13 C3'        16.2230  -42.6950  -18.3970 C.3       1 ADP600      0.0000 
     14 O3'        16.2640  -43.8830  -17.5990 O.3       1 ADP600      0.0000 
     15 C2'        15.4280  -41.6160  -17.6890 C.3       1 ADP600      0.0000 
     16 O2'        14.8370  -42.1370  -16.4940 O.3       1 ADP600      0.0000 
     17 C1'        16.4450  -40.5360  -17.3580 C.3       1 ADP600      0.0000 
     18 N9         15.8630  -39.1980  -17.6150 N.pl3     1 ADP600      0.0000 
     19 C8         15.6950  -38.6410  -18.8290 C.2       1 ADP600      0.0000 
     20 N7         15.1290  -37.4120  -18.7270 N.2       1 ADP600      0.0000 
     21 C5         14.9210  -37.1750  -17.4190 C.ar      1 ADP600      0.0000 
     22 C6         14.3560  -36.0690  -16.6130 C.ar      1 ADP600      0.0000 
     23 N6         13.8890  -34.9440  -17.2070 N.pl3     1 ADP600      0.0000 
     24 N1         14.3220  -36.2220  -15.2710 N.ar      1 ADP600      0.0000 
     25 C2         14.7820  -37.3360  -14.6730 C.ar      1 ADP600      0.0000 
     26 N3         15.3080  -38.3770  -15.3410 N.ar      1 ADP600      0.0000 
     27 C4         15.3980  -38.3590  -16.6910 C.ar      1 ADP600      0.0000 
@<TRIPOS>BOND
     1    1    2 ar   
     2    1    3 ar   
     3    1    4 ar   
     4    1    8 1    
     5    5    6 ar   
     6    5    7 ar   
     7    5    8 1    
     8    5    9 1    
     9    9   10 1    
    10   10   11 1    
    11   11   12 1    
    12   11   13 1    
    13   12   17 1    
    14   13   14 1    
    15   13   15 1    
    16   15   16 1    
    17   15   17 1    
    18   17   18 1    
    19   18   19 1    
    20   18   27 1    
    21   19   20 2    
    22   20   21 1    
    23   21   22 ar   
    24   21   27 ar   
    25   22   23 1    
    26   22   24 ar   
    27   24   25 ar   
    28   25   26 ar   
    29   26   27 ar   
@<TRIPOS>SUBSTRUCTURE
     1 ADP600      1 GROUP   
@<TRIPOS>SET
ATOM$ORANGE STATIC     ATOMS   COLORGROUP SYSTEM 
20 10 10 11 11 13 13 15 15 17 17 19 19 21 21 22 22 25 \
25 27 27 

