#    Name: 5w74_8_ADP
#    Modification time : Fri May 22 19:15:14 2020

@<TRIPOS>MOLECULE
5w74_8_ADP
   27    29     1     0     1
SMALL
NO_CHARGES


@<TRIPOS>ATOM
      1 PB        131.6020  -68.1850  -26.7020 P.3       1 ADP600      0.0000 
      2 O1B       130.9530  -67.7430  -27.9920 O.co2     1 ADP600      0.0000 
      3 O2B       130.9030  -67.7030  -25.4560 O.co2     1 ADP600      0.0000 
      4 O3B       133.0970  -67.9900  -26.6510 O.co2     1 ADP600      0.0000 
      5 PA        130.8520  -70.6780  -25.4950 P.3       1 ADP600      0.0000 
      6 O1A       130.4540  -72.0260  -26.0520 O.co2     1 ADP600      0.0000 
      7 O2A       129.8010  -69.8630  -24.7840 O.co2     1 ADP600      0.0000 
      8 O3A       131.4350  -69.7950  -26.7170 O.3       1 ADP600      0.0000 
      9 O5'       132.0790  -70.9350  -24.4770 O.3       1 ADP600      0.0000 
     10 C5'       133.1130  -69.9760  -24.2530 C.3       1 ADP600      0.0000 
     11 C4'       133.7300  -70.1430  -22.8660 C.3       1 ADP600      0.0000 
     12 O4'       133.8610  -71.5270  -22.5300 O.3       1 ADP600      0.0000 
     13 C3'       135.1280  -69.5400  -22.7750 C.3       1 ADP600      0.0000 
     14 O3'       135.1010  -68.3630  -21.9580 O.3       1 ADP600      0.0000 
     15 C2'       136.0040  -70.5990  -22.1340 C.3       1 ADP600      0.0000 
     16 O2'       136.6480  -70.0780  -20.9660 O.3       1 ADP600      0.0000 
     17 C1'       135.0510  -71.7230  -21.7610 C.3       1 ADP600      0.0000 
     18 N9        135.6730  -73.0370  -22.0550 N.pl3     1 ADP600      0.0000 
     19 C8        135.7940  -73.6160  -23.2640 C.2       1 ADP600      0.0000 
     20 N7        136.4200  -74.8180  -23.1690 N.2       1 ADP600      0.0000 
     21 C5        136.7140  -75.0190  -21.8700 C.ar      1 ADP600      0.0000 
     22 C6        137.3700  -76.0790  -21.0670 C.ar      1 ADP600      0.0000 
     23 N6        137.8580  -77.2010  -21.6490 N.pl3     1 ADP600      0.0000 
     24 N1        137.4690  -75.8880  -19.7330 N.ar      1 ADP600      0.0000 
     25 C2        136.9920  -74.7800  -19.1380 C.ar      1 ADP600      0.0000 
     26 N3        136.3860  -73.7820  -19.8020 N.ar      1 ADP600      0.0000 
     27 C4        136.2210  -73.8400  -21.1440 C.ar      1 ADP600      0.0000 
@<TRIPOS>BOND
     1    1    2 ar   
     2    1    3 ar   
     3    1    4 ar   
     4    1    8 1    
     5    5    6 ar   
     6    5    7 ar   
     7    5    8 1    
     8    5    9 1    
     9    9   10 1    
    10   10   11 1    
    11   11   12 1    
    12   11   13 1    
    13   12   17 1    
    14   13   14 1    
    15   13   15 1    
    16   15   16 1    
    17   15   17 1    
    18   17   18 1    
    19   18   19 1    
    20   18   27 1    
    21   19   20 2    
    22   20   21 1    
    23   21   22 ar   
    24   21   27 ar   
    25   22   23 1    
    26   22   24 ar   
    27   24   25 ar   
    28   25   26 ar   
    29   26   27 ar   
@<TRIPOS>SUBSTRUCTURE
     1 ADP600      1 GROUP   
@<TRIPOS>SET
ATOM$ORANGE STATIC     ATOMS   COLORGROUP SYSTEM 
20 10 10 11 11 13 13 15 15 17 17 19 19 21 21 22 22 25 \
25 27 27 

