#    Name: 5w74_1_ADP
#    Modification time : Fri May 22 19:14:22 2020

@<TRIPOS>MOLECULE
5w74_1_ADP
   27    29     1     0     1
SMALL
NO_CHARGES


@<TRIPOS>ATOM
      1 PB        106.5070 -104.7570  -24.9430 P.3       1 ADP600      0.0000 
      2 O1B       106.1960 -104.2010  -26.3090 O.co2     1 ADP600      0.0000 
      3 O2B       106.2540 -103.7730  -23.8280 O.co2     1 ADP600      0.0000 
      4 O3B       107.8350 -105.4730  -24.8530 O.co2     1 ADP600      0.0000 
      5 PA        104.5200 -106.1380  -23.4300 P.3       1 ADP600      0.0000 
      6 O1A       103.3230 -106.9520  -23.8550 O.co2     1 ADP600      0.0000 
      7 O2A       104.2710 -104.7730  -22.8410 O.co2     1 ADP600      0.0000 
      8 O3A       105.4210 -105.9400  -24.7550 O.3       1 ADP600      0.0000 
      9 O5'       105.3560 -107.0480  -22.3830 O.3       1 ADP600      0.0000 
     10 C5'       106.7760 -107.0470  -22.2360 C.3       1 ADP600      0.0000 
     11 C4'       107.1050 -107.4600  -20.8060 C.3       1 ADP600      0.0000 
     12 O4'       106.1670 -108.4270  -20.3240 O.3       1 ADP600      0.0000 
     13 C3'       108.4940 -108.0740  -20.6900 C.3       1 ADP600      0.0000 
     14 O3'       109.3960 -107.1880  -20.0150 O.3       1 ADP600      0.0000 
     15 C2'       108.2990 -109.3500  -19.8900 C.3       1 ADP600      0.0000 
     16 O2'       109.1750 -109.3420  -18.7550 O.3       1 ADP600      0.0000 
     17 C1'       106.8340 -109.3500  -19.4600 C.3       1 ADP600      0.0000 
     18 N9        106.1950 -110.6930  -19.5500 N.pl3     1 ADP600      0.0000 
     19 C8        105.7000 -111.2890  -20.6520 C.2       1 ADP600      0.0000 
     20 N7        105.1800 -112.5100  -20.3560 N.2       1 ADP600      0.0000 
     21 C5        105.3300 -112.7090  -19.0330 C.ar      1 ADP600      0.0000 
     22 C6        105.0060 -113.7820  -18.0610 C.ar      1 ADP600      0.0000 
     23 N6        104.3940 -114.9250  -18.4510 N.pl3     1 ADP600      0.0000 
     24 N1        105.3400 -113.5830  -16.7680 N.ar      1 ADP600      0.0000 
     25 C2        105.9490 -112.4530  -16.3750 C.ar      1 ADP600      0.0000 
     26 N3        106.2670 -111.4400  -17.1940 N.ar      1 ADP600      0.0000 
     27 C4        105.9930 -111.5060  -18.5130 C.ar      1 ADP600      0.0000 
@<TRIPOS>BOND
     1    1    2 ar   
     2    1    3 ar   
     3    1    4 ar   
     4    1    8 1    
     5    5    6 ar   
     6    5    7 ar   
     7    5    8 1    
     8    5    9 1    
     9    9   10 1    
    10   10   11 1    
    11   11   12 1    
    12   11   13 1    
    13   12   17 1    
    14   13   14 1    
    15   13   15 1    
    16   15   16 1    
    17   15   17 1    
    18   17   18 1    
    19   18   19 1    
    20   18   27 1    
    21   19   20 2    
    22   20   21 1    
    23   21   22 ar   
    24   21   27 ar   
    25   22   23 1    
    26   22   24 ar   
    27   24   25 ar   
    28   25   26 ar   
    29   26   27 ar   
@<TRIPOS>SUBSTRUCTURE
     1 ADP600      1 GROUP   
@<TRIPOS>SET
ATOM$ORANGE STATIC     ATOMS   COLORGROUP SYSTEM 
20 10 10 11 11 13 13 15 15 17 17 19 19 21 21 22 22 25 \
25 27 27 

