#    Name: 5w74_6_ADP
#    Modification time : Fri May 22 19:15:04 2020

@<TRIPOS>MOLECULE
5w74_6_ADP
   27    29     1     0     1
SMALL
NO_CHARGES


@<TRIPOS>ATOM
      1 PB         87.6720   -0.2680  -25.1050 P.3       1 ADP600      0.0000 
      2 O1B        87.2620   -0.9170  -26.4050 O.co2     1 ADP600      0.0000 
      3 O2B        87.1930   -0.9980  -23.8760 O.co2     1 ADP600      0.0000 
      4 O3B        87.4410    1.2230  -25.0410 O.co2     1 ADP600      0.0000 
      5 PA         90.1470   -0.9870  -23.8630 P.3       1 ADP600      0.0000 
      6 O1A        91.4980   -1.3820  -24.4110 O.co2     1 ADP600      0.0000 
      7 O2A        89.3270   -2.0410  -23.1620 O.co2     1 ADP600      0.0000 
      8 O3A        89.2820   -0.4090  -25.1000 O.3       1 ADP600      0.0000 
      9 O5'        90.3870    0.2440  -22.8440 O.3       1 ADP600      0.0000 
     10 C5'        89.4420    1.2920  -22.6280 C.3       1 ADP600      0.0000 
     11 C4'        89.6300    1.8690  -21.2300 C.3       1 ADP600      0.0000 
     12 O4'        91.0170    1.9140  -20.8860 O.3       1 ADP600      0.0000 
     13 C3'        89.0970    3.2900  -21.1090 C.3       1 ADP600      0.0000 
     14 O3'        87.9090    3.3050  -20.3080 O.3       1 ADP600      0.0000 
     15 C2'        90.1990    4.0890  -20.4390 C.3       1 ADP600      0.0000 
     16 O2'        89.7190    4.7150  -19.2460 O.3       1 ADP600      0.0000 
     17 C1'        91.2690    3.0710  -20.0860 C.3       1 ADP600      0.0000 
     18 N9         92.6210    3.6250  -20.3480 N.pl3     1 ADP600      0.0000 
     19 C8         93.2130    3.7430  -21.5510 C.2       1 ADP600      0.0000 
     20 N7         94.4490    4.2940  -21.4320 N.2       1 ADP600      0.0000 
     21 C5         94.6580    4.5410  -20.1260 C.ar      1 ADP600      0.0000 
     22 C6         95.7520    5.1150  -19.3070 C.ar      1 ADP600      0.0000 
     23 N6         96.9010    5.5460  -19.8830 N.pl3     1 ADP600      0.0000 
     24 N1         95.5670    5.1940  -17.9700 N.ar      1 ADP600      0.0000 
     25 C2         94.4310    4.7680  -17.3890 C.ar      1 ADP600      0.0000 
     26 N3         93.4000    4.2380  -18.0690 N.ar      1 ADP600      0.0000 
     27 C4         93.4490    4.1020  -19.4160 C.ar      1 ADP600      0.0000 
@<TRIPOS>BOND
     1    1    2 ar   
     2    1    3 ar   
     3    1    4 ar   
     4    1    8 1    
     5    5    6 ar   
     6    5    7 ar   
     7    5    8 1    
     8    5    9 1    
     9    9   10 1    
    10   10   11 1    
    11   11   12 1    
    12   11   13 1    
    13   12   17 1    
    14   13   14 1    
    15   13   15 1    
    16   15   16 1    
    17   15   17 1    
    18   17   18 1    
    19   18   19 1    
    20   18   27 1    
    21   19   20 2    
    22   20   21 1    
    23   21   22 ar   
    24   21   27 ar   
    25   22   23 1    
    26   22   24 ar   
    27   24   25 ar   
    28   25   26 ar   
    29   26   27 ar   
@<TRIPOS>SUBSTRUCTURE
     1 ADP600      1 GROUP   
@<TRIPOS>SET
ATOM$ORANGE STATIC     ATOMS   COLORGROUP SYSTEM 
20 10 10 11 11 13 13 15 15 17 17 19 19 21 21 22 22 25 \
25 27 27 

