#    Name: 5w74_5_ADP
#    Modification time : Fri May 22 19:14:56 2020

@<TRIPOS>MOLECULE
5w74_5_ADP
   27    29     1     0     1
SMALL
NO_CHARGES


@<TRIPOS>ATOM
      1 PB         44.4340   -7.5730  -22.8790 P.3       1 ADP600      0.0000 
      2 O1B        44.6020   -8.1430  -24.2640 O.co2     1 ADP600      0.0000 
      3 O2B        44.7400   -8.5690  -21.7900 O.co2     1 ADP600      0.0000 
      4 O3B        43.1510   -6.7960  -22.6770 O.co2     1 ADP600      0.0000 
      5 PA         46.5910   -6.2870  -21.5360 P.3       1 ADP600      0.0000 
      6 O1A        47.7890   -5.5290  -22.0540 O.co2     1 ADP600      0.0000 
      7 O2A        46.8190   -7.6650  -20.9730 O.co2     1 ADP600      0.0000 
      8 O3A        45.5810   -6.4390  -22.7850 O.3       1 ADP600      0.0000 
      9 O5'        45.8730   -5.3380  -20.4390 O.3       1 ADP600      0.0000 
     10 C5'        44.4650   -5.2860  -20.2080 C.3       1 ADP600      0.0000 
     11 C4'        44.2070   -4.8420  -18.7740 C.3       1 ADP600      0.0000 
     12 O4'        45.1860   -3.8910  -18.3470 O.3       1 ADP600      0.0000 
     13 C3'        42.8400   -4.1900  -18.6280 C.3       1 ADP600      0.0000 
     14 O3'        41.9470   -5.0300  -17.8840 O.3       1 ADP600      0.0000 
     15 C2'        43.0950   -2.8980  -17.8730 C.3       1 ADP600      0.0000 
     16 O2'        42.2470   -2.8420  -16.7190 O.3       1 ADP600      0.0000 
     17 C1'        44.5720   -2.9310  -17.4850 C.3       1 ADP600      0.0000 
     18 N9         45.2410   -1.6110  -17.6480 N.pl3     1 ADP600      0.0000 
     19 C8         45.7150   -1.0990  -18.7990 C.2       1 ADP600      0.0000 
     20 N7         46.2800    0.1200  -18.5950 N.2       1 ADP600      0.0000 
     21 C5         46.1770    0.4020  -17.2840 C.ar      1 ADP600      0.0000 
     22 C6         46.5670    1.5230  -16.3960 C.ar      1 ADP600      0.0000 
     23 N6         47.1960    2.6150  -16.8900 N.pl3     1 ADP600      0.0000 
     24 N1         46.2740    1.4200  -15.0810 N.ar      1 ADP600      0.0000 
     25 C2         45.6470    0.3380  -14.5870 C.ar      1 ADP600      0.0000 
     26 N3         45.2700   -0.7140  -15.3320 N.ar      1 ADP600      0.0000 
     27 C4         45.5010   -0.7450  -16.6640 C.ar      1 ADP600      0.0000 
@<TRIPOS>BOND
     1    1    2 ar   
     2    1    3 ar   
     3    1    4 ar   
     4    1    8 1    
     5    5    6 ar   
     6    5    7 ar   
     7    5    8 1    
     8    5    9 1    
     9    9   10 1    
    10   10   11 1    
    11   11   12 1    
    12   11   13 1    
    13   12   17 1    
    14   13   14 1    
    15   13   15 1    
    16   15   16 1    
    17   15   17 1    
    18   17   18 1    
    19   18   19 1    
    20   18   27 1    
    21   19   20 2    
    22   20   21 1    
    23   21   22 ar   
    24   21   27 ar   
    25   22   23 1    
    26   22   24 ar   
    27   24   25 ar   
    28   25   26 ar   
    29   26   27 ar   
@<TRIPOS>SUBSTRUCTURE
     1 ADP600      1 GROUP   
@<TRIPOS>SET
ATOM$ORANGE STATIC     ATOMS   COLORGROUP SYSTEM 
20 10 10 11 11 13 13 15 15 17 17 19 19 21 21 22 22 25 \
25 27 27 

