#    Name: 5w74_2_ADP
#    Modification time : Fri May 22 19:14:31 2020

@<TRIPOS>MOLECULE
5w74_2_ADP
   27    29     1     0     1
SMALL
NO_CHARGES


@<TRIPOS>ATOM
      1 PB         63.5580 -111.9920  -24.4950 P.3       1 ADP600      0.0000 
      2 O1B        63.7350 -111.2950  -25.8220 O.co2     1 ADP600      0.0000 
      3 O2B        64.1650 -111.2550  -23.3280 O.co2     1 ADP600      0.0000 
      4 O3B        63.8550 -113.4730  -24.4990 O.co2     1 ADP600      0.0000 
      5 PA         61.2890 -111.4850  -22.8720 P.3       1 ADP600      0.0000 
      6 O1A        59.8410 -111.1960  -23.1830 O.co2     1 ADP600      0.0000 
      7 O2A        62.1230 -110.3840  -22.2710 O.co2     1 ADP600      0.0000 
      8 O3A        61.9660 -111.9720  -24.2500 O.3       1 ADP600      0.0000 
      9 O5'        61.3090 -112.7540  -21.8720 O.3       1 ADP600      0.0000 
     10 C5'        62.3480 -113.7350  -21.7940 C.3       1 ADP600      0.0000 
     11 C4'        62.2970 -114.3360  -20.3960 C.3       1 ADP600      0.0000 
     12 O4'        60.9350 -114.4190  -19.9910 O.3       1 ADP600      0.0000 
     13 C3'        62.8900 -115.7390  -20.3230 C.3       1 ADP600      0.0000 
     14 O3'        64.1110 -115.7450  -19.5710 O.3       1 ADP600      0.0000 
     15 C2'        61.8330 -116.5790  -19.6280 C.3       1 ADP600      0.0000 
     16 O2'        62.3930 -117.2210  -18.4780 O.3       1 ADP600      0.0000 
     17 C1'        60.7480 -115.5950  -19.2140 C.3       1 ADP600      0.0000 
     18 N9         59.3940 -116.1280  -19.4950 N.pl3     1 ADP600      0.0000 
     19 C8         58.8270 -116.1440  -20.7150 C.2       1 ADP600      0.0000 
     20 N7         57.5850 -116.6830  -20.6750 N.2       1 ADP600      0.0000 
     21 C5         57.3430 -117.0250  -19.3990 C.ar      1 ADP600      0.0000 
     22 C6         56.2170 -117.6450  -18.6710 C.ar      1 ADP600      0.0000 
     23 N6         55.0910 -118.0070  -19.3310 N.pl3     1 ADP600      0.0000 
     24 N1         56.3560 -117.8320  -17.3400 N.ar      1 ADP600      0.0000 
     25 C2         57.4790 -117.4700  -16.6910 C.ar      1 ADP600      0.0000 
     26 N3         58.5400 -116.9020  -17.2920 N.ar      1 ADP600      0.0000 
     27 C4         58.5370 -116.6600  -18.6230 C.ar      1 ADP600      0.0000 
@<TRIPOS>BOND
     1    1    2 ar   
     2    1    3 ar   
     3    1    4 ar   
     4    1    8 1    
     5    5    6 ar   
     6    5    7 ar   
     7    5    8 1    
     8    5    9 1    
     9    9   10 1    
    10   10   11 1    
    11   11   12 1    
    12   11   13 1    
    13   12   17 1    
    14   13   14 1    
    15   13   15 1    
    16   15   16 1    
    17   15   17 1    
    18   17   18 1    
    19   18   19 1    
    20   18   27 1    
    21   19   20 2    
    22   20   21 1    
    23   21   22 ar   
    24   21   27 ar   
    25   22   23 1    
    26   22   24 ar   
    27   24   25 ar   
    28   25   26 ar   
    29   26   27 ar   
@<TRIPOS>SUBSTRUCTURE
     1 ADP600      1 GROUP   
@<TRIPOS>SET
ATOM$ORANGE STATIC     ATOMS   COLORGROUP SYSTEM 
20 10 10 11 11 13 13 15 15 17 17 19 19 21 21 22 22 25 \
25 27 27 

