#    Name: 6qtl_2_CFF_CAVITY_N1_8
#    Modification time : Fri May 22 19:28:49 2020

@<TRIPOS>MOLECULE
6qtl_2_CFF_CAVITY_N1_8
   74     0     5     0     0
SMALL
NO_CHARGES


@<TRIPOS>ATOM
      1 OG         15.6900   -3.5200   57.1800 O.3       1 SER1        0.0000 
      2 OG         15.2100   -3.9200   59.2100 O.3       1 SER1        0.0000 
      3 OG         14.5100   -2.3600   60.4600 O.3       1 SER1        0.0000 
      4 OG         14.9300   -1.7900   61.7900 O.3       1 SER1        0.0000 
      5 OG         15.8300   -0.8200   61.0900 O.3       1 SER1        0.0000 
      6 OG         16.2500   -0.2600   62.4100 O.3       1 SER1        0.0000 
      7 OG         11.5500    5.6800   61.3600 O.3       1 SER1        0.0000 
      8 OG         12.6800    4.6900   61.4300 O.3       1 SER1        0.0000 
      9 N          14.3700   -5.0500   56.5600 N.am      2 ALA2        0.0000 
     10 O          12.7700   -4.4600   58.5200 O.2       2 ALA2        0.0000 
     11 N          10.9400   -1.9100   59.7000 N.am      2 ALA2        0.0000 
     12 N          12.0700   -2.9000   59.7700 N.am      2 ALA2        0.0000 
     13 N          13.1900   -3.9000   59.8400 N.am      2 ALA2        0.0000 
     14 N          12.4900   -2.3400   61.0900 N.am      2 ALA2        0.0000 
     15 N          12.2700   -0.3700   60.3200 N.am      2 ALA2        0.0000 
     16 N          13.3900   -1.3700   60.3900 N.am      2 ALA2        0.0000 
     17 N          13.1700    0.6000   59.6200 N.am      2 ALA2        0.0000 
     18 N          13.8100   -0.8000   61.7200 N.am      2 ALA2        0.0000 
     19 O          12.4700    2.1600   60.8800 O.2       2 ALA2        0.0000 
     20 N          13.1100    0.7600   62.9700 N.am      2 ALA2        0.0000 
     21 N          14.2300   -0.2300   63.0400 N.am      2 ALA2        0.0000 
     22 O          10.6500    4.7100   62.0600 O.2       2 ALA2        0.0000 
     23 O          11.7700    3.7200   62.1300 O.2       2 ALA2        0.0000 
     24 O          12.8900    2.7200   62.2000 O.2       2 ALA2        0.0000 
     25 O          14.0100    1.7300   62.2700 O.2       2 ALA2        0.0000 
     26 N          17.8500    3.6500   60.2300 N.am      2 ALA2        0.0000 
     27 N          14.4300    2.3000   63.5900 N.am      2 ALA2        0.0000 
     28 N          13.1000    5.2600   62.7500 N.am      2 ALA2        0.0000 
     29 N          14.2200    4.2600   62.8200 N.am      2 ALA2        0.0000 
     30 N          15.3400    3.2700   62.8900 N.am      2 ALA2        0.0000 
     31 N          16.2400    4.2400   62.1900 N.am      2 ALA2        0.0000 
     32 N          17.3600    3.2400   62.2600 N.am      2 ALA2        0.0000 
     33 N          17.1500    5.2100   61.4900 N.am      2 ALA2        0.0000 
     34 N          18.2700    4.2100   61.5600 N.am      2 ALA2        0.0000 
     35 N          18.0500    6.1800   60.7900 N.am      2 ALA2        0.0000 
     36 N          17.8300    8.1400   60.0200 N.am      2 ALA2        0.0000 
     37 CZ         11.6400   -3.4700   58.4500 C.ar      3 PHE5        0.0000 
     38 CZ         12.5500   -2.5000   57.7500 C.ar      3 PHE5        0.0000 
     39 CZ         13.4500   -1.5300   57.0400 C.ar      3 PHE5        0.0000 
     40 CZ         13.2400    0.4400   56.2700 C.ar      3 PHE5        0.0000 
     41 CZ         10.7300    0.0600   58.9300 C.ar      3 PHE5        0.0000 
     42 CZ         11.8500   -0.9400   59.0000 C.ar      3 PHE5        0.0000 
     43 CZ         12.9700   -1.9300   59.0700 C.ar      3 PHE5        0.0000 
     44 CZ         11.6300    1.0300   58.2300 C.ar      3 PHE5        0.0000 
     45 CZ         12.7500    0.0300   58.3000 C.ar      3 PHE5        0.0000 
     46 CZ         13.8700   -0.9600   58.3700 C.ar      3 PHE5        0.0000 
     47 CZ         13.6600    1.0000   57.6000 C.ar      3 PHE5        0.0000 
     48 CZ         14.7800    0.0100   57.6700 C.ar      3 PHE5        0.0000 
     49 CZ         15.9000   -0.9900   57.7400 C.ar      3 PHE5        0.0000 
     50 CZ         13.5800    5.6600   60.7300 C.ar      3 PHE5        0.0000 
     51 CZ         14.0000    6.2300   62.0500 C.ar      3 PHE5        0.0000 
     52 CA         13.6700   -3.4900   57.8200 C.3       4 GLY6        0.0000 
     53 CA         14.7900   -4.4900   57.8800 C.3       4 GLY6        0.0000 
     54 CA         14.5700   -2.5200   57.1100 C.3       4 GLY6        0.0000 
     55 CA         10.5100    2.0200   58.1600 C.3       4 GLY6        0.0000 
     56 CA         16.1100   -2.9500   58.5100 C.3       4 GLY6        0.0000 
     57 CA         12.0500    1.5900   59.5500 C.3       4 GLY6        0.0000 
     58 CA         15.4100   -1.3900   59.7600 C.3       4 GLY6        0.0000 
     59 CA         16.7200    4.6400   60.1600 C.3       4 GLY6        0.0000 
     60 CA         13.3100    3.2900   63.5200 C.3       4 GLY6        0.0000 
     61 CA         11.9700    6.2500   62.6800 C.3       4 GLY6        0.0000 
     62 CA         14.9000    7.1900   61.3500 C.3       4 GLY6        0.0000 
     63 CA         16.0200    6.2000   61.4200 C.3       4 GLY6        0.0000 
     64 CA         16.9300    7.1700   60.7200 C.3       4 GLY6        0.0000 
     65 CA         16.7100    9.1300   59.9500 C.3       4 GLY6        0.0000 
     66 CA         17.6200   10.1000   59.2400 C.3       4 GLY6        0.0000 
     67 DU         14.0900   -2.9300   59.1400 H         5 CUB7        0.0000 
     68 DU         14.9900   -1.9600   58.4400 H         5 CUB7        0.0000 
     69 DU         14.2900   -0.4000   59.6900 H         5 CUB7        0.0000 
     70 DU         15.1300    0.7400   62.3400 H         5 CUB7        0.0000 
     71 DU         13.8000    3.6900   61.5000 H         5 CUB7        0.0000 
     72 DU         14.9200    2.7000   61.5700 H         5 CUB7        0.0000 
     73 DU         16.4600    2.2700   62.9600 H         5 CUB7        0.0000 
     74 DU         15.1200    5.2300   62.1200 H         5 CUB7        0.0000 
@<TRIPOS>BOND
@<TRIPOS>SUBSTRUCTURE
     1 SER1        1 GROUP   
     2 ALA2        9 GROUP   
     3 PHE5       37 GROUP   
     4 GLY6       52 GROUP   
     5 CUB7       67 GROUP   
@<TRIPOS>SET

