#    Name: 6qtl_2_CFF
#    Modification time : Fri May 22 19:28:48 2020

@<TRIPOS>MOLECULE
6qtl_2_CFF
   14    15     1     0     0
SMALL
NO_CHARGES


@<TRIPOS>ATOM
      1 N1         16.1150    3.7350   52.6840 N.am      1 CFF201      0.0000 
      2 C2         16.0170    2.7490   51.7090 C.2       1 CFF201      0.0000 
      3 C10        17.1400    4.7650   52.4950 C.3       1 CFF201      0.0000 
      4 C6         15.2920    3.8550   53.8190 C.2       1 CFF201      0.0000 
      5 N3         14.9820    1.8400   51.8250 N.am      1 CFF201      0.0000 
      6 O11        16.8650    2.6300   50.8470 O.2       1 CFF201      0.0000 
      7 C12        14.7710    0.8610   50.7540 C.3       1 CFF201      0.0000 
      8 C4         14.1570    1.8860   52.9140 C.2       1 CFF201      0.0000 
      9 C5         14.3070    2.8440   53.8810 C.2       1 CFF201      0.0000 
     10 N9         13.1640    1.0140   53.2180 N.2       1 CFF201      0.0000 
     11 O13        15.4570    4.7690   54.6210 O.2       1 CFF201      0.0000 
     12 N7         13.3550    2.5500   54.8380 N.pl3     1 CFF201      0.0000 
     13 C8         12.7060    1.4500   54.3850 C.2       1 CFF201      0.0000 
     14 C14        13.1070    3.2590   56.0910 C.3       1 CFF201      0.0000 
@<TRIPOS>BOND
     1    1    2 am   
     2    1    3 1    
     3    1    4 am   
     4    2    5 am   
     5    2    6 2    
     6    4    9 1    
     7    4   11 2    
     8    5    7 1    
     9    5    8 1    
    10    8    9 2    
    11    8   10 1    
    12    9   12 1    
    13   10   13 2    
    14   12   13 1    
    15   12   14 1    
@<TRIPOS>SUBSTRUCTURE
     1 CFF201      1 GROUP   
@<TRIPOS>SET

