#    Name: 6qtl_2_CFF_CAVITY_N1_6
#    Modification time : Fri May 22 19:28:49 2020

@<TRIPOS>MOLECULE
6qtl_2_CFF_CAVITY_N1_6
   25     0     5     0     0
SMALL
NO_CHARGES


@<TRIPOS>ATOM
      1 OG         12.6800    4.6900   61.4300 O.3       1 SER1        0.0000 
      2 N          12.2700   -0.3700   60.3200 N.am      2 ALA2        0.0000 
      3 N          13.1700    0.6000   59.6200 N.am      2 ALA2        0.0000 
      4 O          12.4700    2.1600   60.8800 O.2       2 ALA2        0.0000 
      5 CZ         12.5500   -2.5000   57.7500 C.ar      3 PHE5        0.0000 
      6 CZ         13.4500   -1.5300   57.0400 C.ar      3 PHE5        0.0000 
      7 CZ         13.2400    0.4400   56.2700 C.ar      3 PHE5        0.0000 
      8 CZ         10.7300    0.0600   58.9300 C.ar      3 PHE5        0.0000 
      9 CZ         11.8500   -0.9400   59.0000 C.ar      3 PHE5        0.0000 
     10 CZ         12.9700   -1.9300   59.0700 C.ar      3 PHE5        0.0000 
     11 CZ         11.6300    1.0300   58.2300 C.ar      3 PHE5        0.0000 
     12 CZ         12.7500    0.0300   58.3000 C.ar      3 PHE5        0.0000 
     13 CZ         13.8700   -0.9600   58.3700 C.ar      3 PHE5        0.0000 
     14 CZ         13.6600    1.0000   57.6000 C.ar      3 PHE5        0.0000 
     15 CZ         14.7800    0.0100   57.6700 C.ar      3 PHE5        0.0000 
     16 CZ         15.9000   -0.9900   57.7400 C.ar      3 PHE5        0.0000 
     17 CZ         13.5800    5.6600   60.7300 C.ar      3 PHE5        0.0000 
     18 CA         14.5700   -2.5200   57.1100 C.3       4 GLY6        0.0000 
     19 CA         10.5100    2.0200   58.1600 C.3       4 GLY6        0.0000 
     20 CA         12.0500    1.5900   59.5500 C.3       4 GLY6        0.0000 
     21 CA         16.7200    4.6400   60.1600 C.3       4 GLY6        0.0000 
     22 DU         14.9900   -1.9600   58.4400 H         5 CUB7        0.0000 
     23 DU         14.2900   -0.4000   59.6900 H         5 CUB7        0.0000 
     24 DU         13.8000    3.6900   61.5000 H         5 CUB7        0.0000 
     25 DU         14.9200    2.7000   61.5700 H         5 CUB7        0.0000 
@<TRIPOS>BOND
@<TRIPOS>SUBSTRUCTURE
     1 SER1        1 GROUP   
     2 ALA2        2 GROUP   
     3 PHE5        5 GROUP   
     4 GLY6       18 GROUP   
     5 CUB7       22 GROUP   
@<TRIPOS>SET

