#    Name: 6sk4_4_THH
#    Modification time : Fri May 22 19:25:05 2020

@<TRIPOS>MOLECULE
6sk4_4_THH
   33    35     1     0     0
SMALL
NO_CHARGES


@<TRIPOS>ATOM
      1 OE1       -53.2610  -17.5340   26.7600 O.co2     1 THH901      0.0000 
      2 CD        -54.0500  -16.5830   26.9380 C.2       1 THH901      0.0000 
      3 OE2       -53.7580  -15.3850   26.7510 O.co2     1 THH901      0.0000 
      4 CG        -55.4420  -16.9470   27.4350 C.3       1 THH901      0.0000 
      5 CB        -56.2850  -15.7010   27.6780 C.3       1 THH901      0.0000 
      6 CA        -55.9550  -15.1640   29.0820 C.3       1 THH901      0.0000 
      7 CT        -56.6860  -13.8290   29.3120 C.2       1 THH901      0.0000 
      8 O1        -57.7160  -13.8490   30.0200 O.co2     1 THH901      0.0000 
      9 O2        -56.1920  -12.8110   28.7870 O.co2     1 THH901      0.0000 
     10 N         -56.3590  -16.1010   30.1580 N.am      1 THH901      0.0000 
     11 C         -55.8240  -15.9180   31.3830 C.2       1 THH901      0.0000 
     12 O         -55.0460  -14.9760   31.5750 O.2       1 THH901      0.0000 
     13 C12       -56.2380  -16.7490   32.4540 C.ar      1 THH901      0.0000 
     14 C13       -55.9200  -16.3430   33.7490 C.ar      1 THH901      0.0000 
     15 C14       -56.3010  -17.0840   34.8700 C.ar      1 THH901      0.0000 
     16 C15       -57.0290  -18.2640   34.7300 C.ar      1 THH901      0.0000 
     17 C16       -57.3500  -18.6910   33.4400 C.ar      1 THH901      0.0000 
     18 C17       -56.9720  -17.9400   32.3200 C.ar      1 THH901      0.0000 
     19 N10       -57.4130  -19.0060   35.7900 N.pl3     1 THH901      0.0000 
     20 C9        -57.4350  -18.5100   37.1920 C.3       1 THH901      0.0000 
     21 C6        -58.5100  -17.4100   37.3900 C.3       1 THH901      0.0000 
     22 C7        -59.8930  -17.9850   37.1910 C.3       1 THH901      0.0000 
     23 N8        -60.1920  -18.8160   38.3840 N.pl3     1 THH901      0.0000 
     24 C8A       -59.6300  -18.5300   39.6130 C.ar      1 THH901      0.0000 
     25 N1        -59.9900  -19.3140   40.6450 N.ar      1 THH901      0.0000 
     26 C4A       -58.7190  -17.4850   39.7790 C.ar      1 THH901      0.0000 
     27 N5        -58.3780  -16.7170   38.7150 N.3       1 THH901      0.0000 
     28 C11       -59.1050  -15.4220   38.7160 C.3       1 THH901      0.0000 
     29 C4        -58.1710  -17.2300   41.0480 C.ar      1 THH901      0.0000 
     30 O4        -57.3680  -16.3280   41.3170 O.3       1 THH901      0.0000 
     31 N3        -58.5660  -18.0660   42.0740 N.ar      1 THH901      0.0000 
     32 C2        -59.4750  -19.0910   41.8650 C.ar      1 THH901      0.0000 
     33 NA2       -59.8100  -19.8610   42.8980 N.pl3     1 THH901      0.0000 
@<TRIPOS>BOND
     1    1    2 ar   
     2    2    3 ar   
     3    2    4 1    
     4    4    5 1    
     5    5    6 1    
     6    6    7 1    
     7    6   10 1    
     8    7    8 ar   
     9    7    9 ar   
    10   10   11 am   
    11   11   12 2    
    12   11   13 1    
    13   13   14 ar   
    14   13   18 ar   
    15   14   15 ar   
    16   15   16 ar   
    17   16   17 ar   
    18   16   19 1    
    19   17   18 ar   
    20   19   20 1    
    21   20   21 1    
    22   21   22 1    
    23   21   27 1    
    24   22   23 1    
    25   23   24 1    
    26   24   25 ar   
    27   24   26 ar   
    28   25   32 ar   
    29   26   27 1    
    30   26   29 ar   
    31   27   28 1    
    32   29   30 1    
    33   29   31 ar   
    34   31   32 ar   
    35   32   33 1    
@<TRIPOS>SUBSTRUCTURE
     1 THH901      1 GROUP   
@<TRIPOS>SET

