#    Name: 6sk4_3_THH
#    Modification time : Fri May 22 19:25:02 2020

@<TRIPOS>MOLECULE
6sk4_3_THH
   33    35     1     0     0
SMALL
NO_CHARGES


@<TRIPOS>ATOM
      1 OE1       -24.3070  -28.5140   27.7670 O.co2     1 THH901      0.0000 
      2 CD        -23.5260  -29.3980   28.1730 C.2       1 THH901      0.0000 
      3 OE2       -23.8130  -30.6100   28.2900 O.co2     1 THH901      0.0000 
      4 CG        -22.1280  -28.9330   28.5120 C.3       1 THH901      0.0000 
      5 CB        -21.2830  -30.0790   29.0420 C.3       1 THH901      0.0000 
      6 CA        -21.7190  -30.3760   30.4910 C.3       1 THH901      0.0000 
      7 CT        -21.0710  -31.6930   30.9540 C.2       1 THH901      0.0000 
      8 O1        -20.1400  -31.6190   31.7890 O.co2     1 THH901      0.0000 
      9 O2        -21.5160  -32.7500   30.4490 O.co2     1 THH901      0.0000 
     10 N         -21.3160  -29.2800   31.3990 N.am      1 THH901      0.0000 
     11 C         -21.8920  -29.1590   32.6150 C.2       1 THH901      0.0000 
     12 O         -22.7300  -29.9750   33.0050 O.2       1 THH901      0.0000 
     13 C12       -21.4430  -28.1210   33.4680 C.ar      1 THH901      0.0000 
     14 C13       -21.7170  -28.2110   34.8390 C.ar      1 THH901      0.0000 
     15 C14       -21.2890  -27.2260   35.7260 C.ar      1 THH901      0.0000 
     16 C15       -20.5640  -26.1230   35.2760 C.ar      1 THH901      0.0000 
     17 C16       -20.2830  -26.0230   33.9160 C.ar      1 THH901      0.0000 
     18 C17       -20.7140  -27.0070   33.0220 C.ar      1 THH901      0.0000 
     19 N10       -20.1320  -25.1530   36.0960 N.pl3     1 THH901      0.0000 
     20 C9        -20.0730  -25.2460   37.5800 C.3       1 THH901      0.0000 
     21 C6        -19.0190  -26.2790   38.0540 C.3       1 THH901      0.0000 
     22 C7        -17.6320  -25.8080   37.7630 C.3       1 THH901      0.0000 
     23 N8        -17.3400  -24.6860   38.6860 N.pl3     1 THH901      0.0000 
     24 C8A       -17.8680  -24.6910   39.9750 C.ar      1 THH901      0.0000 
     25 N1        -17.4820  -23.7160   40.8080 N.ar      1 THH901      0.0000 
     26 C4A       -18.7890  -25.6630   40.3730 C.ar      1 THH901      0.0000 
     27 N5        -19.1590  -26.6340   39.4990 N.3       1 THH901      0.0000 
     28 C11       -18.4500  -27.9110   39.7710 C.3       1 THH901      0.0000 
     29 C4        -19.3200  -25.6410   41.6690 C.ar      1 THH901      0.0000 
     30 O4        -20.1240  -26.4750   42.1050 O.3       1 THH901      0.0000 
     31 N3        -18.8950  -24.6090   42.5130 N.ar      1 THH901      0.0000 
     32 C2        -17.9670  -23.6590   42.0580 C.ar      1 THH901      0.0000 
     33 NA2       -17.5760  -22.6830   42.8440 N.pl3     1 THH901      0.0000 
@<TRIPOS>BOND
     1    1    2 ar   
     2    2    3 ar   
     3    2    4 1    
     4    4    5 1    
     5    5    6 1    
     6    6    7 1    
     7    6   10 1    
     8    7    8 ar   
     9    7    9 ar   
    10   10   11 am   
    11   11   12 2    
    12   11   13 1    
    13   13   14 ar   
    14   13   18 ar   
    15   14   15 ar   
    16   15   16 ar   
    17   16   17 ar   
    18   16   19 1    
    19   17   18 ar   
    20   19   20 1    
    21   20   21 1    
    22   21   22 1    
    23   21   27 1    
    24   22   23 1    
    25   23   24 1    
    26   24   25 ar   
    27   24   26 ar   
    28   25   32 ar   
    29   26   27 1    
    30   26   29 ar   
    31   27   28 1    
    32   29   30 1    
    33   29   31 ar   
    34   31   32 ar   
    35   32   33 1    
@<TRIPOS>SUBSTRUCTURE
     1 THH901      1 GROUP   
@<TRIPOS>SET

