#    Name: 6sk4_1_THH
#    Modification time : Fri May 22 19:24:58 2020

@<TRIPOS>MOLECULE
6sk4_1_THH
   33    35     1     0     0
SMALL
NO_CHARGES


@<TRIPOS>ATOM
      1 OE1        -6.0910    1.4970   14.3650 O.co2     1 THH901      0.0000 
      2 CD         -5.6660    2.6580   14.2120 C.2       1 THH901      0.0000 
      3 OE2        -6.2720    3.7040   14.5340 O.co2     1 THH901      0.0000 
      4 CG         -4.3170    2.8280   13.5640 C.3       1 THH901      0.0000 
      5 CB         -4.5710    4.0400   12.6950 C.3       1 THH901      0.0000 
      6 CA         -3.3490    4.3440   11.8140 C.3       1 THH901      0.0000 
      7 CT         -2.0310    4.4070   12.5940 C.2       1 THH901      0.0000 
      8 O1         -1.0940    3.7090   12.1510 O.co2     1 THH901      0.0000 
      9 O2         -1.9640    5.1980   13.5550 O.co2     1 THH901      0.0000 
     10 N          -3.1490    3.3740   10.7230 N.am      1 THH901      0.0000 
     11 C          -3.8490    3.4760    9.5780 C.2       1 THH901      0.0000 
     12 O          -4.7000    4.3550    9.4140 O.2       1 THH901      0.0000 
     13 C12        -3.4710    2.6330    8.5220 C.ar      1 THH901      0.0000 
     14 C13        -3.8300    3.0170    7.2340 C.ar      1 THH901      0.0000 
     15 C14        -3.4640    2.2560    6.1270 C.ar      1 THH901      0.0000 
     16 C15        -2.7090    1.1020    6.2860 C.ar      1 THH901      0.0000 
     17 C16        -2.3340    0.7110    7.5620 C.ar      1 THH901      0.0000 
     18 C17        -2.7000    1.4750    8.6690 C.ar      1 THH901      0.0000 
     19 N10        -2.3250    0.3310    5.2750 N.pl3     1 THH901      0.0000 
     20 C9         -2.2230    0.7670    3.8570 C.3       1 THH901      0.0000 
     21 C6         -1.1520    1.8640    3.6580 C.3       1 THH901      0.0000 
     22 C7          0.2230    1.2770    3.8680 C.3       1 THH901      0.0000 
     23 N8          0.5600    0.4740    2.6680 N.pl3     1 THH901      0.0000 
     24 C8A        -0.0110    0.7510    1.4470 C.ar      1 THH901      0.0000 
     25 N1          0.3580   -0.0470    0.4380 N.ar      1 THH901      0.0000 
     26 C4A        -0.9320    1.7890    1.2640 C.ar      1 THH901      0.0000 
     27 N5         -1.2800    2.5590    2.3280 N.3       1 THH901      0.0000 
     28 C11        -0.5710    3.8560    2.3110 C.3       1 THH901      0.0000 
     29 C4         -1.4890    2.0260   -0.0010 C.ar      1 THH901      0.0000 
     30 O4         -2.2930    2.9230   -0.2670 O.3       1 THH901      0.0000 
     31 N3         -1.0740    1.1800   -1.0170 N.ar      1 THH901      0.0000 
     32 C2         -0.1510    0.1590   -0.7760 C.ar      1 THH901      0.0000 
     33 NA2         0.2270   -0.6510   -1.7440 N.pl3     1 THH901      0.0000 
@<TRIPOS>BOND
     1    1    2 ar   
     2    2    3 ar   
     3    2    4 1    
     4    4    5 1    
     5    5    6 1    
     6    6    7 1    
     7    6   10 1    
     8    7    8 ar   
     9    7    9 ar   
    10   10   11 am   
    11   11   12 2    
    12   11   13 1    
    13   13   14 ar   
    14   13   18 ar   
    15   14   15 ar   
    16   15   16 ar   
    17   16   17 ar   
    18   16   19 1    
    19   17   18 ar   
    20   19   20 1    
    21   20   21 1    
    22   21   22 1    
    23   21   27 1    
    24   22   23 1    
    25   23   24 1    
    26   24   25 ar   
    27   24   26 ar   
    28   25   32 ar   
    29   26   27 1    
    30   26   29 ar   
    31   27   28 1    
    32   29   30 1    
    33   29   31 ar   
    34   31   32 ar   
    35   32   33 1    
@<TRIPOS>SUBSTRUCTURE
     1 THH901      1 GROUP   
@<TRIPOS>SET

