#    Name: 6sk4_3_THH_CAVITY_N1_8
#    Modification time : Fri May 22 19:25:03 2020

@<TRIPOS>MOLECULE
6sk4_3_THH_CAVITY_N1_8
   92     0     7     0     0
SMALL
NO_CHARGES


@<TRIPOS>ATOM
      1 OG        -19.2500  -25.8200   33.7000 O.3       1 SER1        0.0000 
      2 OG        -20.2800  -26.0200   34.7800 O.3       1 SER1        0.0000 
      3 OG        -21.3000  -26.2100   35.8500 O.3       1 SER1        0.0000 
      4 OG        -19.2500  -25.6700   35.8100 O.3       1 SER1        0.0000 
      5 N         -24.2600  -32.0800   29.8900 N.am      2 ALA2        0.0000 
      6 N         -20.1500  -31.1500   27.7000 N.am      2 ALA2        0.0000 
      7 N         -20.1600  -31.0000   29.8100 N.am      2 ALA2        0.0000 
      8 N         -20.5400  -29.5600   29.7100 N.am      2 ALA2        0.0000 
      9 N         -22.2100  -31.2400   34.0800 N.am      2 ALA2        0.0000 
     10 N         -22.5900  -29.7900   33.9800 N.am      2 ALA2        0.0000 
     11 N         -22.9700  -28.3500   33.8700 N.am      2 ALA2        0.0000 
     12 N         -21.1900  -30.9000   35.1200 N.am      2 ALA2        0.0000 
     13 N         -21.5700  -29.4500   35.0200 N.am      2 ALA2        0.0000 
     14 N         -21.9500  -28.0000   34.9100 N.am      2 ALA2        0.0000 
     15 N         -20.5400  -29.1100   36.0600 N.am      2 ALA2        0.0000 
     16 N         -20.9200  -27.6600   35.9500 N.am      2 ALA2        0.0000 
     17 N         -19.9000  -27.3100   36.9900 N.am      2 ALA2        0.0000 
     18 N         -20.2800  -25.8700   36.8900 N.am      2 ALA2        0.0000 
     19 N         -18.8700  -26.9700   38.0300 N.am      2 ALA2        0.0000 
     20 N         -19.2500  -25.5200   37.9300 N.am      2 ALA2        0.0000 
     21 N         -20.2800  -25.7200   39.0100 N.am      2 ALA2        0.0000 
     22 N         -18.4900  -28.2700   40.2500 N.am      2 ALA2        0.0000 
     23 N         -18.8700  -26.8200   40.1500 N.am      2 ALA2        0.0000 
     24 O         -19.9000  -27.0100   41.2300 O.2       2 ALA2        0.0000 
     25 O         -18.4900  -28.1200   42.3700 O.2       2 ALA2        0.0000 
     26 O         -18.8800  -26.6700   42.2700 O.2       2 ALA2        0.0000 
     27 O         -16.1800  -24.4900   41.0500 O.2       2 ALA2        0.0000 
     28 O         -17.2000  -24.6900   42.1300 O.2       2 ALA2        0.0000 
     29 O         -17.5900  -23.2400   42.0200 O.2       2 ALA2        0.0000 
     30 O         -16.1800  -24.3400   43.1700 O.2       2 ALA2        0.0000 
     31 OD1       -23.6100  -30.4400   28.7100 O.co2     3 ASP3        0.0000 
     32 NZ        -18.2300  -25.3300   36.8500 N.4       4 LYS4        0.0000 
     33 NZ        -16.8200  -26.4300   38.0000 N.4       4 LYS4        0.0000 
     34 NZ        -17.2000  -24.9900   37.8900 N.4       4 LYS4        0.0000 
     35 NZ        -18.2300  -25.1800   38.9700 N.4       4 LYS4        0.0000 
     36 NZ        -17.2000  -24.8400   40.0100 N.4       4 LYS4        0.0000 
     37 NZ        -19.2600  -25.2200   42.1600 N.4       4 LYS4        0.0000 
     38 NZ        -19.6400  -23.7800   42.0600 N.4       4 LYS4        0.0000 
     39 NZ        -18.2300  -24.8800   43.2000 N.4       4 LYS4        0.0000 
     40 CZ        -20.9200  -28.1100   29.6100 C.ar      5 PHE5        0.0000 
     41 CA        -22.5900  -30.0900   29.7500 C.3       6 GLY6        0.0000 
     42 CA        -22.9700  -28.6500   29.6400 C.3       6 GLY6        0.0000 
     43 CA        -23.2300  -31.7300   30.9300 C.3       6 GLY6        0.0000 
     44 CA        -23.6100  -30.2900   30.8200 C.3       6 GLY6        0.0000 
     45 CA        -21.9400  -28.3000   30.6800 C.3       6 GLY6        0.0000 
     46 CA        -21.8300  -32.8400   32.0700 C.3       6 GLY6        0.0000 
     47 CA        -22.2100  -31.3900   31.9600 C.3       6 GLY6        0.0000 
     48 CA        -22.5900  -29.9400   31.8600 C.3       6 GLY6        0.0000 
     49 CA        -22.9700  -28.5000   31.7600 C.3       6 GLY6        0.0000 
     50 CA        -20.9200  -27.9600   31.7200 C.3       6 GLY6        0.0000 
     51 CA        -21.3000  -26.5100   31.6200 C.3       6 GLY6        0.0000 
     52 CA        -21.9500  -28.1500   32.8000 C.3       6 GLY6        0.0000 
     53 CA        -19.8900  -27.6100   32.7600 C.3       6 GLY6        0.0000 
     54 CA        -20.2700  -26.1700   32.6600 C.3       6 GLY6        0.0000 
     55 CA        -21.3000  -26.3600   33.7400 C.3       6 GLY6        0.0000 
     56 CA        -22.3300  -26.5500   34.8100 C.3       6 GLY6        0.0000 
     57 CA        -18.8700  -27.2700   33.8000 C.3       6 GLY6        0.0000 
     58 CA        -17.8400  -26.9300   34.8400 C.3       6 GLY6        0.0000 
     59 CA        -16.4400  -28.0300   35.9800 C.3       6 GLY6        0.0000 
     60 CA        -16.8200  -26.5800   35.8800 C.3       6 GLY6        0.0000 
     61 CA        -19.6300  -24.0800   37.8300 C.3       6 GLY6        0.0000 
     62 CA        -18.6100  -23.7300   38.8700 C.3       6 GLY6        0.0000 
     63 CA        -19.2500  -25.3700   40.0500 C.3       6 GLY6        0.0000 
     64 CA        -17.5800  -23.3900   39.9100 C.3       6 GLY6        0.0000 
     65 CA        -18.6100  -23.5800   40.9800 C.3       6 GLY6        0.0000 
     66 CA        -17.4700  -27.7700   43.4100 C.3       6 GLY6        0.0000 
     67 CA        -17.8500  -26.3300   43.3100 C.3       6 GLY6        0.0000 
     68 DU        -21.5600  -29.9000   28.6700 H         7 CUB7        0.0000 
     69 DU        -22.2100  -31.5400   29.8500 H         7 CUB7        0.0000 
     70 DU        -21.1800  -31.2000   30.8900 H         7 CUB7        0.0000 
     71 DU        -21.5600  -29.7500   30.7900 H         7 CUB7        0.0000 
     72 DU        -21.1800  -31.0500   33.0000 H         7 CUB7        0.0000 
     73 DU        -21.5600  -29.6000   32.9000 H         7 CUB7        0.0000 
     74 DU        -20.5400  -29.2600   33.9400 H         7 CUB7        0.0000 
     75 DU        -20.9200  -27.8100   33.8400 H         7 CUB7        0.0000 
     76 DU        -18.1100  -30.1700   34.0100 H         7 CUB7        0.0000 
     77 DU        -19.9000  -27.4600   34.8800 H         7 CUB7        0.0000 
     78 DU        -18.4900  -28.5700   36.0200 H         7 CUB7        0.0000 
     79 DU        -18.8700  -27.1200   35.9200 H         7 CUB7        0.0000 
     80 DU        -17.4600  -28.2200   37.0600 H         7 CUB7        0.0000 
     81 DU        -17.8500  -26.7800   36.9600 H         7 CUB7        0.0000 
     82 DU        -17.4700  -28.0700   39.1800 H         7 CUB7        0.0000 
     83 DU        -17.8500  -26.6300   39.0700 H         7 CUB7        0.0000 
     84 DU        -16.4400  -27.7300   40.2200 H         7 CUB7        0.0000 
     85 DU        -16.8200  -26.2800   40.1100 H         7 CUB7        0.0000 
     86 DU        -17.4700  -27.9200   41.2900 H         7 CUB7        0.0000 
     87 DU        -17.8500  -26.4800   41.1900 H         7 CUB7        0.0000 
     88 DU        -18.2300  -25.0300   41.0900 H         7 CUB7        0.0000 
     89 DU        -15.4200  -27.3900   41.2600 H         7 CUB7        0.0000 
     90 DU        -16.0600  -29.0300   42.4400 H         7 CUB7        0.0000 
     91 DU        -16.4400  -27.5800   42.3300 H         7 CUB7        0.0000 
     92 DU        -16.8200  -26.1300   42.2300 H         7 CUB7        0.0000 
@<TRIPOS>BOND
@<TRIPOS>SUBSTRUCTURE
     1 SER1        1 GROUP   
     2 ALA2        5 GROUP   
     3 ASP3       31 GROUP   
     4 LYS4       32 GROUP   
     5 PHE5       40 GROUP   
     6 GLY6       41 GROUP   
     7 CUB7       68 GROUP   
@<TRIPOS>SET

