#    Name: 5wp2_1_YTT
#    Modification time : Fri May 22 19:12:06 2020

@<TRIPOS>MOLECULE
5wp2_1_YTT
   42    44     1     0     0
SMALL
NO_CHARGES


@<TRIPOS>ATOM
      1 OB         -7.5400   16.5640    0.3750 O.2       1 YTT402      0.0000 
      2 CB         -7.9360   17.6700    0.5820 C.2       1 YTT402      0.0000 
      3 CAB        -7.0160   18.8550    0.3120 C.3       1 YTT402      0.0000 
      4 CBB        -5.7960   18.7790    1.2690 C.3       1 YTT402      0.0000 
      5 CGB        -6.2130   18.9490    2.7250 C.ar      1 YTT402      0.0000 
      6 CD3        -6.3800   20.2080    3.2160 C.ar      1 YTT402      0.0000 
      7 CE3        -6.7610   20.3790    4.5200 C.ar      1 YTT402      0.0000 
      8 CZB        -6.9910   19.3020    5.3520 C.ar      1 YTT402      0.0000 
      9 OHB        -7.3820   19.4550    6.6850 O.3       1 YTT402      0.0000 
     10 CE4        -6.8300   18.0410    4.8600 C.ar      1 YTT402      0.0000 
     11 CD4        -6.4410   17.8590    3.5500 C.ar      1 YTT402      0.0000 
     12 NB         -7.5890   20.1960    0.3380 N.am      1 YTT402      0.0000 
     13 NA         -9.2650   17.9180    1.0720 N.am      1 YTT402      0.0000 
     14 CAA        -9.7250   19.2730    1.3870 C.3       1 YTT402      0.0000 
     15 CA         -8.8950   20.4460    0.8750 C.2       1 YTT402      0.0000 
     16 OA         -9.3480   21.5420    0.8970 O.2       1 YTT402      0.0000 
     17 CBA        -9.8570   19.3560    2.9420 C.3       1 YTT402      0.0000 
     18 CGA       -11.0150   18.4400    3.3280 C.ar      1 YTT402      0.0000 
     19 CD2       -12.2920   18.9530    3.4550 C.ar      1 YTT402      0.0000 
     20 CE2       -13.3530   18.1260    3.7670 C.ar      1 YTT402      0.0000 
     21 CZA       -13.1570   16.7670    3.9260 C.ar      1 YTT402      0.0000 
     22 OHA       -14.2220   15.9170    4.2140 O.3       1 YTT402      0.0000 
     23 CE1       -11.8800   16.2490    3.8150 C.ar      1 YTT402      0.0000 
     24 CD1       -10.8160   17.0760    3.5210 C.ar      1 YTT402      0.0000 
     25 HAB        -6.6730   18.7280   -0.5860 H         1 YTT402      0.0000 
     26 HBB        -5.1670   19.4790    1.0370 H         1 YTT402      0.0000 
     27 HBBA       -5.3630   17.9170    1.1630 H         1 YTT402      0.0000 
     28 HD3        -6.2310   20.9470    2.6710 H         1 YTT402      0.0000 
     29 HE3        -6.8710   21.2410    4.8520 H         1 YTT402      0.0000 
     30 HOHB       -7.0640   18.8170    7.1480 H         1 YTT402      0.0000 
     31 HE4        -6.9780   17.3050    5.4090 H         1 YTT402      0.0000 
     32 HD4        -6.3340   16.9970    3.2170 H         1 YTT402      0.0000 
     33 HNB        -7.1200   20.8570    0.0520 H         1 YTT402      0.0000 
     34 HNA        -9.7780   17.2500    1.2450 H         1 YTT402      0.0000 
     35 HAA       -10.6140   19.3680    1.0100 H         1 YTT402      0.0000 
     36 HBA       -10.0490   20.2670    3.2110 H         1 YTT402      0.0000 
     37 HBAA       -9.0370   19.0500    3.3620 H         1 YTT402      0.0000 
     38 HD2       -12.4380   19.8620    3.3220 H         1 YTT402      0.0000 
     39 HE2       -14.2110   18.4800    3.8330 H         1 YTT402      0.0000 
     40 HOHA      -14.7470   15.8860    3.5460 H         1 YTT402      0.0000 
     41 HE1       -11.7390   15.3360    3.9290 H         1 YTT402      0.0000 
     42 HD1        -9.9650   16.7150    3.4180 H         1 YTT402      0.0000 
@<TRIPOS>BOND
     1    1    2 2    
     2    2    3 1    
     3    2   13 am   
     4    3    4 1    
     5    3   12 1    
     6    3   25 1    
     7    4    5 1    
     8    4   26 1    
     9    4   27 1    
    10    5    6 ar   
    11    5   11 ar   
    12    6    7 ar   
    13    7    8 ar   
    14    6   28 1    
    15    8    9 1    
    16    7   29 1    
    17    8   10 ar   
    18    9   30 1    
    19   10   11 ar   
    20   12   15 am   
    21   10   31 1    
    22   11   32 1    
    23   13   14 1    
    24   12   33 1    
    25   14   15 1    
    26   13   34 1    
    27   14   17 1    
    28   14   35 1    
    29   15   16 2    
    30   17   18 1    
    31   17   36 1    
    32   17   37 1    
    33   18   19 ar   
    34   18   24 ar   
    35   19   20 ar   
    36   20   21 ar   
    37   19   38 1    
    38   21   22 1    
    39   20   39 1    
    40   21   23 ar   
    41   22   40 1    
    42   23   24 ar   
    43   23   41 1    
    44   24   42 1    
@<TRIPOS>SUBSTRUCTURE
     1 YTT402      1 GROUP   
@<TRIPOS>SET

