#    Name: 6hd1_5_NAP_CAVITY_N1_4
#    Modification time : Fri May 22 19:28:44 2020

@<TRIPOS>MOLECULE
6hd1_5_NAP_CAVITY_N1_4
  118     0     6     0     0
SMALL
NO_CHARGES


@<TRIPOS>ATOM
      1 OG         97.7600  133.3700   90.9300 O.3       1 SER1        0.0000 
      2 OG         95.9000  138.6600   91.1700 O.3       1 SER1        0.0000 
      3 OG         97.1700  136.9700   91.3600 O.3       1 SER1        0.0000 
      4 OG         98.3300  133.9400   92.2000 O.3       1 SER1        0.0000 
      5 OG         96.8400  132.9400   93.3300 O.3       1 SER1        0.0000 
      6 OG         96.4800  139.2300   92.4400 O.3       1 SER1        0.0000 
      7 OG         96.3700  137.8900   93.0900 O.3       1 SER1        0.0000 
      8 N          96.7100  137.7500   89.4400 N.am      2 ALA2        0.0000 
      9 N          99.2500  134.3700   89.8100 N.am      2 ALA2        0.0000 
     10 N          97.8700  134.7200   90.2800 N.am      2 ALA2        0.0000 
     11 N          97.4000  139.6600   90.0500 N.am      2 ALA2        0.0000 
     12 N         100.0500  137.6300   89.7600 N.am      2 ALA2        0.0000 
     13 N          98.6700  137.9700   90.2300 N.am      2 ALA2        0.0000 
     14 N          97.2900  138.3200   90.7000 N.am      2 ALA2        0.0000 
     15 N          98.5600  136.6300   90.8900 N.am      2 ALA2        0.0000 
     16 N         101.1000  133.2500   91.2600 N.am      2 ALA2        0.0000 
     17 O          99.7200  133.6000   91.7300 O.2       2 ALA2        0.0000 
     18 O          98.2200  132.6000   92.8500 O.2       2 ALA2        0.0000 
     19 N          96.7300  131.6000   93.9800 N.am      2 ALA2        0.0000 
     20 O          96.5900  140.5800   91.7800 O.2       2 ALA2        0.0000 
     21 O          99.2400  138.5400   91.5000 O.2       2 ALA2        0.0000 
     22 N         103.0500  133.4800   92.0500 N.am      2 ALA2        0.0000 
     23 N         101.6700  133.8200   92.5200 N.am      2 ALA2        0.0000 
     24 O         100.1800  132.8200   93.6500 O.2       2 ALA2        0.0000 
     25 O          99.8100  139.1100   92.7600 O.2       2 ALA2        0.0000 
     26 N         103.6300  134.0500   93.3100 N.am      2 ALA2        0.0000 
     27 O         102.2400  134.3900   93.7800 O.2       2 ALA2        0.0000 
     28 O         100.7500  133.3900   94.9100 O.2       2 ALA2        0.0000 
     29 O          99.3700  133.7400   95.3800 O.2       2 ALA2        0.0000 
     30 O          99.2600  132.3900   96.0400 O.2       2 ALA2        0.0000 
     31 N         102.8200  134.9600   95.0500 N.am      2 ALA2        0.0000 
     32 O         102.7100  133.6200   95.7000 O.2       2 ALA2        0.0000 
     33 O         101.3300  133.9600   96.1700 O.2       2 ALA2        0.0000 
     34 O         102.6000  132.2700   96.3600 O.2       2 ALA2        0.0000 
     35 O         101.2100  132.6200   96.8300 O.2       2 ALA2        0.0000 
     36 O         103.5000  136.8800   95.6500 O.2       2 ALA2        0.0000 
     37 O         102.1200  137.2200   96.1300 O.2       2 ALA2        0.0000 
     38 N         103.3900  135.5300   96.3100 N.am      2 ALA2        0.0000 
     39 N         103.2800  134.1900   96.9700 N.am      2 ALA2        0.0000 
     40 O         102.6900  137.7900   97.3900 O.2       2 ALA2        0.0000 
     41 N          98.5500  138.8200   98.8100 N.am      2 ALA2        0.0000 
     42 NZ        100.2800  138.3400   94.6800 N.4       3 LYS4        0.0000 
     43 NZ         98.8900  138.6800   95.1500 N.4       3 LYS4        0.0000 
     44 NZ         98.7800  137.3400   95.8100 N.4       3 LYS4        0.0000 
     45 NZ        100.7400  137.5600   96.6000 N.4       3 LYS4        0.0000 
     46 NZ         99.3600  137.9100   97.0700 N.4       3 LYS4        0.0000 
     47 NZ        101.3100  138.1300   97.8600 N.4       3 LYS4        0.0000 
     48 NZ         99.9300  138.4800   98.3300 N.4       3 LYS4        0.0000 
     49 NZ        100.5000  139.0500   99.6000 N.4       3 LYS4        0.0000 
     50 CZ         98.4500  135.2900   91.5400 C.ar      4 PHE5        0.0000 
     51 CZ         97.7500  137.5400   92.6200 C.ar      4 PHE5        0.0000 
     52 CZ        101.7800  135.1700   91.8600 C.ar      4 PHE5        0.0000 
     53 CZ         97.6400  136.2000   93.2800 C.ar      4 PHE5        0.0000 
     54 CZ         97.5300  134.8500   93.9300 C.ar      4 PHE5        0.0000 
     55 CZ         97.4200  133.5100   94.5900 C.ar      4 PHE5        0.0000 
     56 CZ        102.3600  135.7400   93.1300 C.ar      4 PHE5        0.0000 
     57 CZ         96.8300  137.1100   95.0100 C.ar      4 PHE5        0.0000 
     58 CZ         96.7200  135.7700   95.6700 C.ar      4 PHE5        0.0000 
     59 CZ        102.9300  136.3100   94.3900 C.ar      4 PHE5        0.0000 
     60 CZ        101.5500  136.6500   94.8600 C.ar      4 PHE5        0.0000 
     61 CZ        101.9000  134.5300   97.4400 C.ar      4 PHE5        0.0000 
     62 CZ        103.1700  132.8400   97.6200 C.ar      4 PHE5        0.0000 
     63 CZ        103.8500  134.7600   98.2300 C.ar      4 PHE5        0.0000 
     64 CZ        102.4700  135.1000   98.7000 C.ar      4 PHE5        0.0000 
     65 CZ        101.0900  135.4400   99.1700 C.ar      4 PHE5        0.0000 
     66 CZ        101.6600  136.0100  100.4400 C.ar      4 PHE5        0.0000 
     67 CA         99.3600  135.7200   89.1500 C.3       5 GLY6        0.0000 
     68 CA         97.9800  136.0600   89.6200 C.3       5 GLY6        0.0000 
     69 CA        100.6400  134.0300   89.3400 C.3       5 GLY6        0.0000 
     70 CA         99.1400  133.0300   90.4600 C.3       5 GLY6        0.0000 
     71 CA        101.3200  135.9400   89.9400 C.3       5 GLY6        0.0000 
     72 CA         99.9400  136.2900   90.4200 C.3       5 GLY6        0.0000 
     73 CA        101.2100  134.6000   90.6000 C.3       5 GLY6        0.0000 
     74 CA         97.8600  138.8900   91.9700 C.3       5 GLY6        0.0000 
     75 CA        100.5100  136.8600   91.6800 C.3       5 GLY6        0.0000 
     76 CA         99.1300  137.2000   92.1500 C.3       5 GLY6        0.0000 
     77 CA        103.1600  134.8200   91.3900 C.3       5 GLY6        0.0000 
     78 CA         98.8000  133.1700   94.1200 C.3       5 GLY6        0.0000 
     79 CA         97.3000  132.1700   95.2500 C.3       5 GLY6        0.0000 
     80 CA         98.4300  139.4600   93.2300 C.3       5 GLY6        0.0000 
     81 CA         97.0500  139.8000   93.7000 C.3       5 GLY6        0.0000 
     82 CA        101.0800  137.4300   92.9400 C.3       5 GLY6        0.0000 
     83 CA         99.7000  137.7700   93.4100 C.3       5 GLY6        0.0000 
     84 CA         98.3200  138.1100   93.8900 C.3       5 GLY6        0.0000 
     85 CA        100.9700  136.0800   93.6000 C.3       5 GLY6        0.0000 
     86 CA        101.6600  137.9900   94.2100 C.3       5 GLY6        0.0000 
     87 CA        102.2300  138.5600   95.4700 C.3       5 GLY6        0.0000 
     88 CA        102.5800  136.4400   98.0500 C.3       5 GLY6        0.0000 
     89 CA        103.1600  137.0100   99.3100 C.3       5 GLY6        0.0000 
     90 DU         96.0100  140.0100   90.5200 H         6 CUB7        0.0000 
     91 DU         99.8300  134.9400   91.0700 H         6 CUB7        0.0000 
     92 DU        100.4000  135.5100   92.3400 H         6 CUB7        0.0000 
     93 DU         99.0200  135.8600   92.8100 H         6 CUB7        0.0000 
     94 DU        100.2900  134.1700   92.9900 H         6 CUB7        0.0000 
     95 DU         98.9100  134.5100   93.4600 H         6 CUB7        0.0000 
     96 DU         96.9400  138.4600   94.3600 H         6 CUB7        0.0000 
     97 DU         99.5900  136.4200   94.0700 H         6 CUB7        0.0000 
     98 DU         98.2100  136.7700   94.5400 H         6 CUB7        0.0000 
     99 DU        100.8600  134.7400   94.2500 H         6 CUB7        0.0000 
    100 DU         99.4800  135.0800   94.7300 H         6 CUB7        0.0000 
    101 DU         98.1000  135.4200   95.2000 H         6 CUB7        0.0000 
    102 DU         97.9900  134.0800   95.8500 H         6 CUB7        0.0000 
    103 DU         97.8800  132.7400   96.5100 H         6 CUB7        0.0000 
    104 DU        100.1600  136.9900   95.3300 H         6 CUB7        0.0000 
    105 DU        101.4400  135.3100   95.5200 H         6 CUB7        0.0000 
    106 DU         99.9400  134.3000   96.6500 H         6 CUB7        0.0000 
    107 DU         98.5600  134.6500   97.1200 H         6 CUB7        0.0000 
    108 DU        102.0100  135.8700   96.7800 H         6 CUB7        0.0000 
    109 DU        100.6300  136.2200   97.2500 H         6 CUB7        0.0000 
    110 DU         99.2500  136.5600   97.7300 H         6 CUB7        0.0000 
    111 DU        100.5200  134.8700   97.9100 H         6 CUB7        0.0000 
    112 DU         99.1300  135.2200   98.3800 H         6 CUB7        0.0000 
    113 DU        101.2000  136.7900   98.5200 H         6 CUB7        0.0000 
    114 DU         99.8200  137.1300   98.9900 H         6 CUB7        0.0000 
    115 DU         99.7100  135.7900   99.6500 H         6 CUB7        0.0000 
    116 DU        101.8800  138.7000   99.1300 H         6 CUB7        0.0000 
    117 DU        101.7700  137.3600   99.7800 H         6 CUB7        0.0000 
    118 DU        100.3900  137.7000  100.2500 H         6 CUB7        0.0000 
@<TRIPOS>BOND
@<TRIPOS>SUBSTRUCTURE
     1 SER1        1 GROUP   
     2 ALA2        8 GROUP   
     3 LYS4       42 GROUP   
     4 PHE5       50 GROUP   
     5 GLY6       67 GROUP   
     6 CUB7       90 GROUP   
@<TRIPOS>SET

