#    Name: 6hd1_2_FAD
#    Modification time : Fri May 22 19:27:56 2020

@<TRIPOS>MOLECULE
6hd1_2_FAD
   53    58     1     0     1
SMALL
NO_CHARGES


@<TRIPOS>ATOM
      1 PA        107.4560  140.7460  108.8690 P.3       1 FAD503      0.0000 
      2 O1A       106.4320  140.1100  108.0150 O.co2     1 FAD503      0.0000 
      3 O2A       108.8520  140.7980  108.2740 O.co2     1 FAD503      0.0000 
      4 O5B       107.0690  142.1660  109.2860 O.3       1 FAD503      0.0000 
      5 C5B       105.6890  142.5500  109.4280 C.3       1 FAD503      0.0000 
      6 C4B       105.4310  143.7090  108.5090 C.3       1 FAD503      0.0000 
      7 O4B       106.0440  143.4640  107.2260 O.3       1 FAD503      0.0000 
      8 C3B       103.9670  143.9560  108.1930 C.3       1 FAD503      0.0000 
      9 O3B       103.3730  144.7460  109.2130 O.3       1 FAD503      0.0000 
     10 C2B       104.0620  144.7100  106.8730 C.3       1 FAD503      0.0000 
     11 O2B       104.4000  146.0760  107.0730 O.3       1 FAD503      0.0000 
     12 C1B       105.2070  143.9600  106.1930 C.3       1 FAD503      0.0000 
     13 N9A       104.7470  142.8320  105.4020 N.pl3     1 FAD503      0.0000 
     14 C8A       104.9540  141.5050  105.6540 C.2       1 FAD503      0.0000 
     15 N7A       104.4030  140.7020  104.7780 N.2       1 FAD503      0.0000 
     16 C5A       103.7810  141.5660  103.8910 C.ar      1 FAD503      0.0000 
     17 C6A       103.0190  141.3470  102.7300 C.ar      1 FAD503      0.0000 
     18 N6A       102.7430  140.1350  102.2400 N.pl3     1 FAD503      0.0000 
     19 N1A       102.5480  142.4290  102.0740 N.ar      1 FAD503      0.0000 
     20 C2A       102.8250  143.6420  102.5540 C.ar      1 FAD503      0.0000 
     21 N3A       103.5310  143.9700  103.6360 N.ar      1 FAD503      0.0000 
     22 C4A       103.9830  142.8810  104.2650 C.ar      1 FAD503      0.0000 
     23 N1        115.0590  137.4470  110.1020 N.2       1 FAD503      0.0000 
     24 C2        115.3570  137.0280  108.8420 C.2       1 FAD503      0.0000 
     25 O2        114.9420  137.6230  107.8460 O.2       1 FAD503      0.0000 
     26 N3        116.1410  135.9190  108.6630 N.am      1 FAD503      0.0000 
     27 C4        116.6760  135.1470  109.6450 C.2       1 FAD503      0.0000 
     28 O4        117.3650  134.1730  109.3570 O.2       1 FAD503      0.0000 
     29 C4X       116.3620  135.5950  110.9750 C.2       1 FAD503      0.0000 
     30 N5        116.8280  134.9260  111.9500 N.2       1 FAD503      0.0000 
     31 C5X       116.5360  135.3400  113.2180 C.ar      1 FAD503      0.0000 
     32 C6        117.0400  134.6150  114.2870 C.ar      1 FAD503      0.0000 
     33 C7        116.7750  134.9930  115.5950 C.ar      1 FAD503      0.0000 
     34 C7M       117.3480  134.1890  116.7290 C.3       1 FAD503      0.0000 
     35 C8        115.9810  136.1200  115.8410 C.ar      1 FAD503      0.0000 
     36 C8M       115.6670  136.5520  117.2460 C.3       1 FAD503      0.0000 
     37 C9        115.4730  136.8470  114.7730 C.ar      1 FAD503      0.0000 
     38 C9A       115.7430  136.4620  113.4680 C.ar      1 FAD503      0.0000 
     39 N10       115.2420  137.1650  112.3590 N.pl3     1 FAD503      0.0000 
     40 C10       115.5380  136.7610  111.0990 C.2       1 FAD503      0.0000 
     41 C1'       114.4210  138.3620  112.5360 C.3       1 FAD503      0.0000 
     42 C2'       112.9330  138.0640  112.6210 C.3       1 FAD503      0.0000 
     43 O2'       112.7330  136.6550  112.5420 O.3       1 FAD503      0.0000 
     44 C3'       112.2250  138.7410  111.4510 C.3       1 FAD503      0.0000 
     45 O3'       111.5760  139.9110  111.9290 O.3       1 FAD503      0.0000 
     46 C4'       111.2130  137.8440  110.7460 C.3       1 FAD503      0.0000 
     47 O4'       111.8150  137.3600  109.5470 O.3       1 FAD503      0.0000 
     48 C5'       109.9050  138.5360  110.4250 C.3       1 FAD503      0.0000 
     49 O5'       109.4320  139.2400  111.5930 O.3       1 FAD503      0.0000 
     50 P         108.4310  140.4450  111.4610 P.3       1 FAD503      0.0000 
     51 O1P       107.5180  140.5730  112.6810 O.co2     1 FAD503      0.0000 
     52 O2P       109.1640  141.6420  111.1170 O.co2     1 FAD503      0.0000 
     53 O3P       107.5410  139.9930  110.2580 O.3       1 FAD503      0.0000 
@<TRIPOS>BOND
     1    1    2 ar   
     2    1    3 ar   
     3    1    4 1    
     4    1   53 1    
     5    4    5 1    
     6    5    6 1    
     7    6    7 1    
     8    6    8 1    
     9    7   12 1    
    10    8    9 1    
    11    8   10 1    
    12   10   11 1    
    13   10   12 1    
    14   12   13 1    
    15   13   14 1    
    16   13   22 1    
    17   14   15 2    
    18   15   16 1    
    19   16   17 ar   
    20   16   22 ar   
    21   17   18 1    
    22   17   19 ar   
    23   19   20 ar   
    24   20   21 ar   
    25   21   22 ar   
    26   23   24 1    
    27   23   40 2    
    28   24   25 2    
    29   24   26 am   
    30   26   27 am   
    31   27   28 2    
    32   27   29 1    
    33   29   30 2    
    34   29   40 1    
    35   30   31 1    
    36   31   32 ar   
    37   31   38 ar   
    38   32   33 ar   
    39   33   34 1    
    40   33   35 ar   
    41   35   36 1    
    42   35   37 ar   
    43   37   38 ar   
    44   38   39 1    
    45   39   40 1    
    46   39   41 1    
    47   41   42 1    
    48   42   43 1    
    49   42   44 1    
    50   44   45 1    
    51   44   46 1    
    52   46   47 1    
    53   46   48 1    
    54   48   49 1    
    55   49   50 1    
    56   50   51 ar   
    57   50   52 ar   
    58   50   53 1    
@<TRIPOS>SUBSTRUCTURE
     1 FAD503      1 GROUP   
@<TRIPOS>SET
ATOM$ORANGE STATIC     ATOMS   COLORGROUP SYSTEM 
54 5 5 6 6 8 8 10 10 12 12 14 14 16 16 17 17 20 \
20 22 22 24 24 27 27 29 29 31 31 32 32 33 33 34 34 35 \
35 36 36 37 37 38 38 40 40 41 41 42 42 44 44 46 46 48 \
48 

