#    Name: 6hd1_3_NAP_CAVITY_N1_12
#    Modification time : Fri May 22 19:28:11 2020

@<TRIPOS>MOLECULE
6hd1_3_NAP_CAVITY_N1_12
  138     0     7     0     0
SMALL
NO_CHARGES


@<TRIPOS>ATOM
      1 OG        123.3200   92.6100   90.5900 O.3       1 SER1        0.0000 
      2 OG        123.2100   91.2600   91.2400 O.3       1 SER1        0.0000 
      3 OG        124.0000   94.5200   91.1900 O.3       1 SER1        0.0000 
      4 OG        123.8900   93.1800   91.8500 O.3       1 SER1        0.0000 
      5 OG        127.4500   95.7500   90.8600 O.3       1 SER1        0.0000 
      6 OG        126.0700   96.0900   91.3300 O.3       1 SER1        0.0000 
      7 OG        128.0200   96.3100   92.1200 O.3       1 SER1        0.0000 
      8 OG        129.8700   95.2000   93.5700 O.3       1 SER1        0.0000 
      9 N         121.4800   93.7200   89.1400 N.am      2 ALA2        0.0000 
     10 N         122.7500   92.0400   89.3200 N.am      2 ALA2        0.0000 
     11 N         122.1600   95.6400   89.7500 N.am      2 ALA2        0.0000 
     12 N         123.4300   93.9500   89.9300 N.am      2 ALA2        0.0000 
     13 N         122.0500   94.2900   90.4000 N.am      2 ALA2        0.0000 
     14 O         121.9400   92.9500   91.0600 O.2       2 ALA2        0.0000 
     15 O         121.8300   91.6100   91.7100 O.2       2 ALA2        0.0000 
     16 N         125.6100   96.8600   89.4100 N.am      2 ALA2        0.0000 
     17 N         124.1100   95.8600   90.5400 N.am      2 ALA2        0.0000 
     18 O         122.6200   94.8600   91.6700 O.2       2 ALA2        0.0000 
     19 N         124.9100   99.1200   90.4900 N.am      2 ALA2        0.0000 
     20 N         124.2100  101.3800   91.5700 N.am      2 ALA2        0.0000 
     21 N         126.8600   99.3500   91.2800 N.am      2 ALA2        0.0000 
     22 N         125.4800   99.6900   91.7500 N.am      2 ALA2        0.0000 
     23 N         124.1000  100.0400   92.2300 N.am      2 ALA2        0.0000 
     24 O         126.7500   98.0000   91.9400 O.2       2 ALA2        0.0000 
     25 O         124.6700  100.6000   93.4900 O.2       2 ALA2        0.0000 
     26 N         123.2900  100.9500   93.9600 N.am      2 ALA2        0.0000 
     27 O         125.9400   98.9200   93.6700 O.2       2 ALA2        0.0000 
     28 O         124.5600   99.2600   94.1500 O.2       2 ALA2        0.0000 
     29 N         128.6000   96.8800   93.3900 N.am      2 ALA2        0.0000 
     30 O         121.6900   98.6000   95.7500 O.2       2 ALA2        0.0000 
     31 O         117.3200   96.9500   98.4700 O.2       2 ALA2        0.0000 
     32 O         125.2500  101.1700   94.7500 O.2       2 ALA2        0.0000 
     33 O         125.1400   99.8300   95.4100 O.2       2 ALA2        0.0000 
     34 N         123.7500  100.1700   95.8800 N.am      2 ALA2        0.0000 
     35 O         126.4100   98.1400   95.5900 O.2       2 ALA2        0.0000 
     36 O         122.2600   99.1700   97.0100 O.2       2 ALA2        0.0000 
     37 N         129.0600   96.1100   95.3100 N.am      2 ALA2        0.0000 
     38 O         120.7700   98.1700   98.1400 O.2       2 ALA2        0.0000 
     39 O         119.3900   98.5200   98.6100 O.2       2 ALA2        0.0000 
     40 O         119.2800   97.1700   99.2600 O.2       2 ALA2        0.0000 
     41 O         125.7100  100.4000   96.6700 O.2       2 ALA2        0.0000 
     42 O         126.9800   98.7100   96.8600 O.2       2 ALA2        0.0000 
     43 N         129.6300   96.6800   96.5700 N.am      2 ALA2        0.0000 
     44 N         130.2100   97.2500   97.8300 N.am      2 ALA2        0.0000 
     45 OD1       128.2500   97.0200   97.0400 O.co2     3 ASP3        0.0000 
     46 OD1       126.8700   97.3700   97.5100 O.co2     3 ASP3        0.0000 
     47 OD1       125.4900   97.7100   97.9900 O.co2     3 ASP3        0.0000 
     48 OD1       126.7600   96.0200   98.1700 O.co2     3 ASP3        0.0000 
     49 OD1       128.9400   98.9400   97.6500 O.co2     3 ASP3        0.0000 
     50 OD1       127.5500   99.2800   98.1200 O.co2     3 ASP3        0.0000 
     51 OD1       128.8200   97.5900   98.3100 O.co2     3 ASP3        0.0000 
     52 OD1       125.9500   96.9300   99.9000 O.co2     3 ASP3        0.0000 
     53 NZ        122.3900   96.3500   94.6700 N.4       4 LYS4        0.0000 
     54 NZ        121.0000   96.6900   95.1400 N.4       4 LYS4        0.0000 
     55 NZ        122.9600   96.9200   95.9300 N.4       4 LYS4        0.0000 
     56 NZ        121.5800   97.2600   96.4000 N.4       4 LYS4        0.0000 
     57 NZ        118.7000   96.6000   98.0000 N.4       4 LYS4        0.0000 
     58 NZ        122.0400   96.4800   98.3200 N.4       4 LYS4        0.0000 
     59 NZ        120.6600   96.8300   98.7900 N.4       4 LYS4        0.0000 
     60 NZ        121.9300   95.1400   98.9800 N.4       4 LYS4        0.0000 
     61 NZ        120.5500   95.4800   99.4500 N.4       4 LYS4        0.0000 
     62 CZ        124.1300   91.6900   88.8500 C.ar      5 PHE5        0.0000 
     63 CZ        124.7000   92.2600   90.1100 C.ar      5 PHE5        0.0000 
     64 CZ        125.3900   94.1800   90.7200 C.ar      5 PHE5        0.0000 
     65 CZ        124.5800   95.0900   92.4600 C.ar      5 PHE5        0.0000 
     66 CZ        124.4700   93.7400   93.1100 C.ar      5 PHE5        0.0000 
     67 CZ        123.9900   98.6900   92.8800 C.ar      5 PHE5        0.0000 
     68 CZ        122.6100   99.0300   93.3500 C.ar      5 PHE5        0.0000 
     69 CZ        126.6400   96.6600   92.5900 C.ar      5 PHE5        0.0000 
     70 CZ        121.1200   98.0300   94.4800 C.ar      5 PHE5        0.0000 
     71 CZ        126.5300   95.3100   93.2500 C.ar      5 PHE5        0.0000 
     72 CZ        125.1500   95.6600   93.7200 C.ar      5 PHE5        0.0000 
     73 CZ        123.1800   99.6000   94.6200 C.ar      5 PHE5        0.0000 
     74 CZ        121.8000   99.9500   95.0900 C.ar      5 PHE5        0.0000 
     75 CZ        128.4900   95.5400   94.0400 C.ar      5 PHE5        0.0000 
     76 CZ        127.1000   95.8800   94.5100 C.ar      5 PHE5        0.0000 
     77 CZ        128.3800   94.2000   94.7000 C.ar      5 PHE5        0.0000 
     78 CZ        124.3300  100.7400   97.1500 C.ar      5 PHE5        0.0000 
     79 CZ        125.6000   99.0500   97.3300 C.ar      5 PHE5        0.0000 
     80 CZ        124.2200   99.4000   97.8000 C.ar      5 PHE5        0.0000 
     81 CZ        122.8400   99.7400   98.2700 C.ar      5 PHE5        0.0000 
     82 CZ        124.1100   98.0500   98.4600 C.ar      5 PHE5        0.0000 
     83 CZ        122.7200   98.4000   98.9300 C.ar      5 PHE5        0.0000 
     84 CZ        126.1700   99.6200   98.5900 C.ar      5 PHE5        0.0000 
     85 CZ        124.6800   98.6200   99.7200 C.ar      5 PHE5        0.0000 
     86 CZ        124.5700   97.2800  100.3800 C.ar      5 PHE5        0.0000 
     87 CZ        121.8100   97.9700  101.3200 C.ar      5 PHE5        0.0000 
     88 CA        124.8100   93.6100   89.4600 C.3       6 GLY6        0.0000 
     89 CA        124.2300   97.2100   89.8800 C.3       6 GLY6        0.0000 
     90 CA        122.8400   97.5500   90.3500 C.3       6 GLY6        0.0000 
     91 CA        125.5000   95.5200   90.0700 C.3       6 GLY6        0.0000 
     92 CA        122.7300   96.2100   91.0100 C.3       6 GLY6        0.0000 
     93 CA        122.5100   93.5200   92.3200 C.3       6 GLY6        0.0000 
     94 CA        123.5300   99.4700   90.9600 C.3       6 GLY6        0.0000 
     95 CA        127.5600   97.0900   90.2000 C.3       6 GLY6        0.0000 
     96 CA        126.1800   97.4300   90.6700 C.3       6 GLY6        0.0000 
     97 CA        123.4200   98.1200   91.6200 C.3       6 GLY6        0.0000 
     98 CA        123.3100   96.7800   92.2700 C.3       6 GLY6        0.0000 
     99 CA        121.8100   95.7800   93.4000 C.3       6 GLY6        0.0000 
    100 CA        123.0800   94.0900   93.5900 C.3       6 GLY6        0.0000 
    101 CA        122.5000   97.6900   94.0100 C.3       6 GLY6        0.0000 
    102 CA        127.3300   98.5700   93.2000 C.3       6 GLY6        0.0000 
    103 CA        127.2200   97.2300   93.8600 C.3       6 GLY6        0.0000 
    104 CA        120.2000   97.6000   96.8700 C.3       6 GLY6        0.0000 
    105 CA        122.3700  100.5200   96.3500 C.3       6 GLY6        0.0000 
    106 CA        129.1700   97.4500   94.6500 C.3       6 GLY6        0.0000 
    107 CA        127.7900   97.8000   95.1200 C.3       6 GLY6        0.0000 
    108 CA        130.4400   95.7600   94.8300 C.3       6 GLY6        0.0000 
    109 CA        128.9500   94.7600   95.9600 C.3       6 GLY6        0.0000 
    110 CA        129.7400   98.0200   95.9100 C.3       6 GLY6        0.0000 
    111 CA        128.3600   98.3700   96.3900 C.3       6 GLY6        0.0000 
    112 CA        121.3400   98.7400   99.4000 C.3       6 GLY6        0.0000 
    113 CA        119.9600   99.0900   99.8700 C.3       6 GLY6        0.0000 
    114 DU        122.6400   90.6900   89.9800 H         7 CUB7        0.0000 
    115 DU        124.8000   97.7800   91.1500 H         7 CUB7        0.0000 
    116 DU        124.6900   96.4300   91.8000 H         7 CUB7        0.0000 
    117 DU        123.2000   95.4300   92.9300 H         7 CUB7        0.0000 
    118 DU        125.3700   98.3500   92.4100 H         7 CUB7        0.0000 
    119 DU        125.2600   97.0000   93.0700 H         7 CUB7        0.0000 
    120 DU        123.8800   97.3500   93.5400 H         7 CUB7        0.0000 
    121 DU        123.7700   96.0000   94.1900 H         7 CUB7        0.0000 
    122 DU        125.8300   97.5700   94.3300 H         7 CUB7        0.0000 
    123 DU        124.4500   97.9200   94.8000 H         7 CUB7        0.0000 
    124 DU        123.0700   98.2600   95.2700 H         7 CUB7        0.0000 
    125 DU        125.7200   96.2300   94.9900 H         7 CUB7        0.0000 
    126 DU        125.0300   98.4900   96.0700 H         7 CUB7        0.0000 
    127 DU        123.6400   98.8300   96.5400 H         7 CUB7        0.0000 
    128 DU        127.6800   96.4500   95.7800 H         7 CUB7        0.0000 
    129 DU        126.3000   96.8000   96.2500 H         7 CUB7        0.0000 
    130 DU        123.5300   97.4800   97.1900 H         7 CUB7        0.0000 
    131 DU        122.1500   97.8300   97.6600 H         7 CUB7        0.0000 
    132 DU        127.5700   95.1100   96.4300 H         7 CUB7        0.0000 
    133 DU        123.4200   96.1400   97.8500 H         7 CUB7        0.0000 
    134 DU        124.0000   96.7100   99.1100 H         7 CUB7        0.0000 
    135 DU        122.6100   97.0500   99.5800 H         7 CUB7        0.0000 
    136 DU        121.2300   97.4000  100.0600 H         7 CUB7        0.0000 
    137 DU        122.5000   95.7100  100.2400 H         7 CUB7        0.0000 
    138 DU        121.1200   96.0500  100.7100 H         7 CUB7        0.0000 
@<TRIPOS>BOND
@<TRIPOS>SUBSTRUCTURE
     1 SER1        1 GROUP   
     2 ALA2        9 GROUP   
     3 ASP3       45 GROUP   
     4 LYS4       53 GROUP   
     5 PHE5       62 GROUP   
     6 GLY6       88 GROUP   
     7 CUB7      114 GROUP   
@<TRIPOS>SET

