#    Name: 6hd1_3_NAP
#    Modification time : Fri May 22 19:28:09 2020

@<TRIPOS>MOLECULE
6hd1_3_NAP
   48    52     1     0     1
SMALL
NO_CHARGES


@<TRIPOS>ATOM
      1 PA        122.0500   91.6630   91.1610 P.3       1 NAP501      0.0000 
      2 O1A       121.5810   92.6350   90.1110 O.co2     1 NAP501      0.0000 
      3 O2A       120.8910   90.8440   91.6580 O.co2     1 NAP501      0.0000 
      4 O5B       123.1580   90.6300   90.5330 O.3       1 NAP501      0.0000 
      5 C5B       123.8450   91.0070   89.3840 C.3       1 NAP501      0.0000 
      6 C4B       122.9800   90.7870   88.1160 C.3       1 NAP501      0.0000 
      7 O4B       123.7500   90.4720   87.1240 O.3       1 NAP501      0.0000 
      8 C3B       122.0490   89.5720   88.2550 C.3       1 NAP501      0.0000 
      9 O3B       120.8300   89.9800   88.6630 O.3       1 NAP501      0.0000 
     10 C2B       121.9290   88.9990   86.8320 C.3       1 NAP501      0.0000 
     11 O2B       120.5650   89.2390   86.2880 O.3       1 NAP501      0.0000 
     12 C1B       122.7990   89.6550   86.1160 C.3       1 NAP501      0.0000 
     13 N9A       123.6060   88.7690   85.3320 N.pl3     1 NAP501      0.0000 
     14 C8A       123.7380   88.5980   84.0220 C.2       1 NAP501      0.0000 
     15 N7A       124.6410   87.6450   83.8170 N.2       1 NAP501      0.0000 
     16 C5A       125.0650   87.2220   85.0050 C.ar      1 NAP501      0.0000 
     17 C6A       125.9750   86.2600   85.3510 C.ar      1 NAP501      0.0000 
     18 N6A       126.7520   85.4130   84.4700 N.pl3     1 NAP501      0.0000 
     19 N1A       126.2400   86.0170   86.6180 N.ar      1 NAP501      0.0000 
     20 C2A       125.6090   86.7160   87.5840 C.ar      1 NAP501      0.0000 
     21 N3A       124.7100   87.6610   87.2420 N.ar      1 NAP501      0.0000 
     22 C4A       124.4350   87.9140   85.9500 C.ar      1 NAP501      0.0000 
     23 O3        122.7010   92.4730   92.4280 O.3       1 NAP501      0.0000 
     24 PN        122.8840   94.1020   92.5130 P.3       1 NAP501      0.0000 
     25 O1N       122.9940   94.4870   93.9620 O.co2     1 NAP501      0.0000 
     26 O2N       121.7250   94.8420   91.8950 O.co2     1 NAP501      0.0000 
     27 O5D       124.2740   94.5200   91.7500 O.3       1 NAP501      0.0000 
     28 C5D       124.1680   95.0420   90.4650 C.3       1 NAP501      0.0000 
     29 C4D       124.9500   96.3750   90.3940 C.3       1 NAP501      0.0000 
     30 O4D       124.2130   97.3040   90.9260 O.3       1 NAP501      0.0000 
     31 C3D       126.2380   96.3050   91.2360 C.3       1 NAP501      0.0000 
     32 O3D       127.2840   96.7250   90.4920 O.3       1 NAP501      0.0000 
     33 C2D       126.0350   97.3010   92.3810 C.3       1 NAP501      0.0000 
     34 O2D       127.3100   98.0120   92.6650 O.3       1 NAP501      0.0000 
     35 C1D       125.1750   98.1460   91.9010 C.3       1 NAP501      0.0000 
     36 N1N       124.3800   98.7320   92.9430 N.pl3     1 NAP501      0.0000 
     37 C2N       123.7860   97.9730   93.8940 C.ar      1 NAP501      0.0000 
     38 C3N       123.0290   98.5870   94.8700 C.ar      1 NAP501      0.0000 
     39 C7N       122.3630   97.7610   95.9590 C.2       1 NAP501      0.0000 
     40 O7N       122.3350   96.5850   95.8780 O.2       1 NAP501      0.0000 
     41 N7N       121.7740   98.4320   97.0990 N.am      1 NAP501      0.0000 
     42 C4N       122.8780   99.9270   94.8720 C.ar      1 NAP501      0.0000 
     43 C5N       123.4640  100.6820   93.9150 C.ar      1 NAP501      0.0000 
     44 C6N       124.2230  100.0680   92.9390 C.ar      1 NAP501      0.0000 
     45 P2B       120.2110   88.6060   84.8120 P.3       1 NAP501      0.0000 
     46 O1X       120.6880   89.5250   83.7160 O.co2     1 NAP501      0.0000 
     47 O2X       120.9020   87.2770   84.6620 O.co2     1 NAP501      0.0000 
     48 O3X       118.7210   88.4220   84.7010 O.co2     1 NAP501      0.0000 
@<TRIPOS>BOND
     1    1    2 ar   
     2    1    3 ar   
     3    1    4 1    
     4    1   23 1    
     5    4    5 1    
     6    5    6 1    
     7    6    7 1    
     8    6    8 1    
     9    7   12 1    
    10    8    9 1    
    11    8   10 1    
    12   10   11 1    
    13   10   12 1    
    14   11   45 1    
    15   12   13 1    
    16   13   14 1    
    17   13   22 1    
    18   14   15 2    
    19   15   16 1    
    20   16   17 ar   
    21   16   22 ar   
    22   17   18 1    
    23   17   19 ar   
    24   19   20 ar   
    25   20   21 ar   
    26   21   22 ar   
    27   23   24 1    
    28   24   25 ar   
    29   24   26 ar   
    30   24   27 1    
    31   27   28 1    
    32   28   29 1    
    33   29   30 1    
    34   29   31 1    
    35   30   35 1    
    36   31   32 1    
    37   31   33 1    
    38   33   34 1    
    39   33   35 1    
    40   35   36 1    
    41   36   37 ar   
    42   36   44 ar   
    43   37   38 ar   
    44   38   39 1    
    45   38   42 ar   
    46   39   40 2    
    47   39   41 am   
    48   42   43 ar   
    49   43   44 ar   
    50   45   46 ar   
    51   45   47 ar   
    52   45   48 ar   
@<TRIPOS>SUBSTRUCTURE
     1 NAP501      1 GROUP   
@<TRIPOS>SET
ATOM$ORANGE STATIC     ATOMS   COLORGROUP SYSTEM 
42 5 5 6 6 8 8 10 10 12 12 14 14 16 16 17 17 20 \
20 22 22 28 28 29 29 31 31 33 33 35 35 37 37 38 38 39 \
39 42 42 43 43 44 44 

