#    Name: 6hd1_5_NAP
#    Modification time : Fri May 22 19:28:42 2020

@<TRIPOS>MOLECULE
6hd1_5_NAP
   48    52     1     0     1
SMALL
NO_CHARGES


@<TRIPOS>ATOM
      1 PA         96.1980  140.3980   91.2430 P.3       1 NAP501      0.0000 
      2 O1A        97.2760  140.3290   90.1930 O.co2     1 NAP501      0.0000 
      3 O2A        96.0570  141.8090   91.7430 O.co2     1 NAP501      0.0000 
      4 O5B        94.7540  139.9450   90.6130 O.3       1 NAP501      0.0000 
      5 C5B        94.7440  139.1630   89.4620 C.3       1 NAP501      0.0000 
      6 C4B        94.9800  140.0270   88.1970 C.3       1 NAP501      0.0000 
      7 O4B        94.3270  139.5150   87.2030 O.3       1 NAP501      0.0000 
      8 C3B        94.3820  141.4360   88.3380 C.3       1 NAP501      0.0000 
      9 O3B        95.3370  142.2950   88.7490 O.3       1 NAP501      0.0000 
     10 C2B        93.9440  141.8260   86.9160 C.3       1 NAP501      0.0000 
     11 O2B        94.8260  142.8960   86.3750 O.3       1 NAP501      0.0000 
     12 C1B        94.0860  140.7480   86.1970 C.3       1 NAP501      0.0000 
     13 N9A        92.9170  140.4850   85.4120 N.pl3     1 NAP501      0.0000 
     14 C8A        92.7050  140.4570   84.1020 C.2       1 NAP501      0.0000 
     15 N7A        91.4300  140.1420   83.8960 N.2       1 NAP501      0.0000 
     16 C5A        90.8530  139.9790   85.0820 C.ar      1 NAP501      0.0000 
     17 C6A        89.5670  139.6610   85.4270 C.ar      1 NAP501      0.0000 
     18 N6A        88.4470  139.4040   84.5440 N.pl3     1 NAP501      0.0000 
     19 N1A        89.2240  139.5470   86.6940 N.ar      1 NAP501      0.0000 
     20 C2A        90.1420  139.7490   87.6610 C.ar      1 NAP501      0.0000 
     21 N3A        91.4080  140.0660   87.3200 N.ar      1 NAP501      0.0000 
     22 C4A        91.7650  140.1840   86.0290 C.ar      1 NAP501      0.0000 
     23 O3         96.5820  139.4290   92.5080 O.3       1 NAP501      0.0000 
     24 PN         97.9090  138.4660   92.5920 P.3       1 NAP501      0.0000 
     25 O1N        98.1880  138.1770   94.0400 O.co2     1 NAP501      0.0000 
     26 O2N        99.1240  139.1110   91.9760 O.co2     1 NAP501      0.0000 
     27 O5D        97.5870  137.0520   91.8250 O.3       1 NAP501      0.0000 
     28 C5D        98.0940  136.8910   90.5400 C.3       1 NAP501      0.0000 
     29 C4D        98.8690  135.5530   90.4670 C.3       1 NAP501      0.0000 
     30 O4D       100.0400  135.7350   90.9990 O.3       1 NAP501      0.0000 
     31 C3D        98.1720  134.4650   91.3060 C.3       1 NAP501      0.0000 
     32 O3D        98.0230  133.3500   90.5590 O.3       1 NAP501      0.0000 
     33 C2D        99.1390  134.1480   92.4500 C.3       1 NAP501      0.0000 
     34 O2D        99.1280  132.6880   92.7300 O.3       1 NAP501      0.0000 
     35 C1D       100.2970  134.4800   91.9720 C.3       1 NAP501      0.0000 
     36 N1N       101.1980  134.8810   93.0160 N.pl3     1 NAP501      0.0000 
     37 C2N       100.8300  135.7690   93.9680 C.ar      1 NAP501      0.0000 
     38 C3N       101.7370  136.1230   94.9460 C.ar      1 NAP501      0.0000 
     39 C7N       101.3460  137.1070   96.0360 C.2       1 NAP501      0.0000 
     40 O7N       100.3370  137.7110   95.9570 O.2       1 NAP501      0.0000 
     41 N7N       102.2190  137.2860   97.1780 N.am      1 NAP501      0.0000 
     42 C4N       102.9780  135.5930   94.9470 C.ar      1 NAP501      0.0000 
     43 C5N       103.3460  134.7140   93.9890 C.ar      1 NAP501      0.0000 
     44 C6N       102.4390  134.3580   93.0110 C.ar      1 NAP501      0.0000 
     45 P2B        94.4500  143.5200   84.9010 P.3       1 NAP501      0.0000 
     46 O1X        95.0150  142.6550   83.8030 O.co2     1 NAP501      0.0000 
     47 O2X        92.9530  143.5750   84.7500 O.co2     1 NAP501      0.0000 
     48 O3X        95.0250  144.9070   84.7930 O.co2     1 NAP501      0.0000 
@<TRIPOS>BOND
     1    1    2 ar   
     2    1    3 ar   
     3    1    4 1    
     4    1   23 1    
     5    4    5 1    
     6    5    6 1    
     7    6    7 1    
     8    6    8 1    
     9    7   12 1    
    10    8    9 1    
    11    8   10 1    
    12   10   11 1    
    13   10   12 1    
    14   11   45 1    
    15   12   13 1    
    16   13   14 1    
    17   13   22 1    
    18   14   15 2    
    19   15   16 1    
    20   16   17 ar   
    21   16   22 ar   
    22   17   18 1    
    23   17   19 ar   
    24   19   20 ar   
    25   20   21 ar   
    26   21   22 ar   
    27   23   24 1    
    28   24   25 ar   
    29   24   26 ar   
    30   24   27 1    
    31   27   28 1    
    32   28   29 1    
    33   29   30 1    
    34   29   31 1    
    35   30   35 1    
    36   31   32 1    
    37   31   33 1    
    38   33   34 1    
    39   33   35 1    
    40   35   36 1    
    41   36   37 ar   
    42   36   44 ar   
    43   37   38 ar   
    44   38   39 1    
    45   38   42 ar   
    46   39   40 2    
    47   39   41 am   
    48   42   43 ar   
    49   43   44 ar   
    50   45   46 ar   
    51   45   47 ar   
    52   45   48 ar   
@<TRIPOS>SUBSTRUCTURE
     1 NAP501      1 GROUP   
@<TRIPOS>SET
ATOM$ORANGE STATIC     ATOMS   COLORGROUP SYSTEM 
42 5 5 6 6 8 8 10 10 12 12 14 14 16 16 17 17 20 \
20 22 22 28 28 29 29 31 31 33 33 35 35 37 37 38 38 39 \
39 42 42 43 43 44 44 

