#    Name: 6hd1_6_FAD
#    Modification time : Fri May 22 19:29:01 2020

@<TRIPOS>MOLECULE
6hd1_6_FAD
   53    58     1     0     1
SMALL
NO_CHARGES


@<TRIPOS>ATOM
      1 PA        116.2220  100.8680  108.8760 P.3       1 FAD503      0.0000 
      2 O1A       117.2790  100.2930  108.0190 O.co2     1 FAD503      0.0000 
      3 O2A       115.4830  102.0540  108.2820 O.co2     1 FAD503      0.0000 
      4 O5B       115.1810   99.8290  109.2970 O.3       1 FAD503      0.0000 
      5 C5B       115.5310   98.4400  109.4390 C.3       1 FAD503      0.0000 
      6 C4B       114.6490   97.6410  108.5240 C.3       1 FAD503      0.0000 
      7 O4B       114.5540   98.2930  107.2410 O.3       1 FAD503      0.0000 
      8 C3B       115.1590   96.2460  108.2080 C.3       1 FAD503      0.0000 
      9 O3B       114.7700   95.3400  109.2300 O.3       1 FAD503      0.0000 
     10 C2B       114.4520   95.9540  106.8900 C.3       1 FAD503      0.0000 
     11 O2B       113.0990   95.5720  107.0950 O.3       1 FAD503      0.0000 
     12 C1B       114.5350   97.3200  106.2090 C.3       1 FAD503      0.0000 
     13 N9A       115.7400   97.4780  105.4130 N.pl3     1 FAD503      0.0000 
     14 C8A       116.7910   98.3160  105.6620 C.2       1 FAD503      0.0000 
     15 N7A       117.7580   98.2340  104.7820 N.2       1 FAD503      0.0000 
     16 C5A       117.3130   97.2650  103.8980 C.ar      1 FAD503      0.0000 
     17 C6A       117.8770   96.7110  102.7350 C.ar      1 FAD503      0.0000 
     18 N6A       119.0640   97.0710  102.2410 N.pl3     1 FAD503      0.0000 
     19 N1A       117.1680   95.7650  102.0820 N.ar      1 FAD503      0.0000 
     20 C2A       115.9790   95.4050  102.5660 C.ar      1 FAD503      0.0000 
     21 N3A       115.3480   95.8560  103.6500 N.ar      1 FAD503      0.0000 
     22 C4A       116.0720   96.7890  104.2760 C.ar      1 FAD503      0.0000 
     23 N1        115.3260  109.1080  110.1040 N.2       1 FAD503      0.0000 
     24 C2        115.5380  109.5730  108.8440 C.2       1 FAD503      0.0000 
     25 O2        115.2240  108.9170  107.8490 O.2       1 FAD503      0.0000 
     26 N3        116.1130  110.8030  108.6610 N.am      1 FAD503      0.0000 
     27 C4        116.5220  111.6510  109.6410 C.2       1 FAD503      0.0000 
     28 O4        117.0260  112.7320  109.3510 O.2       1 FAD503      0.0000 
     29 C4X       116.2930  111.1580  110.9720 C.2       1 FAD503      0.0000 
     30 N5        116.6460  111.8950  111.9460 N.2       1 FAD503      0.0000 
     31 C5X       116.4340  111.4380  113.2150 C.ar      1 FAD503      0.0000 
     32 C6        116.8190  112.2360  114.2820 C.ar      1 FAD503      0.0000 
     33 C7        116.6260  111.8190  115.5910 C.ar      1 FAD503      0.0000 
     34 C7M       117.0440  112.7160  116.7230 C.3       1 FAD503      0.0000 
     35 C8        116.0410  110.5710  115.8400 C.ar      1 FAD503      0.0000 
     36 C8M       115.8260  110.0860  117.2460 C.3       1 FAD503      0.0000 
     37 C9        115.6570  109.7690  114.7740 C.ar      1 FAD503      0.0000 
     38 C9A       115.8530  110.1930  113.4670 C.ar      1 FAD503      0.0000 
     39 N10       115.4880  109.4090  112.3610 N.pl3     1 FAD503      0.0000 
     40 C10       115.6880  109.8650  111.1000 C.2       1 FAD503      0.0000 
     41 C1'       114.8550  108.1020  112.5410 C.3       1 FAD503      0.0000 
     42 C2'       115.8510  106.9580  112.6240 C.3       1 FAD503      0.0000 
     43 O2'       117.1740  107.4820  112.5400 O.3       1 FAD503      0.0000 
     44 C3'       115.6100  106.0070  111.4560 C.3       1 FAD503      0.0000 
     45 O3'       114.9170  104.8630  111.9360 O.3       1 FAD503      0.0000 
     46 C4'       116.8880  105.5700  110.7470 C.3       1 FAD503      0.0000 
     47 O4'       117.0060  106.3330  109.5460 O.3       1 FAD503      0.0000 
     48 C5'       116.9340  104.0910  110.4270 C.3       1 FAD503      0.0000 
     49 O5'       116.5600  103.3330  111.5970 O.3       1 FAD503      0.0000 
     50 P         116.0090  101.8660  111.4680 P.3       1 FAD503      0.0000 
     51 O1P       116.3540  101.0110  112.6880 O.co2     1 FAD503      0.0000 
     52 O2P       114.6040  101.9100  111.1280 O.co2     1 FAD503      0.0000 
     53 O3P       116.8380  101.3160  110.2620 O.3       1 FAD503      0.0000 
@<TRIPOS>BOND
     1    1    2 ar   
     2    1    3 ar   
     3    1    4 1    
     4    1   53 1    
     5    4    5 1    
     6    5    6 1    
     7    6    7 1    
     8    6    8 1    
     9    7   12 1    
    10    8    9 1    
    11    8   10 1    
    12   10   11 1    
    13   10   12 1    
    14   12   13 1    
    15   13   14 1    
    16   13   22 1    
    17   14   15 2    
    18   15   16 1    
    19   16   17 ar   
    20   16   22 ar   
    21   17   18 1    
    22   17   19 ar   
    23   19   20 ar   
    24   20   21 ar   
    25   21   22 ar   
    26   23   24 1    
    27   23   40 2    
    28   24   25 2    
    29   24   26 am   
    30   26   27 am   
    31   27   28 2    
    32   27   29 1    
    33   29   30 2    
    34   29   40 1    
    35   30   31 1    
    36   31   32 ar   
    37   31   38 ar   
    38   32   33 ar   
    39   33   34 1    
    40   33   35 ar   
    41   35   36 1    
    42   35   37 ar   
    43   37   38 ar   
    44   38   39 1    
    45   39   40 1    
    46   39   41 1    
    47   41   42 1    
    48   42   43 1    
    49   42   44 1    
    50   44   45 1    
    51   44   46 1    
    52   46   47 1    
    53   46   48 1    
    54   48   49 1    
    55   49   50 1    
    56   50   51 ar   
    57   50   52 ar   
    58   50   53 1    
@<TRIPOS>SUBSTRUCTURE
     1 FAD503      1 GROUP   
@<TRIPOS>SET
ATOM$ORANGE STATIC     ATOMS   COLORGROUP SYSTEM 
54 5 5 6 6 8 8 10 10 12 12 14 14 16 16 17 17 20 \
20 22 22 24 24 27 27 29 29 31 31 32 32 33 33 34 34 35 \
35 36 36 37 37 38 38 40 40 41 41 42 42 44 44 46 46 48 \
48 

