#    Name: 6hd1_1_NAP
#    Modification time : Fri May 22 19:27:35 2020

@<TRIPOS>MOLECULE
6hd1_1_NAP
   48    52     1     0     1
SMALL
NO_CHARGES


@<TRIPOS>ATOM
      1 PA        151.6990  138.5050   91.2060 P.3       1 NAP501      0.0000 
      2 O1A       151.1040  137.5990   90.1600 O.co2     1 NAP501      0.0000 
      3 O2A       152.9950  137.9300   91.7070 O.co2     1 NAP501      0.0000 
      4 O5B       152.0210  139.9820   90.5720 O.3       1 NAP501      0.0000 
      5 C5B       151.3460  140.3740   89.4200 C.3       1 NAP501      0.0000 
      6 C4B       151.9780  139.7360   88.1560 C.3       1 NAP501      0.0000 
      7 O4B       151.8560  140.5540   87.1600 O.3       1 NAP501      0.0000 
      8 C3B       153.4980  139.5590   88.2970 C.3       1 NAP501      0.0000 
      9 O3B       153.7720  138.3050   88.7120 O.3       1 NAP501      0.0000 
     10 C2B       154.0540  139.7420   86.8730 C.3       1 NAP501      0.0000 
     11 O2B       154.5460  138.4440   86.3370 O.3       1 NAP501      0.0000 
     12 C1B       153.0450  140.1490   86.1540 C.3       1 NAP501      0.0000 
     13 N9A       153.3950  141.2930   85.3650 N.pl3     1 NAP501      0.0000 
     14 C8A       153.4760  141.4870   84.0540 C.2       1 NAP501      0.0000 
     15 N7A       153.8320  142.7500   83.8430 N.2       1 NAP501      0.0000 
     16 C5A       153.9780  143.3360   85.0280 C.ar      1 NAP501      0.0000 
     17 C6A       154.3390  144.6110   85.3680 C.ar      1 NAP501      0.0000 
     18 N6A       154.6690  145.7080   84.4810 N.pl3     1 NAP501      0.0000 
     19 N1A       154.4110  144.9700   86.6340 N.ar      1 NAP501      0.0000 
     20 C2A       154.1320  144.0750   87.6040 C.ar      1 NAP501      0.0000 
     21 N3A       153.7800  142.8180   87.2670 N.ar      1 NAP501      0.0000 
     22 C4A       153.7050  142.4450   85.9770 C.ar      1 NAP501      0.0000 
     23 O3        150.6680  138.6560   92.4720 O.3       1 NAP501      0.0000 
     24 PN        149.1750  137.9800   92.5590 P.3       1 NAP501      0.0000 
     25 O1N       148.7870  137.8850   94.0080 O.co2     1 NAP501      0.0000 
     26 O2N       149.1330  136.6030   91.9470 O.co2     1 NAP501      0.0000 
     27 O5D       148.1060  138.9570   91.7900 O.3       1 NAP501      0.0000 
     28 C5D       147.7130  138.5920   90.5060 C.3       1 NAP501      0.0000 
     29 C4D       146.1670  138.5820   90.4340 C.3       1 NAP501      0.0000 
     30 O4D       145.7450  137.4760   90.9710 O.3       1 NAP501      0.0000 
     31 C3D       145.5680  139.7290   91.2700 C.3       1 NAP501      0.0000 
     32 O3D       144.6720  140.4080   90.5220 O.3       1 NAP501      0.0000 
     33 C2D       144.8150  139.0500   92.4180 C.3       1 NAP501      0.0000 
     34 O2D       143.5510  139.7830   92.6960 O.3       1 NAP501      0.0000 
     35 C1D       144.5290  137.8770   91.9440 C.3       1 NAP501      0.0000 
     36 N1N       144.4310  136.8990   92.9900 N.pl3     1 NAP501      0.0000 
     37 C2N       145.3860  136.7820   93.9420 C.ar      1 NAP501      0.0000 
     38 C3N       145.2450  135.8220   94.9230 C.ar      1 NAP501      0.0000 
     39 C7N       146.2950  135.6780   96.0140 C.2       1 NAP501      0.0000 
     40 O7N       147.3200  136.2560   95.9310 O.2       1 NAP501      0.0000 
     41 N7N       146.0190  134.8350   97.1580 N.am      1 NAP501      0.0000 
     42 C4N       144.1710  135.0070   94.9280 C.ar      1 NAP501      0.0000 
     43 C5N       143.2240  135.1200   93.9700 C.ar      1 NAP501      0.0000 
     44 C6N       143.3630  136.0810   92.9890 C.ar      1 NAP501      0.0000 
     45 P2B       155.2720  138.4560   84.8610 P.3       1 NAP501      0.0000 
     46 O1X       154.2400  138.3900   83.7640 O.co2     1 NAP501      0.0000 
     47 O2X       156.0610  139.7290   84.7050 O.co2     1 NAP501      0.0000 
     48 O3X       156.1930  137.2690   84.7570 O.co2     1 NAP501      0.0000 
@<TRIPOS>BOND
     1    1    2 ar   
     2    1    3 ar   
     3    1    4 1    
     4    1   23 1    
     5    4    5 1    
     6    5    6 1    
     7    6    7 1    
     8    6    8 1    
     9    7   12 1    
    10    8    9 1    
    11    8   10 1    
    12   10   11 1    
    13   10   12 1    
    14   11   45 1    
    15   12   13 1    
    16   13   14 1    
    17   13   22 1    
    18   14   15 2    
    19   15   16 1    
    20   16   17 ar   
    21   16   22 ar   
    22   17   18 1    
    23   17   19 ar   
    24   19   20 ar   
    25   20   21 ar   
    26   21   22 ar   
    27   23   24 1    
    28   24   25 ar   
    29   24   26 ar   
    30   24   27 1    
    31   27   28 1    
    32   28   29 1    
    33   29   30 1    
    34   29   31 1    
    35   30   35 1    
    36   31   32 1    
    37   31   33 1    
    38   33   34 1    
    39   33   35 1    
    40   35   36 1    
    41   36   37 ar   
    42   36   44 ar   
    43   37   38 ar   
    44   38   39 1    
    45   38   42 ar   
    46   39   40 2    
    47   39   41 am   
    48   42   43 ar   
    49   43   44 ar   
    50   45   46 ar   
    51   45   47 ar   
    52   45   48 ar   
@<TRIPOS>SUBSTRUCTURE
     1 NAP501      1 GROUP   
@<TRIPOS>SET
ATOM$ORANGE STATIC     ATOMS   COLORGROUP SYSTEM 
42 5 5 6 6 8 8 10 10 12 12 14 14 16 16 17 17 20 \
20 22 22 28 28 29 29 31 31 33 33 35 35 37 37 38 38 39 \
39 42 42 43 43 44 44 

