#    Name: 6hd1_4_FAD
#    Modification time : Fri May 22 19:28:29 2020

@<TRIPOS>MOLECULE
6hd1_4_FAD
   53    58     1     0     1
SMALL
NO_CHARGES


@<TRIPOS>ATOM
      1 PA        146.5250  128.5630  108.8760 P.3       1 FAD503      0.0000 
      2 O1A       146.5060  129.7660  108.0200 O.co2     1 FAD503      0.0000 
      3 O2A       145.8590  127.3350  108.2790 O.co2     1 FAD503      0.0000 
      4 O5B       147.9410  128.1690  109.3000 O.3       1 FAD503      0.0000 
      5 C5B       148.9760  129.1590  109.4450 C.3       1 FAD503      0.0000 
      6 C4B       150.1090  128.7860  108.5330 C.3       1 FAD503      0.0000 
      7 O4B       149.5910  128.3820  107.2480 O.3       1 FAD503      0.0000 
      8 C3B       151.0720  129.9170  108.2200 C.3       1 FAD503      0.0000 
      9 O3B       152.0490  130.0250  109.2440 O.3       1 FAD503      0.0000 
     10 C2B       151.6770  129.4470  106.9030 C.3       1 FAD503      0.0000 
     11 O2B       152.6760  128.4580  107.1100 O.3       1 FAD503      0.0000 
     12 C1B       150.4500  128.8460  106.2180 C.3       1 FAD503      0.0000 
     13 N9A       149.7200  129.8170  105.4210 N.pl3     1 FAD503      0.0000 
     14 C8A       148.4730  130.3180  105.6670 C.2       1 FAD503      0.0000 
     15 N7A       148.0690  131.2010  104.7870 N.2       1 FAD503      0.0000 
     16 C5A       149.1330  131.2910  103.9050 C.ar      1 FAD503      0.0000 
     17 C6A       149.3410  132.0570  102.7440 C.ar      1 FAD503      0.0000 
     18 N6A       148.4430  132.9120  102.2480 N.pl3     1 FAD503      0.0000 
     19 N1A       150.5150  131.9060  102.0940 N.ar      1 FAD503      0.0000 
     20 C2A       151.4140  131.0490  102.5800 C.ar      1 FAD503      0.0000 
     21 N3A       151.3290  130.2760  103.6630 N.ar      1 FAD503      0.0000 
     22 C4A       150.1590  130.4460  104.2860 C.ar      1 FAD503      0.0000 
     23 N1        139.7950  123.7200  110.0850 N.2       1 FAD503      0.0000 
     24 C2        139.2890  123.6760  108.8230 C.2       1 FAD503      0.0000 
     25 O2        140.0170  123.7260  107.8300 O.2       1 FAD503      0.0000 
     26 N3        137.9350  123.5700  108.6370 N.am      1 FAD503      0.0000 
     27 C4        136.9940  123.5070  109.6140 C.2       1 FAD503      0.0000 
     28 O4        135.8050  123.4120  109.3210 O.2       1 FAD503      0.0000 
     29 C4X       137.5330  123.5500  110.9470 C.2       1 FAD503      0.0000 
     30 N5        136.7150  123.4930  111.9190 N.2       1 FAD503      0.0000 
     31 C5X       137.2140  123.5340  113.1890 C.ar      1 FAD503      0.0000 
     32 C6        136.3270  123.4740  114.2540 C.ar      1 FAD503      0.0000 
     33 C7        136.7820  123.5100  115.5640 C.ar      1 FAD503      0.0000 
     34 C7M       135.7920  123.4310  116.6940 C.3       1 FAD503      0.0000 
     35 C8        138.1560  123.6170  115.8160 C.ar      1 FAD503      0.0000 
     36 C8M       138.6800  123.6680  117.2230 C.3       1 FAD503      0.0000 
     37 C9        139.0450  123.6790  114.7520 C.ar      1 FAD503      0.0000 
     38 C9A       138.5830  123.6420  113.4450 C.ar      1 FAD503      0.0000 
     39 N10       139.4480  123.7110  112.3400 N.pl3     1 FAD503      0.0000 
     40 C10       138.9550  123.6610  111.0780 C.2       1 FAD503      0.0000 
     41 C1'       140.8960  123.8050  112.5240 C.3       1 FAD503      0.0000 
     42 C2'       141.4000  125.2350  112.6090 C.3       1 FAD503      0.0000 
     43 O2'       140.2930  126.1280  112.5230 O.3       1 FAD503      0.0000 
     44 C3'       142.3500  125.4950  111.4430 C.3       1 FAD503      0.0000 
     45 O3'       143.6850  125.4550  111.9270 O.3       1 FAD503      0.0000 
     46 C4'       142.1010  126.8230  110.7340 C.3       1 FAD503      0.0000 
     47 O4'       141.3820  126.5500  109.5320 O.3       1 FAD503      0.0000 
     48 C5'       143.3660  127.5920  110.4180 C.3       1 FAD503      0.0000 
     49 O5'       144.2070  127.6400  111.5900 O.3       1 FAD503      0.0000 
     50 P         145.7550  127.8840  111.4650 P.3       1 FAD503      0.0000 
     51 O1P       146.3260  128.6050  112.6870 O.co2     1 FAD503      0.0000 
     52 O2P       146.4110  126.6400  111.1260 O.co2     1 FAD503      0.0000 
     53 O3P       145.8280  128.8770  110.2610 O.3       1 FAD503      0.0000 
@<TRIPOS>BOND
     1    1    2 ar   
     2    1    3 ar   
     3    1    4 1    
     4    1   53 1    
     5    4    5 1    
     6    5    6 1    
     7    6    7 1    
     8    6    8 1    
     9    7   12 1    
    10    8    9 1    
    11    8   10 1    
    12   10   11 1    
    13   10   12 1    
    14   12   13 1    
    15   13   14 1    
    16   13   22 1    
    17   14   15 2    
    18   15   16 1    
    19   16   17 ar   
    20   16   22 ar   
    21   17   18 1    
    22   17   19 ar   
    23   19   20 ar   
    24   20   21 ar   
    25   21   22 ar   
    26   23   24 1    
    27   23   40 2    
    28   24   25 2    
    29   24   26 am   
    30   26   27 am   
    31   27   28 2    
    32   27   29 1    
    33   29   30 2    
    34   29   40 1    
    35   30   31 1    
    36   31   32 ar   
    37   31   38 ar   
    38   32   33 ar   
    39   33   34 1    
    40   33   35 ar   
    41   35   36 1    
    42   35   37 ar   
    43   37   38 ar   
    44   38   39 1    
    45   39   40 1    
    46   39   41 1    
    47   41   42 1    
    48   42   43 1    
    49   42   44 1    
    50   44   45 1    
    51   44   46 1    
    52   46   47 1    
    53   46   48 1    
    54   48   49 1    
    55   49   50 1    
    56   50   51 ar   
    57   50   52 ar   
    58   50   53 1    
@<TRIPOS>SUBSTRUCTURE
     1 FAD503      1 GROUP   
@<TRIPOS>SET
ATOM$ORANGE STATIC     ATOMS   COLORGROUP SYSTEM 
54 5 5 6 6 8 8 10 10 12 12 14 14 16 16 17 17 20 \
20 22 22 24 24 27 27 29 29 31 31 32 32 33 33 34 34 35 \
35 36 36 37 37 38 38 40 40 41 41 42 42 44 44 46 46 48 \
48 

