#    Name: 6hd1_1_NAP_CAVITY_N1_6
#    Modification time : Fri May 22 19:27:38 2020

@<TRIPOS>MOLECULE
6hd1_1_NAP_CAVITY_N1_6
  119     0     7     0     0
SMALL
NO_CHARGES


@<TRIPOS>ATOM
      1 OG        145.2500  141.1200   90.8300 O.3       1 SER1        0.0000 
      2 OG        145.1400  139.7800   91.4900 O.3       1 SER1        0.0000 
      3 OG        144.4400  142.0400   92.5700 O.3       1 SER1        0.0000 
      4 OG        151.2400  138.9700   90.8600 O.3       1 SER1        0.0000 
      5 OG        149.8600  139.3200   91.3300 O.3       1 SER1        0.0000 
      6 OG        145.0100  142.6100   93.8300 O.3       1 SER1        0.0000 
      7 N         145.9500  138.8700   89.7500 N.am      2 ALA2        0.0000 
      8 N         147.2200  137.1800   89.9300 N.am      2 ALA2        0.0000 
      9 N         144.4600  137.8700   90.8800 N.am      2 ALA2        0.0000 
     10 N         143.0700  138.2100   91.3500 N.am      2 ALA2        0.0000 
     11 N         142.9600  136.8700   92.0100 N.am      2 ALA2        0.0000 
     12 N         150.6700  138.4000   89.6000 N.am      2 ALA2        0.0000 
     13 N         147.9000  139.0900   90.5400 N.am      2 ALA2        0.0000 
     14 O         143.7600  140.1200   91.9600 O.2       2 ALA2        0.0000 
     15 N         149.1700  137.4000   90.7300 N.am      2 ALA2        0.0000 
     16 N         147.7900  137.7500   91.2000 N.am      2 ALA2        0.0000 
     17 O         143.6500  138.7800   92.6100 O.2       2 ALA2        0.0000 
     18 O         149.0600  136.0600   91.3800 O.2       2 ALA2        0.0000 
     19 O         143.5400  137.4300   93.2700 O.2       2 ALA2        0.0000 
     20 O         143.4300  136.0900   93.9200 O.2       2 ALA2        0.0000 
     21 O         142.0400  136.4300   94.4000 O.2       2 ALA2        0.0000 
     22 N         143.3100  134.7500   94.5800 N.am      2 ALA2        0.0000 
     23 O         144.3300  140.6900   93.2200 O.2       2 ALA2        0.0000 
     24 O         151.1300  137.6300   91.5200 O.2       2 ALA2        0.0000 
     25 O         144.2200  139.3500   93.8800 O.2       2 ALA2        0.0000 
     26 O         144.1100  138.0000   94.5300 O.2       2 ALA2        0.0000 
     27 O         148.1400  135.6300   93.7700 O.2       2 ALA2        0.0000 
     28 O         144.0000  136.6600   95.1900 O.2       2 ALA2        0.0000 
     29 O         142.6200  137.0000   95.6600 O.2       2 ALA2        0.0000 
     30 N         143.8900  135.3100   95.8400 N.am      2 ALA2        0.0000 
     31 N         142.5100  135.6600   96.3200 N.am      2 ALA2        0.0000 
     32 O         143.3000  138.9200   96.2700 O.2       2 ALA2        0.0000 
     33 O         141.9200  139.2600   96.7400 O.2       2 ALA2        0.0000 
     34 O         143.1900  137.5700   96.9200 O.2       2 ALA2        0.0000 
     35 O         141.8100  137.9200   97.4000 O.2       2 ALA2        0.0000 
     36 O         145.7300  134.2000   97.2900 O.2       2 ALA2        0.0000 
     37 N         144.1000  142.1800   96.2200 N.am      2 ALA2        0.0000 
     38 O         147.5800  133.0800   98.7400 O.2       2 ALA2        0.0000 
     39 N         148.9400  136.9000   99.9600 N.am      2 ALA2        0.0000 
     40 N         148.8300  135.5600  100.6100 N.am      2 ALA2        0.0000 
     41 OD1       142.6000  141.1700   97.3500 O.co2     3 ASP3        0.0000 
     42 OD1       143.8700  139.4900   97.5300 O.co2     3 ASP3        0.0000 
     43 OD1       142.4900  139.8300   98.0000 O.co2     3 ASP3        0.0000 
     44 OD1       143.7600  138.1400   98.1900 O.co2     3 ASP3        0.0000 
     45 OD1       144.4500  140.0600   98.8000 O.co2     3 ASP3        0.0000 
     46 OD1       145.7200  138.3700   98.9800 O.co2     3 ASP3        0.0000 
     47 NZ        147.3300  136.5400   95.5100 N.4       4 LYS4        0.0000 
     48 NZ        147.2200  135.2000   96.1600 N.4       4 LYS4        0.0000 
     49 NZ        147.9100  137.1100   96.7700 N.4       4 LYS4        0.0000 
     50 NZ        147.8000  135.7700   97.4300 N.4       4 LYS4        0.0000 
     51 NZ        147.6900  134.4200   98.0800 N.4       4 LYS4        0.0000 
     52 NZ        148.4800  137.6800   98.0400 N.4       4 LYS4        0.0000 
     53 NZ        148.3700  136.3300   98.6900 N.4       4 LYS4        0.0000 
     54 NZ        148.2600  134.9900   99.3500 N.4       4 LYS4        0.0000 
     55 CZ        144.2300  135.1800   92.1900 C.ar      5 PHE5        0.0000 
     56 CZ        142.8500  135.5200   92.6600 C.ar      5 PHE5        0.0000 
     57 CZ        146.5200  139.4400   91.0100 C.ar      5 PHE5        0.0000 
     58 CZ        144.8100  135.7500   93.4500 C.ar      5 PHE5        0.0000 
     59 CZ        145.7100  140.3500   92.7500 C.ar      5 PHE5        0.0000 
     60 CZ        148.3600  138.3200   92.4600 C.ar      5 PHE5        0.0000 
     61 CZ        146.9800  138.6600   92.9300 C.ar      5 PHE5        0.0000 
     62 CZ        146.6500  134.6300   94.9000 C.ar      5 PHE5        0.0000 
     63 CZ        145.2700  134.9700   95.3700 C.ar      5 PHE5        0.0000 
     64 CZ        146.2900  140.9200   94.0100 C.ar      5 PHE5        0.0000 
     65 CZ        144.9000  141.2600   94.4800 C.ar      5 PHE5        0.0000 
     66 CZ        148.9400  138.8900   93.7300 C.ar      5 PHE5        0.0000 
     67 CZ        147.5600  139.2300   94.2000 C.ar      5 PHE5        0.0000 
     68 CZ        146.1700  139.5700   94.6700 C.ar      5 PHE5        0.0000 
     69 CZ        143.0800  136.2300   97.5800 C.ar      5 PHE5        0.0000 
     70 CZ        145.0300  136.4500   98.3700 C.ar      5 PHE5        0.0000 
     71 CZ        144.9200  135.1100   99.0300 C.ar      5 PHE5        0.0000 
     72 CZ        145.6100  137.0200   99.6400 C.ar      5 PHE5        0.0000 
     73 CZ        145.5000  135.6800  100.2900 C.ar      5 PHE5        0.0000 
     74 CZ        146.1800  137.5900  100.9000 C.ar      5 PHE5        0.0000 
     75 CA        144.5700  139.2100   90.2200 C.3       6 GLY6        0.0000 
     76 CA        145.8400  137.5200   90.4100 C.3       6 GLY6        0.0000 
     77 CA        145.7300  136.1800   91.0600 C.3       6 GLY6        0.0000 
     78 CA        144.3400  136.5200   91.5300 C.3       6 GLY6        0.0000 
     79 CA        147.6800  136.4000   91.8500 C.3       6 GLY6        0.0000 
     80 CA        146.3000  136.7500   92.3300 C.3       6 GLY6        0.0000 
     81 CA        146.1900  135.4000   92.9800 C.3       6 GLY6        0.0000 
     82 CA        149.7500  137.9700   91.9900 C.3       6 GLY6        0.0000 
     83 CA        142.8400  139.6900   94.3500 C.3       6 GLY6        0.0000 
     84 CA        149.6400  136.6300   92.6500 C.3       6 GLY6        0.0000 
     85 CA        148.2500  136.9700   93.1200 C.3       6 GLY6        0.0000 
     86 CA        146.7600  135.9700   94.2500 C.3       6 GLY6        0.0000 
     87 CA        143.5200  141.6100   94.9600 C.3       6 GLY6        0.0000 
     88 CA        143.4100  140.2600   95.6100 C.3       6 GLY6        0.0000 
     89 CA        142.0300  140.6100   96.0800 C.3       6 GLY6        0.0000 
     90 CA        148.8300  137.5400   94.3800 C.3       6 GLY6        0.0000 
     91 CA        147.1100  133.8500   96.8200 C.3       6 GLY6        0.0000 
     92 CA        144.3500  134.5400   97.7600 C.3       6 GLY6        0.0000 
     93 CA        145.5900  143.1800   95.0900 C.3       6 GLY6        0.0000 
     94 CA        146.1900  133.4200   99.2100 C.3       6 GLY6        0.0000 
     95 DU        146.4100  138.0900   91.6700 H         7 CUB7        0.0000 
     96 DU        145.0300  138.4300   92.1400 H         7 CUB7        0.0000 
     97 DU        144.9200  137.0900   92.8000 H         7 CUB7        0.0000 
     98 DU        145.6000  139.0000   93.4100 H         7 CUB7        0.0000 
     99 DU        146.8700  137.3200   93.5900 H         7 CUB7        0.0000 
    100 DU        145.3800  136.3200   94.7200 H         7 CUB7        0.0000 
    101 DU        144.7900  139.9200   95.1400 H         7 CUB7        0.0000 
    102 DU        147.4500  137.8900   94.8500 H         7 CUB7        0.0000 
    103 DU        144.6800  138.5700   95.8000 H         7 CUB7        0.0000 
    104 DU        145.9500  136.8800   95.9800 H         7 CUB7        0.0000 
    105 DU        144.5700  137.2300   96.4500 H         7 CUB7        0.0000 
    106 DU        145.8400  135.5400   96.6400 H         7 CUB7        0.0000 
    107 DU        144.4600  135.8800   97.1100 H         7 CUB7        0.0000 
    108 DU        145.4800  141.8300   95.7500 H         7 CUB7        0.0000 
    109 DU        143.9800  140.8300   96.8800 H         7 CUB7        0.0000 
    110 DU        145.2600  139.1400   97.0600 H         7 CUB7        0.0000 
    111 DU        146.5300  137.4500   97.2400 H         7 CUB7        0.0000 
    112 DU        145.1400  137.8000   97.7200 H         7 CUB7        0.0000 
    113 DU        146.4200  136.1100   97.9000 H         7 CUB7        0.0000 
    114 DU        146.3000  134.7700   98.5600 H         7 CUB7        0.0000 
    115 DU        146.9900  136.6800   99.1600 H         7 CUB7        0.0000 
    116 DU        146.8800  135.3300   99.8200 H         7 CUB7        0.0000 
    117 DU        146.7700  133.9900  100.4800 H         7 CUB7        0.0000 
    118 DU        147.5600  137.2500  100.4300 H         7 CUB7        0.0000 
    119 DU        147.4500  135.9000  101.0800 H         7 CUB7        0.0000 
@<TRIPOS>BOND
@<TRIPOS>SUBSTRUCTURE
     1 SER1        1 GROUP   
     2 ALA2        7 GROUP   
     3 ASP3       41 GROUP   
     4 LYS4       47 GROUP   
     5 PHE5       55 GROUP   
     6 GLY6       75 GROUP   
     7 CUB7       95 GROUP   
@<TRIPOS>SET

