#    Name: 5z2m_1_GTP_CAVITY_N1_4
#    Modification time : Fri May 22 19:28:41 2020

@<TRIPOS>MOLECULE
5z2m_1_GTP_CAVITY_N1_4
   74     0     7     0     0
SMALL
NO_CHARGES


@<TRIPOS>ATOM
      1 OG         49.0900   -1.7000   11.6800 O.3       1 SER1        0.0000 
      2 OG         49.6700   -1.0700   12.9200 O.3       1 SER1        0.0000 
      3 OG         50.8200   -2.8100   13.2700 O.3       1 SER1        0.0000 
      4 OG         50.2400   -0.4400   14.1500 O.3       1 SER1        0.0000 
      5 OG         51.6100   -0.9100   13.7500 O.3       1 SER1        0.0000 
      6 OG         52.9800   -1.3700   13.3400 O.3       1 SER1        0.0000 
      7 OG         52.4000    1.0000   14.2300 O.3       1 SER1        0.0000 
      8 OG         53.7700    0.5400   13.8200 O.3       1 SER1        0.0000 
      9 N          48.3000   -0.6100   13.3200 N.am      2 ALA2        0.0000 
     10 N          48.0900   -1.8900   14.0700 N.am      2 ALA2        0.0000 
     11 O          48.6600   -1.2500   15.3000 O.2       2 ALA2        0.0000 
     12 N          50.4600    0.8400   13.4000 N.am      2 ALA2        0.0000 
     13 O          52.5600   -3.9300   14.8500 O.2       2 ALA2        0.0000 
     14 O          56.3600    1.5400   10.2800 O.2       2 ALA2        0.0000 
     15 O          56.1400    0.2600   11.0300 O.2       2 ALA2        0.0000 
     16 N          51.0300    1.4700   14.6300 N.am      2 ALA2        0.0000 
     17 N          53.5600   -0.7400   14.5800 N.am      2 ALA2        0.0000 
     18 N          53.3400   -2.0200   15.3300 N.am      2 ALA2        0.0000 
     19 N          54.9300   -1.2000   14.1800 N.am      2 ALA2        0.0000 
     20 N          51.6100    2.1000   15.8600 N.am      2 ALA2        0.0000 
     21 N          53.1900    2.9100   14.7100 N.am      2 ALA2        0.0000 
     22 N          53.9200   -1.3900   16.5600 N.am      2 ALA2        0.0000 
     23 N          53.9800    4.8200   15.1800 N.am      2 ALA2        0.0000 
     24 N          53.7700    3.5400   15.9400 N.am      2 ALA2        0.0000 
     25 N          54.5000   -0.7600   17.8000 N.am      2 ALA2        0.0000 
     26 OD1        51.9800   -4.5600   13.6200 O.co2     3 ASP3        0.0000 
     27 OD1        54.3500    1.1700   15.0600 O.co2     3 ASP3        0.0000 
     28 OD1        54.1300   -0.1100   15.8100 O.co2     3 ASP3        0.0000 
     29 OD1        54.7100    0.5200   17.0400 O.co2     3 ASP3        0.0000 
     30 NZ         57.7200    4.0800   11.9900 N.4       4 LYS4        0.0000 
     31 NZ         57.1400    6.4500   12.8700 N.4       4 LYS4        0.0000 
     32 CZ         50.0300   -1.7200   14.9000 C.ar      5 PHE5        0.0000 
     33 CZ         51.4000   -2.1800   14.5000 C.ar      5 PHE5        0.0000 
     34 CZ         51.1900   -3.4600   15.2500 C.ar      5 PHE5        0.0000 
     35 CZ         53.4100    1.1900   11.8400 C.ar      5 PHE5        0.0000 
     36 CZ         54.7800    0.7200   11.4300 C.ar      5 PHE5        0.0000 
     37 CZ         52.6200    2.2800   13.4700 C.ar      5 PHE5        0.0000 
     38 CZ         52.1900   -0.2700   14.9800 C.ar      5 PHE5        0.0000 
     39 CZ         51.9800   -1.5500   15.7300 C.ar      5 PHE5        0.0000 
     40 CZ         53.9800    1.8200   13.0700 C.ar      5 PHE5        0.0000 
     41 CZ         55.7800    3.9100   11.1600 C.ar      5 PHE5        0.0000 
     42 CZ         55.5600    2.6300   11.9100 C.ar      5 PHE5        0.0000 
     43 CZ         53.4000    4.1900   13.9500 C.ar      5 PHE5        0.0000 
     44 CZ         52.7700    0.3600   16.2100 C.ar      5 PHE5        0.0000 
     45 CZ         52.5500   -0.9200   16.9700 C.ar      5 PHE5        0.0000 
     46 CZ         54.9900    5.0100   12.8000 C.ar      5 PHE5        0.0000 
     47 CZ         54.7700    3.7300   13.5500 C.ar      5 PHE5        0.0000 
     48 CZ         53.1300   -0.2900   18.2000 C.ar      5 PHE5        0.0000 
     49 CZ         52.9200   -1.5700   18.9500 C.ar      5 PHE5        0.0000 
     50 CA         47.5100   -2.5200   12.8400 C.3       6 GLY6        0.0000 
     51 CA         49.4500   -2.3500   13.6700 C.3       6 GLY6        0.0000 
     52 CA         52.7700   -2.6500   14.1000 C.3       6 GLY6        0.0000 
     53 CA         54.5600   -0.5600   12.1900 C.3       6 GLY6        0.0000 
     54 CA         50.8200    0.1900   15.3800 C.3       6 GLY6        0.0000 
     55 CA         55.3500    1.3500   12.6700 C.3       6 GLY6        0.0000 
     56 CA         55.1400    0.0800   13.4200 C.3       6 GLY6        0.0000 
     57 CA         56.9300    2.1700   11.5100 C.3       6 GLY6        0.0000 
     58 CA         56.7200    0.8900   12.2700 C.3       6 GLY6        0.0000 
     59 CA         51.4000    0.8200   16.6100 C.3       6 GLY6        0.0000 
     60 CA         56.3500    4.5400   12.3900 C.3       6 GLY6        0.0000 
     61 CA         56.1400    3.2600   13.1500 C.3       6 GLY6        0.0000 
     62 CA         55.9300    1.9800   13.9000 C.3       6 GLY6        0.0000 
     63 CA         57.5100    2.8000   12.7400 C.3       6 GLY6        0.0000 
     64 CA         51.9700    1.4500   17.8500 C.3       6 GLY6        0.0000 
     65 CA         54.1900    6.1000   14.4300 C.3       6 GLY6        0.0000 
     66 CA         55.7800    6.9200   13.2700 C.3       6 GLY6        0.0000 
     67 CA         56.9300    5.1700   13.6300 C.3       6 GLY6        0.0000 
     68 CA         56.7200    3.8900   14.3800 C.3       6 GLY6        0.0000 
     69 CA         58.3000    4.7100   13.2200 C.3       6 GLY6        0.0000 
     70 CA         58.0900    3.4300   13.9800 C.3       6 GLY6        0.0000 
     71 DU         52.9800    1.6400   15.4600 H         7 CUB7        0.0000 
     72 DU         54.5600    2.4500   14.3000 H         7 CUB7        0.0000 
     73 DU         55.5600    5.6400   14.0300 H         7 CUB7        0.0000 
     74 DU         55.3500    4.3600   14.7800 H         7 CUB7        0.0000 
@<TRIPOS>BOND
@<TRIPOS>SUBSTRUCTURE
     1 SER1        1 GROUP   
     2 ALA2        9 GROUP   
     3 ASP3       26 GROUP   
     4 LYS4       30 GROUP   
     5 PHE5       32 GROUP   
     6 GLY6       50 GROUP   
     7 CUB7       71 GROUP   
@<TRIPOS>SET

