#    Name: 5z2m_1_GTP
#    Modification time : Fri May 22 19:28:38 2020

@<TRIPOS>MOLECULE
5z2m_1_GTP
   32    34     1     0     1
SMALL
NO_CHARGES


@<TRIPOS>ATOM
      1 PG         51.4170   -7.1320   16.5760 P.3       1 GTP202      0.0000 
      2 O1G        50.0580   -7.1450   15.9330 O.co2     1 GTP202      0.0000 
      3 O2G        52.1350   -8.4430   16.3090 O.co2     1 GTP202      0.0000 
      4 O3G        51.1920   -6.9350   18.0670 O.co2     1 GTP202      0.0000 
      5 O3B        52.3310   -5.9070   16.0360 O.3       1 GTP202      0.0000 
      6 PB         52.5710   -5.5070   14.4940 P.3       1 GTP202      0.0000 
      7 O1B        51.3630   -5.7500   13.6480 O.co2     1 GTP202      0.0000 
      8 O2B        53.8300   -6.1370   13.9610 O.co2     1 GTP202      0.0000 
      9 O3A        52.9440   -3.9410   14.5420 O.3       1 GTP202      0.0000 
     10 PA         51.9800   -2.7470   14.0010 P.3       1 GTP202      0.0000 
     11 O1A        51.8620   -2.7170   12.4840 O.co2     1 GTP202      0.0000 
     12 O2A        50.6340   -2.8680   14.6740 O.co2     1 GTP202      0.0000 
     13 O5'        52.8100   -1.4620   14.4740 O.3       1 GTP202      0.0000 
     14 C5'        53.1520   -1.1900   15.8170 C.3       1 GTP202      0.0000 
     15 C4'        53.3090    0.3340   15.9420 C.3       1 GTP202      0.0000 
     16 O4'        54.4380    0.7740   15.2070 O.3       1 GTP202      0.0000 
     17 C3'        52.1140    1.0780   15.3710 C.3       1 GTP202      0.0000 
     18 O3'        51.8640    2.2020   16.1840 O.3       1 GTP202      0.0000 
     19 C2'        52.5720    1.5440   14.0050 C.3       1 GTP202      0.0000 
     20 O2'        51.9410    2.7470   13.6280 O.3       1 GTP202      0.0000 
     21 C1'        54.0700    1.7070   14.1980 C.3       1 GTP202      0.0000 
     22 N9         54.8130    1.4270   12.9490 N.pl3     1 GTP202      0.0000 
     23 C8         54.7300    0.3330   12.1040 C.2       1 GTP202      0.0000 
     24 N7         55.6170    0.5020   11.0840 N.2       1 GTP202      0.0000 
     25 C5         56.2670    1.6820   11.2730 C.2       1 GTP202      0.0000 
     26 C6         57.2570    2.3470   10.5580 C.2       1 GTP202      0.0000 
     27 O6         57.7200    1.8700    9.5150 O.2       1 GTP202      0.0000 
     28 N1         57.7260    3.5610   11.0280 N.am      1 GTP202      0.0000 
     29 C2         57.2140    4.1120   12.1840 C.2       1 GTP202      0.0000 
     30 N2         57.6640    5.2820   12.6260 N.pl3     1 GTP202      0.0000 
     31 N3         56.2340    3.4470   12.8860 N.2       1 GTP202      0.0000 
     32 C4         55.7680    2.2620   12.4350 C.2       1 GTP202      0.0000 
@<TRIPOS>BOND
     1    1    2 ar   
     2    1    3 ar   
     3    1    4 ar   
     4    1    5 1    
     5    5    6 1    
     6    6    7 ar   
     7    6    8 ar   
     8    6    9 1    
     9    9   10 1    
    10   10   11 ar   
    11   10   12 ar   
    12   10   13 1    
    13   13   14 1    
    14   14   15 1    
    15   15   16 1    
    16   15   17 1    
    17   16   21 1    
    18   17   18 1    
    19   17   19 1    
    20   19   20 1    
    21   19   21 1    
    22   21   22 1    
    23   22   23 1    
    24   22   32 1    
    25   23   24 2    
    26   24   25 1    
    27   25   26 1    
    28   25   32 2    
    29   26   27 2    
    30   26   28 am   
    31   28   29 1    
    32   29   30 1    
    33   29   31 2    
    34   31   32 1    
@<TRIPOS>SUBSTRUCTURE
     1 GTP202      1 GROUP   
@<TRIPOS>SET
ATOM$ORANGE STATIC     ATOMS   COLORGROUP SYSTEM 
20 14 14 15 15 17 17 19 19 21 21 23 23 25 25 26 26 29 \
29 32 32 

