#    Name: 5z2m_2_GTP
#    Modification time : Fri May 22 19:28:43 2020

@<TRIPOS>MOLECULE
5z2m_2_GTP
   32    34     1     0     1
SMALL
NO_CHARGES


@<TRIPOS>ATOM
      1 PG         57.8360  -31.3150   50.6330 P.3       1 GTP201      0.0000 
      2 O1G        57.3250  -30.7240   49.3150 O.co2     1 GTP201      0.0000 
      3 O2G        58.8840  -30.3850   51.2310 O.co2     1 GTP201      0.0000 
      4 O3G        56.6810  -31.4440   51.6110 O.co2     1 GTP201      0.0000 
      5 O3B        58.4370  -32.8180   50.5140 O.3       1 GTP201      0.0000 
      6 PB         58.4610  -33.5880   49.1060 P.3       1 GTP201      0.0000 
      7 O1B        57.4840  -32.9520   48.1280 O.co2     1 GTP201      0.0000 
      8 O2B        59.8750  -33.6090   48.5610 O.co2     1 GTP201      0.0000 
      9 O3A        58.0940  -35.1410   49.3550 O.3       1 GTP201      0.0000 
     10 PA         57.2400  -35.6920   50.6020 P.3       1 GTP201      0.0000 
     11 O1A        56.1150  -34.7410   50.9380 O.co2     1 GTP201      0.0000 
     12 O2A        58.1930  -35.8560   51.7540 O.co2     1 GTP201      0.0000 
     13 O5'        56.7010  -37.1390   50.1470 O.3       1 GTP201      0.0000 
     14 C5'        56.3250  -37.4900   48.8280 C.3       1 GTP201      0.0000 
     15 C4'        55.6460  -38.8620   48.9130 C.3       1 GTP201      0.0000 
     16 O4'        56.6210  -39.8790   48.7550 O.3       1 GTP201      0.0000 
     17 C3'        54.9930  -39.0900   50.2680 C.3       1 GTP201      0.0000 
     18 O3'        53.6760  -39.5520   50.0740 O.3       1 GTP201      0.0000 
     19 C2'        55.7950  -40.1770   50.9460 C.3       1 GTP201      0.0000 
     20 O2'        54.9360  -41.1560   51.4700 O.3       1 GTP201      0.0000 
     21 C1'        56.6300  -40.7840   49.8400 C.3       1 GTP201      0.0000 
     22 N9         58.0140  -40.9610   50.2920 N.pl3     1 GTP201      0.0000 
     23 C8         58.8460  -40.0140   50.8390 C.2       1 GTP201      0.0000 
     24 N7         60.0390  -40.5980   51.1050 N.2       1 GTP201      0.0000 
     25 C5         59.9740  -41.9040   50.7330 C.2       1 GTP201      0.0000 
     26 C6         60.8860  -42.9580   50.7730 C.2       1 GTP201      0.0000 
     27 O6         62.0230  -42.8000   51.2190 O.2       1 GTP201      0.0000 
     28 N1         60.5150  -44.2030   50.3050 N.am      1 GTP201      0.0000 
     29 C2         59.2460  -44.4020   49.8020 C.2       1 GTP201      0.0000 
     30 N2         58.8810  -45.5970   49.3520 N.pl3     1 GTP201      0.0000 
     31 N3         58.3470  -43.3580   49.7650 N.2       1 GTP201      0.0000 
     32 C4         58.7060  -42.1360   50.2200 C.2       1 GTP201      0.0000 
@<TRIPOS>BOND
     1    1    2 ar   
     2    1    3 ar   
     3    1    4 ar   
     4    1    5 1    
     5    5    6 1    
     6    6    7 ar   
     7    6    8 ar   
     8    6    9 1    
     9    9   10 1    
    10   10   11 ar   
    11   10   12 ar   
    12   10   13 1    
    13   13   14 1    
    14   14   15 1    
    15   15   16 1    
    16   15   17 1    
    17   16   21 1    
    18   17   18 1    
    19   17   19 1    
    20   19   20 1    
    21   19   21 1    
    22   21   22 1    
    23   22   23 1    
    24   22   32 1    
    25   23   24 2    
    26   24   25 1    
    27   25   26 1    
    28   25   32 2    
    29   26   27 2    
    30   26   28 am   
    31   28   29 1    
    32   29   30 1    
    33   29   31 2    
    34   31   32 1    
@<TRIPOS>SUBSTRUCTURE
     1 GTP201      1 GROUP   
@<TRIPOS>SET
ATOM$ORANGE STATIC     ATOMS   COLORGROUP SYSTEM 
20 14 14 15 15 17 17 19 19 21 21 23 23 25 25 26 26 29 \
29 32 32 

