#    Name: 6c3o_5_ADP
#    Modification time : Fri May 22 19:25:26 2020

@<TRIPOS>MOLECULE
6c3o_5_ADP
   27    29     1     0     1
SMALL
NO_CHARGES


@<TRIPOS>ATOM
      1 PB        158.4090  149.2340  238.3530 P.3       1 ADP2001     0.0000 
      2 O1B       159.0700  147.8790  238.3750 O.co2     1 ADP2001     0.0000 
      3 O2B       156.9050  149.1940  238.4330 O.co2     1 ADP2001     0.0000 
      4 O3B       159.0510  150.2600  239.2500 O.co2     1 ADP2001     0.0000 
      5 PA        160.2140  150.0350  236.4080 P.3       1 ADP2001     0.0000 
      6 O1A       160.3440  149.5330  234.9950 O.co2     1 ADP2001     0.0000 
      7 O2A       161.1190  149.4810  237.4780 O.co2     1 ADP2001     0.0000 
      8 O3A       158.7010  149.7630  236.8670 O.3       1 ADP2001     0.0000 
      9 O5'       160.3210  151.6390  236.3640 O.3       1 ADP2001     0.0000 
     10 C5'       159.3470  152.4740  236.9800 C.3       1 ADP2001     0.0000 
     11 C4'       159.4870  153.8860  236.4250 C.3       1 ADP2001     0.0000 
     12 O4'       160.3890  153.8880  235.3210 O.3       1 ADP2001     0.0000 
     13 C3'       158.1590  154.4230  235.9200 C.3       1 ADP2001     0.0000 
     14 O3'       157.7940  155.5850  236.6660 O.3       1 ADP2001     0.0000 
     15 C2'       158.3750  154.8030  234.4700 C.3       1 ADP2001     0.0000 
     16 O2'       158.0010  156.1640  234.2540 O.3       1 ADP2001     0.0000 
     17 C1'       159.8580  154.6360  234.2290 C.3       1 ADP2001     0.0000 
     18 N9        160.0840  153.8800  232.9790 N.pl3     1 ADP2001     0.0000 
     19 C8        160.0420  152.5440  232.8560 C.2       1 ADP2001     0.0000 
     20 N7        160.3060  152.1600  231.5840 N.2       1 ADP2001     0.0000 
     21 C5        160.5170  153.2740  230.8690 C.ar      1 ADP2001     0.0000 
     22 C6        160.8400  153.5870  229.4630 C.ar      1 ADP2001     0.0000 
     23 N6        160.9900  152.6040  228.5460 N.pl3     1 ADP2001     0.0000 
     24 N1        160.9770  154.8850  229.1260 N.ar      1 ADP2001     0.0000 
     25 C2        160.8290  155.8680  230.0290 C.ar      1 ADP2001     0.0000 
     26 N3        160.5370  155.6570  231.3220 N.ar      1 ADP2001     0.0000 
     27 C4        160.3680  154.4040  231.7910 C.ar      1 ADP2001     0.0000 
@<TRIPOS>BOND
     1    1    2 ar   
     2    1    3 ar   
     3    1    4 ar   
     4    1    8 1    
     5    5    6 ar   
     6    5    7 ar   
     7    5    8 1    
     8    5    9 1    
     9    9   10 1    
    10   10   11 1    
    11   11   12 1    
    12   11   13 1    
    13   12   17 1    
    14   13   14 1    
    15   13   15 1    
    16   15   16 1    
    17   15   17 1    
    18   17   18 1    
    19   18   19 1    
    20   18   27 1    
    21   19   20 2    
    22   20   21 1    
    23   21   22 ar   
    24   21   27 ar   
    25   22   23 1    
    26   22   24 ar   
    27   24   25 ar   
    28   25   26 ar   
    29   26   27 ar   
@<TRIPOS>SUBSTRUCTURE
     1 ADP2001     1 GROUP   
@<TRIPOS>SET
ATOM$ORANGE STATIC     ATOMS   COLORGROUP SYSTEM 
20 10 10 11 11 13 13 15 15 17 17 19 19 21 21 22 22 25 \
25 27 27 

