#    Name: 6c3o_2_ATP_CAVITY_N1_8
#    Modification time : Fri May 22 19:25:07 2020

@<TRIPOS>MOLECULE
6c3o_2_ATP_CAVITY_N1_8
   36     0     4     0     0
SMALL
NO_CHARGES


@<TRIPOS>ATOM
      1 OG        217.9200  194.4200  204.2500 O.3       1 SER1        0.0000 
      2 OG        217.8800  196.4900  204.7300 O.3       1 SER1        0.0000 
      3 N         219.6300  189.8600  205.2700 N.am      2 ALA2        0.0000 
      4 N         219.0000  191.2800  203.8200 N.am      2 ALA2        0.0000 
      5 N         220.2100  190.5100  207.2000 N.am      2 ALA2        0.0000 
      6 N         218.5400  193.0100  205.7000 N.am      2 ALA2        0.0000 
      7 N         219.5800  191.9300  205.7500 N.am      2 ALA2        0.0000 
      8 O         221.4600  191.5200  203.0000 O.2       2 ALA2        0.0000 
      9 N         219.9600  194.3300  204.8300 N.am      2 ALA2        0.0000 
     10 N         219.3300  195.7500  203.3800 N.am      2 ALA2        0.0000 
     11 N         220.3700  194.6700  203.4300 N.am      2 ALA2        0.0000 
     12 N         220.3300  196.7300  203.9200 N.am      2 ALA2        0.0000 
     13 CA        218.6300  188.8800  204.7300 C.3       3 GLY6        0.0000 
     14 CA        220.6200  190.8500  205.8000 C.3       3 GLY6        0.0000 
     15 CA        221.0400  191.1900  204.4000 C.3       3 GLY6        0.0000 
     16 CA        219.3800  193.6800  202.9000 C.3       3 GLY6        0.0000 
     17 CA        220.4200  192.6000  202.9500 C.3       3 GLY6        0.0000 
     18 CA        220.5800  192.9100  206.2800 C.3       3 GLY6        0.0000 
     19 CA        221.6200  191.8300  206.3300 C.3       3 GLY6        0.0000 
     20 CA        218.9200  195.4100  204.7800 C.3       3 GLY6        0.0000 
     21 CA        218.8700  197.4700  205.2700 C.3       3 GLY6        0.0000 
     22 CA        219.9100  196.4000  205.3200 C.3       3 GLY6        0.0000 
     23 CA        220.7500  197.0700  202.5100 C.3       3 GLY6        0.0000 
     24 CA        219.8700  198.4600  205.8000 C.3       3 GLY6        0.0000 
     25 CA        220.2900  198.8000  204.4000 C.3       3 GLY6        0.0000 
     26 CA        221.3300  197.7200  204.4500 C.3       3 GLY6        0.0000 
     27 CA        221.7400  198.0600  203.0500 C.3       3 GLY6        0.0000 
     28 CA        221.2800  199.7800  204.9300 C.3       3 GLY6        0.0000 
     29 CA        222.7400  199.0400  203.5800 C.3       3 GLY6        0.0000 
     30 DU        219.0500  189.2100  203.3300 H         4 CUB7        0.0000 
     31 DU        220.0400  190.2000  203.8600 H         4 CUB7        0.0000 
     32 DU        220.4600  190.5400  202.4600 H         4 CUB7        0.0000 
     33 DU        218.9600  193.3400  204.3000 H         4 CUB7        0.0000 
     34 DU        220.0000  192.2700  204.3500 H         4 CUB7        0.0000 
     35 DU        219.2900  197.8100  203.8700 H         4 CUB7        0.0000 
     36 DU        220.7000  199.1300  203.0000 H         4 CUB7        0.0000 
@<TRIPOS>BOND
@<TRIPOS>SUBSTRUCTURE
     1 SER1        1 GROUP   
     2 ALA2        3 GROUP   
     3 GLY6       13 GROUP   
     4 CUB7       30 GROUP   
@<TRIPOS>SET

