#    Name: 6c3o_5_ADP_CAVITY_N1_4
#    Modification time : Fri May 22 19:25:27 2020

@<TRIPOS>MOLECULE
6c3o_5_ADP_CAVITY_N1_4
   33     0     5     0     0
SMALL
NO_CHARGES


@<TRIPOS>ATOM
      1 OG        154.1500  147.0000  238.1200 O.3       1 SER1        0.0000 
      2 OG        153.5200  148.4200  236.6700 O.3       1 SER1        0.0000 
      3 OG        154.5600  147.3400  236.7200 O.3       1 SER1        0.0000 
      4 OG        155.7700  146.5700  240.1000 O.3       1 SER1        0.0000 
      5 OG        155.5600  148.3200  237.2500 O.3       1 SER1        0.0000 
      6 OG        154.9300  149.7400  235.8000 O.3       1 SER1        0.0000 
      7 OG        156.3900  149.0000  234.4500 O.3       1 SER1        0.0000 
      8 OG        156.5600  149.3100  237.7900 O.3       1 SER1        0.0000 
      9 OG        155.9300  150.7300  236.3400 O.3       1 SER1        0.0000 
     10 OG        156.3500  151.0600  234.9300 O.3       1 SER1        0.0000 
     11 OG        157.3400  152.0500  235.4700 O.3       1 SER1        0.0000 
     12 OG        160.4200  150.8800  236.1000 O.3       1 SER1        0.0000 
     13 OG        160.3800  152.9400  236.5800 O.3       1 SER1        0.0000 
     14 N         155.1900  145.9200  238.1700 N.am      2 ALA2        0.0000 
     15 N         155.6000  146.2600  236.7700 N.am      2 ALA2        0.0000 
     16 N         154.9800  147.6700  235.3200 N.am      2 ALA2        0.0000 
     17 O         157.5500  150.2900  238.3200 O.2       2 ALA2        0.0000 
     18 O         158.9700  151.6200  237.4500 O.2       2 ALA2        0.0000 
     19 OD1       156.1800  146.9100  238.7000 O.co2     3 ASP3        0.0000 
     20 OD1       157.2200  145.8300  238.7500 O.co2     3 ASP3        0.0000 
     21 OD1       155.9800  148.6600  235.8500 O.co2     3 ASP3        0.0000 
     22 OD1       156.7600  147.5600  240.6400 O.co2     3 ASP3        0.0000 
     23 OD1       157.1800  147.8900  239.2400 O.co2     3 ASP3        0.0000 
     24 OD1       156.9700  149.6500  236.3900 O.co2     3 ASP3        0.0000 
     25 OD1       157.9700  150.6300  236.9200 O.co2     3 ASP3        0.0000 
     26 OD1       158.3900  150.9700  235.5200 O.co2     3 ASP3        0.0000 
     27 CA        156.8100  145.4900  240.1500 C.3       4 GLY6        0.0000 
     28 CA        158.2600  144.7500  238.8000 C.3       4 GLY6        0.0000 
     29 CA        158.2200  146.8100  239.2900 C.3       4 GLY6        0.0000 
     30 CA        156.9300  151.7100  236.8700 C.3       4 GLY6        0.0000 
     31 CA        157.9300  152.7000  237.4000 C.3       4 GLY6        0.0000 
     32 CA        160.0100  150.5400  237.5000 C.3       4 GLY6        0.0000 
     33 DU        159.3800  151.9500  236.0500 H         5 CUB7        0.0000 
@<TRIPOS>BOND
@<TRIPOS>SUBSTRUCTURE
     1 SER1        1 GROUP   
     2 ALA2       14 GROUP   
     3 ASP3       19 GROUP   
     4 GLY6       27 GROUP   
     5 CUB7       33 GROUP   
@<TRIPOS>SET

