#    Name: 6c3o_6_ATP
#    Modification time : Fri May 22 19:25:46 2020

@<TRIPOS>MOLECULE
6c3o_6_ATP
   31    33     1     0     1
SMALL
NO_CHARGES


@<TRIPOS>ATOM
      1 PG        144.8990  131.3810  233.4030 P.3       1 ATP2004     0.0000 
      2 O1G       146.1490  132.0600  232.9060 O.co2     1 ATP2004     0.0000 
      3 O2G       145.1450  130.1010  234.1580 O.co2     1 ATP2004     0.0000 
      4 O3G       143.8750  132.3020  234.0100 O.co2     1 ATP2004     0.0000 
      5 PB        142.8600  130.0170  232.0350 P.3       1 ATP2004     0.0000 
      6 O1B       141.7020  130.9470  231.8210 O.co2     1 ATP2004     0.0000 
      7 O2B       142.8450  129.0390  233.1790 O.co2     1 ATP2004     0.0000 
      8 O3B       144.2000  130.8900  232.0560 O.3       1 ATP2004     0.0000 
      9 PA        142.0760  129.2310  229.4750 P.3       1 ATP2004     0.0000 
     10 O1A       142.3560  130.4560  228.6470 O.co2     1 ATP2004     0.0000 
     11 O2A       140.7050  128.9870  230.0420 O.co2     1 ATP2004     0.0000 
     12 O3A       143.1260  129.2070  230.6820 O.3       1 ATP2004     0.0000 
     13 O5'       142.5820  127.9340  228.6770 O.3       1 ATP2004     0.0000 
     14 C5'       142.0510  126.6390  228.9350 C.3       1 ATP2004     0.0000 
     15 C4'       142.7380  125.6690  227.9900 C.3       1 ATP2004     0.0000 
     16 O4'       142.3550  125.9860  226.6560 O.3       1 ATP2004     0.0000 
     17 C3'       144.2450  125.8050  228.0790 C.3       1 ATP2004     0.0000 
     18 O3'       144.8150  124.5360  228.3950 O.3       1 ATP2004     0.0000 
     19 C2'       144.7180  126.2370  226.7100 C.3       1 ATP2004     0.0000 
     20 O2'       145.6890  125.3140  226.2180 O.3       1 ATP2004     0.0000 
     21 C1'       143.4900  126.2150  225.8270 C.3       1 ATP2004     0.0000 
     22 N9        143.3420  127.5460  225.2120 N.pl3     1 ATP2004     0.0000 
     23 C8        143.1530  128.6900  225.8830 C.2       1 ATP2004     0.0000 
     24 N7        143.0600  129.7400  225.0350 N.2       1 ATP2004     0.0000 
     25 C5        143.1930  129.2610  223.7890 C.ar      1 ATP2004     0.0000 
     26 C6        143.1900  129.8340  222.4290 C.ar      1 ATP2004     0.0000 
     27 N6        143.0230  131.1610  222.2200 N.pl3     1 ATP2004     0.0000 
     28 N1        143.3640  128.9840  221.4000 N.ar      1 ATP2004     0.0000 
     29 C2        143.5320  127.6640  221.5930 C.ar      1 ATP2004     0.0000 
     30 N3        143.5440  127.0770  222.7980 N.ar      1 ATP2004     0.0000 
     31 C4        143.3830  127.8130  223.9130 C.ar      1 ATP2004     0.0000 
@<TRIPOS>BOND
     1    1    2 ar   
     2    1    3 ar   
     3    1    4 ar   
     4    1    8 1    
     5    5    6 ar   
     6    5    7 ar   
     7    5    8 1    
     8    5   12 1    
     9    9   10 ar   
    10    9   11 ar   
    11    9   12 1    
    12    9   13 1    
    13   13   14 1    
    14   14   15 1    
    15   15   16 1    
    16   15   17 1    
    17   16   21 1    
    18   17   18 1    
    19   17   19 1    
    20   19   20 1    
    21   19   21 1    
    22   21   22 1    
    23   22   23 1    
    24   22   31 1    
    25   23   24 2    
    26   24   25 1    
    27   25   26 ar   
    28   25   31 ar   
    29   26   27 1    
    30   26   28 ar   
    31   28   29 ar   
    32   29   30 ar   
    33   30   31 ar   
@<TRIPOS>SUBSTRUCTURE
     1 ATP2004     1 GROUP   
@<TRIPOS>SET
ATOM$ORANGE STATIC     ATOMS   COLORGROUP SYSTEM 
20 14 14 15 15 17 17 19 19 21 21 23 23 25 25 26 26 29 \
29 31 31 

