#    Name: 6c3o_9_ADP
#    Modification time : Fri May 22 19:26:48 2020

@<TRIPOS>MOLECULE
6c3o_9_ADP
   27    29     1     0     1
SMALL
NO_CHARGES


@<TRIPOS>ATOM
      1 PB        231.1470  240.3250  238.3910 P.3       1 ADP2001     0.0000 
      2 O1B       230.4750  241.6730  238.4190 O.co2     1 ADP2001     0.0000 
      3 O2B       232.6510  240.3760  238.4760 O.co2     1 ADP2001     0.0000 
      4 O3B       230.5110  239.2860  239.2790 O.co2     1 ADP2001     0.0000 
      5 PA        229.3550  239.5220  236.4350 P.3       1 ADP2001     0.0000 
      6 O1A       229.2250  240.0320  235.0250 O.co2     1 ADP2001     0.0000 
      7 O2A       228.4420  240.0610  237.5040 O.co2     1 ADP2001     0.0000 
      8 O3A       230.8640  239.8030  236.9000 O.3       1 ADP2001     0.0000 
      9 O5'       229.2610  237.9180  236.3790 O.3       1 ADP2001     0.0000 
     10 C5'       230.2400  237.0870  236.9920 C.3       1 ADP2001     0.0000 
     11 C4'       230.1130  235.6770  236.4270 C.3       1 ADP2001     0.0000 
     12 O4'       229.2150  235.6750  235.3200 O.3       1 ADP2001     0.0000 
     13 C3'       231.4470  235.1550  235.9230 C.3       1 ADP2001     0.0000 
     14 O3'       231.8180  233.9900  236.6620 O.3       1 ADP2001     0.0000 
     15 C2'       231.2390  234.7820  234.4700 C.3       1 ADP2001     0.0000 
     16 O2'       231.6240  233.4250  234.2460 O.3       1 ADP2001     0.0000 
     17 C1'       229.7540  234.9390  234.2250 C.3       1 ADP2001     0.0000 
     18 N9        229.5260  235.7010  232.9790 N.pl3     1 ADP2001     0.0000 
     19 C8        229.5580  237.0390  232.8660 C.2       1 ADP2001     0.0000 
     20 N7        229.2960  237.4300  231.5950 N.2       1 ADP2001     0.0000 
     21 C5        229.0960  236.3190  230.8720 C.ar      1 ADP2001     0.0000 
     22 C6        228.7800  236.0130  229.4630 C.ar      1 ADP2001     0.0000 
     23 N6        228.6260  237.0020  228.5520 N.pl3     1 ADP2001     0.0000 
     24 N1        228.6550  234.7170  229.1170 N.ar      1 ADP2001     0.0000 
     25 C2        228.8080  233.7280  230.0140 C.ar      1 ADP2001     0.0000 
     26 N3        229.0940  233.9330  231.3080 N.ar      1 ADP2001     0.0000 
     27 C4        229.2510  235.1840  231.7870 C.ar      1 ADP2001     0.0000 
@<TRIPOS>BOND
     1    1    2 ar   
     2    1    3 ar   
     3    1    4 ar   
     4    1    8 1    
     5    5    6 ar   
     6    5    7 ar   
     7    5    8 1    
     8    5    9 1    
     9    9   10 1    
    10   10   11 1    
    11   11   12 1    
    12   11   13 1    
    13   12   17 1    
    14   13   14 1    
    15   13   15 1    
    16   15   16 1    
    17   15   17 1    
    18   17   18 1    
    19   18   19 1    
    20   18   27 1    
    21   19   20 2    
    22   20   21 1    
    23   21   22 ar   
    24   21   27 ar   
    25   22   23 1    
    26   22   24 ar   
    27   24   25 ar   
    28   25   26 ar   
    29   26   27 ar   
@<TRIPOS>SUBSTRUCTURE
     1 ADP2001     1 GROUP   
@<TRIPOS>SET
ATOM$ORANGE STATIC     ATOMS   COLORGROUP SYSTEM 
20 10 10 11 11 13 13 15 15 17 17 19 19 21 21 22 22 25 \
25 27 27 

