#    Name: 6c3o_9_ADP_CAVITY_N1_4
#    Modification time : Fri May 22 19:26:49 2020

@<TRIPOS>MOLECULE
6c3o_9_ADP_CAVITY_N1_4
   42     0     5     0     0
SMALL
NO_CHARGES


@<TRIPOS>ATOM
      1 OG        230.4600  239.1200  233.1900 O.3       1 SER1        0.0000 
      2 OG        233.5800  235.8800  233.3400 O.3       1 SER1        0.0000 
      3 OG        230.8800  239.4600  231.7900 O.3       1 SER1        0.0000 
      4 OG        232.0800  238.6900  235.1700 O.3       1 SER1        0.0000 
      5 OG        233.1200  237.6100  235.2200 O.3       1 SER1        0.0000 
      6 OG        234.1700  236.5300  235.2700 O.3       1 SER1        0.0000 
      7 OG        231.4600  240.1100  233.7200 O.3       1 SER1        0.0000 
      8 OG        234.5800  236.8700  233.8700 O.3       1 SER1        0.0000 
      9 OG        229.8000  242.6000  232.2200 O.3       1 SER1        0.0000 
     10 OG        231.8800  240.4400  232.3200 O.3       1 SER1        0.0000 
     11 OG        234.1200  238.6000  235.7500 O.3       1 SER1        0.0000 
     12 OG        233.5000  240.0100  234.3000 O.3       1 SER1        0.0000 
     13 OG        233.6600  240.3200  237.6400 O.3       1 SER1        0.0000 
     14 OG        234.0800  240.6600  236.2400 O.3       1 SER1        0.0000 
     15 OG        235.1200  239.5800  236.2900 O.3       1 SER1        0.0000 
     16 OG        233.2000  242.0500  239.5200 O.3       1 SER1        0.0000 
     17 OG        235.0700  241.6500  236.7700 O.3       1 SER1        0.0000 
     18 OG        236.1200  240.5700  236.8200 O.3       1 SER1        0.0000 
     19 OG        234.2000  243.0400  240.0600 O.3       1 SER1        0.0000 
     20 OG        234.6100  243.3700  238.6600 O.3       1 SER1        0.0000 
     21 OG        235.6600  242.3000  238.7100 O.3       1 SER1        0.0000 
     22 O         235.2500  233.3900  234.8400 O.2       2 ALA2        0.0000 
     23 O         234.6300  234.8000  233.3900 O.2       2 ALA2        0.0000 
     24 O         235.2100  235.4500  235.3200 O.2       2 ALA2        0.0000 
     25 O         233.7100  238.2600  237.1500 O.2       2 ALA2        0.0000 
     26 N         232.9900  243.8100  236.6700 N.am      2 ALA2        0.0000 
     27 N         234.0300  242.7300  236.7200 N.am      2 ALA2        0.0000 
     28 OD1       231.0400  239.7700  235.1200 O.co2     3 ASP3        0.0000 
     29 OD1       230.4200  241.1900  233.6700 O.co2     3 ASP3        0.0000 
     30 OD1       233.0800  239.6800  235.7000 O.co2     3 ASP3        0.0000 
     31 OD1       232.4600  241.0900  234.2500 O.co2     3 ASP3        0.0000 
     32 OD1       233.6200  242.3900  238.1200 O.co2     3 ASP3        0.0000 
     33 OD1       233.7800  242.7000  241.4600 O.co2     3 ASP3        0.0000 
     34 CA        232.7100  237.2700  236.6200 C.3       4 GLY6        0.0000 
     35 CA        233.7500  236.1900  236.6700 C.3       4 GLY6        0.0000 
     36 CA        232.1600  243.1300  239.4700 C.3       4 GLY6        0.0000 
     37 CA        233.1600  244.1200  240.0100 C.3       4 GLY6        0.0000 
     38 DU        233.1700  235.5500  234.7400 H         5 CUB7        0.0000 
     39 DU        234.2100  234.4700  234.7900 H         5 CUB7        0.0000 
     40 DU        229.8400  240.5400  231.7400 H         5 CUB7        0.0000 
     41 DU        234.7900  235.1100  236.7200 H         5 CUB7        0.0000 
     42 DU        230.8400  241.5200  232.2700 H         5 CUB7        0.0000 
@<TRIPOS>BOND
@<TRIPOS>SUBSTRUCTURE
     1 SER1        1 GROUP   
     2 ALA2       22 GROUP   
     3 ASP3       28 GROUP   
     4 GLY6       34 GROUP   
     5 CUB7       38 GROUP   
@<TRIPOS>SET

