#    Name: 6c3o_6_ATP_CAVITY_N1_4
#    Modification time : Fri May 22 19:25:48 2020

@<TRIPOS>MOLECULE
6c3o_6_ATP_CAVITY_N1_4
  132     0     7     0     0
SMALL
NO_CHARGES


@<TRIPOS>ATOM
      1 OG        142.7000  122.8100  224.0800 O.3       1 SER1        0.0000 
      2 OG        141.3600  125.9300  229.2500 O.3       1 SER1        0.0000 
      3 OG        141.7800  126.2600  227.8500 O.3       1 SER1        0.0000 
      4 OG        141.3200  127.9900  229.7300 O.3       1 SER1        0.0000 
      5 OG        142.7700  127.2500  228.3800 O.3       1 SER1        0.0000 
      6 OG        141.1100  129.7500  226.8800 O.3       1 SER1        0.0000 
      7 OG        142.1500  128.6700  226.9300 O.3       1 SER1        0.0000 
      8 OG        143.1900  127.5900  226.9800 O.3       1 SER1        0.0000 
      9 OG        141.7300  132.1700  221.2300 O.3       1 SER1        0.0000 
     10 OG        142.7700  131.0900  221.2800 O.3       1 SER1        0.0000 
     11 OG        142.7300  129.3100  228.8700 O.3       1 SER1        0.0000 
     12 OG        144.8100  127.1600  228.9700 O.3       1 SER1        0.0000 
     13 OG        142.1100  130.7300  227.4200 O.3       1 SER1        0.0000 
     14 OG        143.1500  129.6500  227.4600 O.3       1 SER1        0.0000 
     15 OG        144.1900  128.5700  227.5100 O.3       1 SER1        0.0000 
     16 OG        142.7300  133.1600  221.7600 O.3       1 SER1        0.0000 
     17 OG        143.7700  132.0800  221.8100 O.3       1 SER1        0.0000 
     18 N         140.9900  123.5200  230.1700 N.am      2 ALA2        0.0000 
     19 N         142.0300  122.4500  230.2200 N.am      2 ALA2        0.0000 
     20 O         142.2400  124.5400  225.9600 O.2       2 ALA2        0.0000 
     21 N         144.0700  122.3500  230.8000 N.am      2 ALA2        0.0000 
     22 N         142.4000  124.8500  229.3000 N.am      2 ALA2        0.0000 
     23 N         143.4400  123.7700  229.3500 N.am      2 ALA2        0.0000 
     24 N         144.4800  122.6900  229.4000 N.am      2 ALA2        0.0000 
     25 O         142.1900  126.6000  226.4500 O.2       2 ALA2        0.0000 
     26 O         143.2300  125.5200  226.5000 O.2       2 ALA2        0.0000 
     27 O         143.6500  125.8600  225.1000 O.2       2 ALA2        0.0000 
     28 N         144.6900  124.7800  225.1500 N.am      2 ALA2        0.0000 
     29 O         143.0300  127.2800  223.6500 O.2       2 ALA2        0.0000 
     30 N         144.0700  126.2000  223.6900 N.am      2 ALA2        0.0000 
     31 N         145.1100  125.1200  223.7400 N.am      2 ALA2        0.0000 
     32 N         146.1500  124.0400  223.7900 N.am      2 ALA2        0.0000 
     33 N         145.5200  125.4500  222.3400 N.am      2 ALA2        0.0000 
     34 N         142.3600  126.9100  229.7800 N.am      2 ALA2        0.0000 
     35 N         145.4800  123.6700  229.9300 N.am      2 ALA2        0.0000 
     36 N         143.8100  126.1700  228.4300 N.am      2 ALA2        0.0000 
     37 N         144.8600  125.0900  228.4800 N.am      2 ALA2        0.0000 
     38 O         143.6100  127.9200  225.5800 O.2       2 ALA2        0.0000 
     39 N         144.6500  126.8400  225.6300 N.am      2 ALA2        0.0000 
     40 N         145.6900  125.7700  225.6800 N.am      2 ALA2        0.0000 
     41 N         144.0200  128.2600  224.1800 N.am      2 ALA2        0.0000 
     42 N         144.4400  128.6000  222.7800 N.am      2 ALA2        0.0000 
     43 N         146.4800  124.6600  230.4700 N.am      2 ALA2        0.0000 
     44 O         147.5200  123.5800  230.5100 O.2       2 ALA2        0.0000 
     45 N         145.8500  126.0800  229.0100 N.am      2 ALA2        0.0000 
     46 O         145.2300  127.4900  227.5600 O.2       2 ALA2        0.0000 
     47 N         143.5600  129.9900  226.0600 N.am      2 ALA2        0.0000 
     48 N         143.9800  130.3300  224.6600 N.am      2 ALA2        0.0000 
     49 N         145.0200  129.2500  224.7100 N.am      2 ALA2        0.0000 
     50 N         144.4000  130.6600  223.2600 N.am      2 ALA2        0.0000 
     51 N         144.8100  131.0000  221.8600 N.am      2 ALA2        0.0000 
     52 N         143.5200  132.0500  226.5500 N.am      2 ALA2        0.0000 
     53 N         143.9400  132.3900  225.1500 N.am      2 ALA2        0.0000 
     54 N         145.3900  131.6500  223.8000 N.am      2 ALA2        0.0000 
     55 N         144.5200  133.0400  227.0800 N.am      2 ALA2        0.0000 
     56 OD1       141.6900  130.3900  228.8200 O.co2     3 ASP3        0.0000 
     57 OD1       143.1000  131.7200  227.9500 O.co2     3 ASP3        0.0000 
     58 NZ        143.3100  133.8100  223.7000 N.4       4 LYS4        0.0000 
     59 NZ        144.3500  132.7300  223.7500 N.4       4 LYS4        0.0000 
     60 CZ        142.0700  124.2200  222.6300 C.ar      5 PHE5        0.0000 
     61 CZ        142.6500  124.8700  224.5600 C.ar      5 PHE5        0.0000 
     62 CZ        143.0700  125.2100  223.1600 C.ar      5 PHE5        0.0000 
     63 CZ        142.4500  126.6300  221.7100 C.ar      5 PHE5        0.0000 
     64 CZ        141.8200  128.0400  220.2600 C.ar      5 PHE5        0.0000 
     65 CZ        146.3600  122.2800  226.6500 C.ar      5 PHE5        0.0000 
     66 CZ        145.7300  123.7000  225.2000 C.ar      5 PHE5        0.0000 
     67 CZ        146.7700  122.6200  225.2400 C.ar      5 PHE5        0.0000 
     68 CZ        142.4000  128.6900  222.1900 C.ar      5 PHE5        0.0000 
     69 CZ        143.4400  127.6100  222.2400 C.ar      5 PHE5        0.0000 
     70 CZ        145.2700  125.4300  227.0800 C.ar      5 PHE5        0.0000 
     71 CZ        146.3100  124.3500  227.1300 C.ar      5 PHE5        0.0000 
     72 CZ        147.3500  123.2700  227.1800 C.ar      5 PHE5        0.0000 
     73 CZ        142.5700  129.0000  225.5300 C.ar      5 PHE5        0.0000 
     74 CZ        140.2800  132.9200  222.5800 C.ar      5 PHE5        0.0000 
     75 CZ        142.3600  130.7600  222.6800 C.ar      5 PHE5        0.0000 
     76 CZ        143.4000  129.6800  222.7300 C.ar      5 PHE5        0.0000 
     77 CZ        146.2700  126.4100  227.6100 C.ar      5 PHE5        0.0000 
     78 CZ        141.4800  132.1500  225.9600 C.ar      5 PHE5        0.0000 
     79 CZ        142.5200  131.0700  226.0100 C.ar      5 PHE5        0.0000 
     80 CZ        141.9000  132.4800  224.5600 C.ar      5 PHE5        0.0000 
     81 CZ        142.9400  131.4100  224.6100 C.ar      5 PHE5        0.0000 
     82 CZ        142.3100  132.8200  223.1600 C.ar      5 PHE5        0.0000 
     83 CZ        143.3600  131.7400  223.2100 C.ar      5 PHE5        0.0000 
     84 CA        141.8600  122.1300  226.8800 C.3       6 GLY6        0.0000 
     85 CA        142.4900  124.5600  221.2300 C.3       6 GLY6        0.0000 
     86 CA        143.5300  123.4800  221.2800 C.3       6 GLY6        0.0000 
     87 CA        141.8700  125.9800  219.7800 C.3       6 GLY6        0.0000 
     88 CA        142.9100  124.9000  219.8300 C.3       6 GLY6        0.0000 
     89 CA        141.4000  123.8600  228.7700 C.3       6 GLY6        0.0000 
     90 CA        142.4400  122.7800  228.8200 C.3       6 GLY6        0.0000 
     91 CA        141.8200  124.2000  227.3600 C.3       6 GLY6        0.0000 
     92 CA        142.8600  123.1200  227.4100 C.3       6 GLY6        0.0000 
     93 CA        143.4900  125.5500  221.7600 C.3       6 GLY6        0.0000 
     94 CA        144.5300  124.4700  221.8100 C.3       6 GLY6        0.0000 
     95 CA        142.8600  126.9600  220.3100 C.3       6 GLY6        0.0000 
     96 CA        142.8200  129.0300  220.7900 C.3       6 GLY6        0.0000 
     97 CA        143.8600  127.9500  220.8400 C.3       6 GLY6        0.0000 
     98 CA        146.5200  122.6000  229.9800 C.3       6 GLY6        0.0000 
     99 CA        146.9400  122.9300  228.5800 C.3       6 GLY6        0.0000 
    100 CA        143.8200  130.0100  221.3300 C.3       6 GLY6        0.0000 
    101 CA        144.8600  128.9400  221.3800 C.3       6 GLY6        0.0000 
    102 CA        146.8900  125.0000  229.0600 C.3       6 GLY6        0.0000 
    103 CA        147.9300  123.9200  229.1100 C.3       6 GLY6        0.0000 
    104 CA        140.0200  132.8900  227.3200 C.3       6 GLY6        0.0000 
    105 CA        141.0700  131.8100  227.3700 C.3       6 GLY6        0.0000 
    106 CA        144.6000  128.9100  226.1100 C.3       6 GLY6        0.0000 
    107 CA        140.8600  133.5600  224.5100 C.3       6 GLY6        0.0000 
    108 CA        141.2700  133.9000  223.1100 C.3       6 GLY6        0.0000 
    109 CA        141.6900  134.2400  221.7100 C.3       6 GLY6        0.0000 
    110 CA        141.0200  133.8800  227.8500 C.3       6 GLY6        0.0000 
    111 CA        142.0600  132.8000  227.9000 C.3       6 GLY6        0.0000 
    112 DU        143.1100  123.1500  222.6800 H         7 CUB7        0.0000 
    113 DU        143.4900  121.7000  228.8600 H         7 CUB7        0.0000 
    114 DU        143.9000  122.0400  227.4600 H         7 CUB7        0.0000 
    115 DU        143.2800  123.4600  226.0100 H         7 CUB7        0.0000 
    116 DU        144.3200  122.3800  226.0600 H         7 CUB7        0.0000 
    117 DU        143.6900  123.7900  224.6100 H         7 CUB7        0.0000 
    118 DU        144.7300  122.7100  224.6600 H         7 CUB7        0.0000 
    119 DU        145.7800  121.6400  224.7100 H         7 CUB7        0.0000 
    120 DU        144.1100  124.1300  223.2100 H         7 CUB7        0.0000 
    121 DU        145.1500  123.0500  223.2600 H         7 CUB7        0.0000 
    122 DU        145.5200  121.6100  229.4500 H         7 CUB7        0.0000 
    123 DU        142.8200  125.1800  227.9000 H         7 CUB7        0.0000 
    124 DU        143.8600  124.1100  227.9500 H         7 CUB7        0.0000 
    125 DU        144.9000  123.0300  228.0000 H         7 CUB7        0.0000 
    126 DU        145.9400  121.9500  228.0500 H         7 CUB7        0.0000 
    127 DU        144.2700  124.4400  226.5500 H         7 CUB7        0.0000 
    128 DU        145.3200  123.3600  226.6000 H         7 CUB7        0.0000 
    129 DU        145.9000  124.0100  228.5300 H         7 CUB7        0.0000 
    130 DU        144.2300  126.5100  227.0300 H         7 CUB7        0.0000 
    131 DU        142.4800  133.1300  226.5000 H         7 CUB7        0.0000 
    132 DU        142.9000  133.4700  225.1000 H         7 CUB7        0.0000 
@<TRIPOS>BOND
@<TRIPOS>SUBSTRUCTURE
     1 SER1        1 GROUP   
     2 ALA2       18 GROUP   
     3 ASP3       56 GROUP   
     4 LYS4       58 GROUP   
     5 PHE5       60 GROUP   
     6 GLY6       84 GROUP   
     7 CUB7      112 GROUP   
@<TRIPOS>SET

