#    Name: 6c3o_2_ATP
#    Modification time : Fri May 22 19:25:05 2020

@<TRIPOS>MOLECULE
6c3o_2_ATP
   31    33     1     0     1
SMALL
NO_CHARGES


@<TRIPOS>ATOM
      1 PG        229.5450  192.6730  214.3250 P.3       1 ATP501      0.0000 
      2 O1G       229.8010  193.5420  213.1200 O.co2     1 ATP501      0.0000 
      3 O2G       230.7780  192.0830  214.9650 O.co2     1 ATP501      0.0000 
      4 O3G       228.5400  193.2330  215.3000 O.co2     1 ATP501      0.0000 
      5 PB        228.2520  190.2510  214.6840 P.3       1 ATP501      0.0000 
      6 O1B       228.4570  188.9060  214.0340 O.co2     1 ATP501      0.0000 
      7 O2B       228.7380  190.5100  216.0860 O.co2     1 ATP501      0.0000 
      8 O3B       228.7950  191.3980  213.7060 O.3       1 ATP501      0.0000 
      9 PA        225.6530  189.6020  215.2980 P.3       1 ATP501      0.0000 
     10 O1A       225.9450  188.2340  214.7420 O.co2     1 ATP501      0.0000 
     11 O2A       225.6220  189.8640  216.7810 O.co2     1 ATP501      0.0000 
     12 O3A       226.6960  190.6020  214.6250 O.3       1 ATP501      0.0000 
     13 O5'       224.2980  190.1420  214.6420 O.3       1 ATP501      0.0000 
     14 C5'       223.1960  189.2690  214.4690 C.3       1 ATP501      0.0000 
     15 C4'       222.6060  189.5980  213.1110 C.3       1 ATP501      0.0000 
     16 O4'       222.6250  191.0120  212.9200 O.3       1 ATP501      0.0000 
     17 C3'       223.4570  188.9970  212.0130 C.3       1 ATP501      0.0000 
     18 O3'       222.7680  187.9000  211.4150 O.3       1 ATP501      0.0000 
     19 C2'       223.6570  190.0990  210.9980 C.3       1 ATP501      0.0000 
     20 O2'       223.0070  189.7500  209.7760 O.3       1 ATP501      0.0000 
     21 C1'       223.0080  191.3370  211.5860 C.3       1 ATP501      0.0000 
     22 N9        224.0110  192.4240  211.6050 N.pl3     1 ATP501      0.0000 
     23 C8        224.9620  192.5880  212.5380 C.2       1 ATP501      0.0000 
     24 N7        225.7290  193.6720  212.2690 N.2       1 ATP501      0.0000 
     25 C5        225.2640  194.2170  211.1360 C.ar      1 ATP501      0.0000 
     26 C6        225.6140  195.3780  210.2960 C.ar      1 ATP501      0.0000 
     27 N6        226.6420  196.1920  210.6260 N.pl3     1 ATP501      0.0000 
     28 N1        224.8790  195.5970  209.1910 N.ar      1 ATP501      0.0000 
     29 C2        223.8570  194.7940  208.8560 C.ar      1 ATP501      0.0000 
     30 N3        223.4830  193.7240  209.5730 N.ar      1 ATP501      0.0000 
     31 C4        224.1350  193.3890  210.7020 C.ar      1 ATP501      0.0000 
@<TRIPOS>BOND
     1    1    2 ar   
     2    1    3 ar   
     3    1    4 ar   
     4    1    8 1    
     5    5    6 ar   
     6    5    7 ar   
     7    5    8 1    
     8    5   12 1    
     9    9   10 ar   
    10    9   11 ar   
    11    9   12 1    
    12    9   13 1    
    13   13   14 1    
    14   14   15 1    
    15   15   16 1    
    16   15   17 1    
    17   16   21 1    
    18   17   18 1    
    19   17   19 1    
    20   19   20 1    
    21   19   21 1    
    22   21   22 1    
    23   22   23 1    
    24   22   31 1    
    25   23   24 2    
    26   24   25 1    
    27   25   26 ar   
    28   25   31 ar   
    29   26   27 1    
    30   26   28 ar   
    31   28   29 ar   
    32   29   30 ar   
    33   30   31 ar   
@<TRIPOS>SUBSTRUCTURE
     1 ATP501      1 GROUP   
@<TRIPOS>SET
ATOM$ORANGE STATIC     ATOMS   COLORGROUP SYSTEM 
20 14 14 15 15 17 17 19 19 21 21 23 23 25 25 26 26 29 \
29 31 31 

