#    Name: 6c3o_5_ADP_CAVITY_N1_12
#    Modification time : Fri May 22 19:25:27 2020

@<TRIPOS>MOLECULE
6c3o_5_ADP_CAVITY_N1_12
   75     0     5     0     0
SMALL
NO_CHARGES


@<TRIPOS>ATOM
      1 OG        153.7300  146.6600  239.5200 O.3       1 SER1        0.0000 
      2 OG        154.1500  147.0000  238.1200 O.3       1 SER1        0.0000 
      3 OG        153.5200  148.4200  236.6700 O.3       1 SER1        0.0000 
      4 OG        154.5600  147.3400  236.7200 O.3       1 SER1        0.0000 
      5 OG        155.7700  146.5700  240.1000 O.3       1 SER1        0.0000 
      6 OG        155.5600  148.3200  237.2500 O.3       1 SER1        0.0000 
      7 OG        154.9300  149.7400  235.8000 O.3       1 SER1        0.0000 
      8 OG        156.3900  149.0000  234.4500 O.3       1 SER1        0.0000 
      9 OG        156.5600  149.3100  237.7900 O.3       1 SER1        0.0000 
     10 OG        155.9300  150.7300  236.3400 O.3       1 SER1        0.0000 
     11 OG        156.3500  151.0600  234.9300 O.3       1 SER1        0.0000 
     12 OG        157.3400  152.0500  235.4700 O.3       1 SER1        0.0000 
     13 OG        160.4200  150.8800  236.1000 O.3       1 SER1        0.0000 
     14 OG        160.3800  152.9400  236.5800 O.3       1 SER1        0.0000 
     15 O         152.7800  143.6100  238.5000 O.2       2 ALA2        0.0000 
     16 O         153.8200  142.5300  238.5500 O.2       2 ALA2        0.0000 
     17 O         152.3200  145.3400  240.3900 O.2       2 ALA2        0.0000 
     18 N         152.7300  145.6800  238.9900 N.am      2 ALA2        0.0000 
     19 O         153.7700  144.6000  239.0400 O.2       2 ALA2        0.0000 
     20 N         153.1500  146.0200  237.5900 N.am      2 ALA2        0.0000 
     21 O         154.1900  144.9400  237.6400 O.2       2 ALA2        0.0000 
     22 N         155.2300  143.8600  237.6900 N.am      2 ALA2        0.0000 
     23 N         152.5200  147.4300  236.1400 N.am      2 ALA2        0.0000 
     24 O         153.5700  146.3500  236.1900 O.2       2 ALA2        0.0000 
     25 N         153.9800  146.6900  234.7800 N.am      2 ALA2        0.0000 
     26 O         154.4000  147.0300  233.3800 O.2       2 ALA2        0.0000 
     27 N         155.4400  145.9500  233.4300 N.am      2 ALA2        0.0000 
     28 N         154.9800  143.8300  242.4200 N.am      2 ALA2        0.0000 
     29 N         155.1900  145.9200  238.1700 N.am      2 ALA2        0.0000 
     30 N         156.2300  144.8400  238.2200 N.am      2 ALA2        0.0000 
     31 N         155.6000  146.2600  236.7700 N.am      2 ALA2        0.0000 
     32 N         154.9800  147.6700  235.3200 N.am      2 ALA2        0.0000 
     33 N         156.0200  146.6000  235.3700 N.am      2 ALA2        0.0000 
     34 N         156.4400  146.9300  233.9700 N.am      2 ALA2        0.0000 
     35 N         155.9700  144.8200  242.9600 N.am      2 ALA2        0.0000 
     36 O         157.5500  150.2900  238.3200 O.2       2 ALA2        0.0000 
     37 O         158.9700  151.6200  237.4500 O.2       2 ALA2        0.0000 
     38 OD1       155.3500  146.2300  241.5100 O.co2     3 ASP3        0.0000 
     39 OD1       156.3900  145.1500  241.5600 O.co2     3 ASP3        0.0000 
     40 OD1       156.1800  146.9100  238.7000 O.co2     3 ASP3        0.0000 
     41 OD1       157.2200  145.8300  238.7500 O.co2     3 ASP3        0.0000 
     42 OD1       155.9800  148.6600  235.8500 O.co2     3 ASP3        0.0000 
     43 OD1       156.7600  147.5600  240.6400 O.co2     3 ASP3        0.0000 
     44 OD1       157.1800  147.8900  239.2400 O.co2     3 ASP3        0.0000 
     45 OD1       156.9700  149.6500  236.3900 O.co2     3 ASP3        0.0000 
     46 OD1       157.9700  150.6300  236.9200 O.co2     3 ASP3        0.0000 
     47 OD1       158.3900  150.9700  235.5200 O.co2     3 ASP3        0.0000 
     48 CA        152.4000  141.2100  239.4200 C.3       4 GLY6        0.0000 
     49 CA        152.3600  143.2800  239.9100 C.3       4 GLY6        0.0000 
     50 CA        153.4000  142.2000  239.9500 C.3       4 GLY6        0.0000 
     51 CA        152.9400  143.9200  241.8400 C.3       4 GLY6        0.0000 
     52 CA        153.3600  144.2600  240.4400 C.3       4 GLY6        0.0000 
     53 CA        154.4000  143.1800  240.4900 C.3       4 GLY6        0.0000 
     54 CA        154.8100  143.5200  239.0900 C.3       4 GLY6        0.0000 
     55 CA        153.9400  144.9100  242.3700 C.3       4 GLY6        0.0000 
     56 CA        153.3100  146.3300  240.9200 C.3       4 GLY6        0.0000 
     57 CA        156.4300  143.0900  241.0700 C.3       4 GLY6        0.0000 
     58 CA        155.8100  144.5100  239.6200 C.3       4 GLY6        0.0000 
     59 CA        156.8500  143.4300  239.6700 C.3       4 GLY6        0.0000 
     60 CA        157.2700  143.7600  238.2700 C.3       4 GLY6        0.0000 
     61 CA        153.9400  148.7500  235.2700 C.3       4 GLY6        0.0000 
     62 CA        155.3900  148.0100  233.9200 C.3       4 GLY6        0.0000 
     63 CA        154.3100  147.3100  241.4600 C.3       4 GLY6        0.0000 
     64 CA        157.4300  144.0700  241.6000 C.3       4 GLY6        0.0000 
     65 CA        156.8100  145.4900  240.1500 C.3       4 GLY6        0.0000 
     66 CA        157.8500  144.4100  240.2000 C.3       4 GLY6        0.0000 
     67 CA        158.2600  144.7500  238.8000 C.3       4 GLY6        0.0000 
     68 CA        158.2200  146.8100  239.2900 C.3       4 GLY6        0.0000 
     69 CA        156.9300  151.7100  236.8700 C.3       4 GLY6        0.0000 
     70 CA        157.9300  152.7000  237.4000 C.3       4 GLY6        0.0000 
     71 CA        160.0100  150.5400  237.5000 C.3       4 GLY6        0.0000 
     72 DU        154.3500  145.2500  240.9700 H         5 CUB7        0.0000 
     73 DU        155.3900  144.1700  241.0200 H         5 CUB7        0.0000 
     74 DU        154.7700  145.5800  239.5700 H         5 CUB7        0.0000 
     75 DU        159.3800  151.9500  236.0500 H         5 CUB7        0.0000 
@<TRIPOS>BOND
@<TRIPOS>SUBSTRUCTURE
     1 SER1        1 GROUP   
     2 ALA2       15 GROUP   
     3 ASP3       38 GROUP   
     4 GLY6       48 GROUP   
     5 CUB7       72 GROUP   
@<TRIPOS>SET

