#    Name: 6c3o_2_ATP_CAVITY_N1_6
#    Modification time : Fri May 22 19:25:07 2020

@<TRIPOS>MOLECULE
6c3o_2_ATP_CAVITY_N1_6
   10     0     2     0     0
SMALL
NO_CHARGES


@<TRIPOS>ATOM
      1 N         219.6300  189.8600  205.2700 N.am      1 ALA2        0.0000 
      2 N         220.2100  190.5100  207.2000 N.am      1 ALA2        0.0000 
      3 N         219.5800  191.9300  205.7500 N.am      1 ALA2        0.0000 
      4 N         219.9600  194.3300  204.8300 N.am      1 ALA2        0.0000 
      5 CA        220.6200  190.8500  205.8000 C.3       2 GLY6        0.0000 
      6 CA        221.0400  191.1900  204.4000 C.3       2 GLY6        0.0000 
      7 CA        220.5800  192.9100  206.2800 C.3       2 GLY6        0.0000 
      8 CA        221.6200  191.8300  206.3300 C.3       2 GLY6        0.0000 
      9 CA        219.9100  196.4000  205.3200 C.3       2 GLY6        0.0000 
     10 CA        221.3300  197.7200  204.4500 C.3       2 GLY6        0.0000 
@<TRIPOS>BOND
@<TRIPOS>SUBSTRUCTURE
     1 ALA2        1 GROUP   
     2 GLY6        5 GROUP   
@<TRIPOS>SET

