#    Name: 6c3o_11_ADP
#    Modification time : Fri May 22 19:27:28 2020

@<TRIPOS>MOLECULE
6c3o_11_ADP
   27    29     1     0     1
SMALL
NO_CHARGES


@<TRIPOS>ATOM
      1 PB        149.5230  230.9080  238.1050 P.3       1 ADP2001     0.0000 
      2 O1B       148.1790  230.2280  238.1310 O.co2     1 ADP2001     0.0000 
      3 O2B       149.4630  232.4120  238.1880 O.co2     1 ADP2001     0.0000 
      4 O3B       150.5630  230.2790  238.9970 O.co2     1 ADP2001     0.0000 
      5 PA        150.3440  229.1180  236.1540 P.3       1 ADP2001     0.0000 
      6 O1A       149.8390  228.9830  234.7430 O.co2     1 ADP2001     0.0000 
      7 O2A       149.8070  228.2030  237.2250 O.co2     1 ADP2001     0.0000 
      8 O3A       150.0520  230.6260  236.6170 O.3       1 ADP2001     0.0000 
      9 O5'       151.9490  229.0340  236.1040 O.3       1 ADP2001     0.0000 
     10 C5'       152.7720  230.0190  236.7200 C.3       1 ADP2001     0.0000 
     11 C4'       154.1850  229.9000  236.1580 C.3       1 ADP2001     0.0000 
     12 O4'       154.1960  228.9990  235.0540 O.3       1 ADP2001     0.0000 
     13 C3'       154.7010  231.2360  235.6540 C.3       1 ADP2001     0.0000 
     14 O3'       155.8590  231.6160  236.3960 O.3       1 ADP2001     0.0000 
     15 C2'       155.0790  231.0280  234.2020 C.3       1 ADP2001     0.0000 
     16 O2'       156.4330  231.4210  233.9820 O.3       1 ADP2001     0.0000 
     17 C1'       154.9320  229.5430  233.9590 C.3       1 ADP2001     0.0000 
     18 N9        154.1750  229.3070  232.7120 N.pl3     1 ADP2001     0.0000 
     19 C8        152.8380  229.3300  232.5940 C.2       1 ADP2001     0.0000 
     20 N7        152.4530  229.0630  231.3230 N.2       1 ADP2001     0.0000 
     21 C5        153.5680  228.8690  230.6030 C.ar      1 ADP2001     0.0000 
     22 C6        153.8810  228.5530  229.1960 C.ar      1 ADP2001     0.0000 
     23 N6        152.8960  228.3900  228.2820 N.pl3     1 ADP2001     0.0000 
     24 N1        155.1790  228.4350  228.8540 N.ar      1 ADP2001     0.0000 
     25 C2        156.1630  228.5960  229.7550 C.ar      1 ADP2001     0.0000 
     26 N3        155.9520  228.8820  231.0480 N.ar      1 ADP2001     0.0000 
     27 C4        154.6980  229.0330  231.5210 C.ar      1 ADP2001     0.0000 
@<TRIPOS>BOND
     1    1    2 ar   
     2    1    3 ar   
     3    1    4 ar   
     4    1    8 1    
     5    5    6 ar   
     6    5    7 ar   
     7    5    8 1    
     8    5    9 1    
     9    9   10 1    
    10   10   11 1    
    11   11   12 1    
    12   11   13 1    
    13   12   17 1    
    14   13   14 1    
    15   13   15 1    
    16   15   16 1    
    17   15   17 1    
    18   17   18 1    
    19   18   19 1    
    20   18   27 1    
    21   19   20 2    
    22   20   21 1    
    23   21   22 ar   
    24   21   27 ar   
    25   22   23 1    
    26   22   24 ar   
    27   24   25 ar   
    28   25   26 ar   
    29   26   27 ar   
@<TRIPOS>SUBSTRUCTURE
     1 ADP2001     1 GROUP   
@<TRIPOS>SET
ATOM$ORANGE STATIC     ATOMS   COLORGROUP SYSTEM 
20 10 10 11 11 13 13 15 15 17 17 19 19 21 21 22 22 25 \
25 27 27 

