#    Name: 6c3o_7_ADP
#    Modification time : Fri May 22 19:26:06 2020

@<TRIPOS>MOLECULE
6c3o_7_ADP
   27    29     1     0     1
SMALL
NO_CHARGES


@<TRIPOS>ATOM
      1 PB        240.9920  159.3120  238.0410 P.3       1 ADP2001     0.0000 
      2 O1B       242.3410  159.9850  238.0520 O.co2     1 ADP2001     0.0000 
      3 O2B       241.0450  157.8090  238.1340 O.co2     1 ADP2001     0.0000 
      4 O3B       239.9640  159.9530  238.9360 O.co2     1 ADP2001     0.0000 
      5 PA        240.1690  161.0940  236.0830 P.3       1 ADP2001     0.0000 
      6 O1A       240.6640  161.2160  234.6680 O.co2     1 ADP2001     0.0000 
      7 O2A       240.7190  162.0120  237.1440 O.co2     1 ADP2001     0.0000 
      8 O3A       240.4550  159.5880  236.5550 O.3       1 ADP2001     0.0000 
      9 O5'       238.5640  161.1860  236.0440 O.3       1 ADP2001     0.0000 
     10 C5'       237.7400  160.2110  236.6720 C.3       1 ADP2001     0.0000 
     11 C4'       236.3240  160.3340  236.1200 C.3       1 ADP2001     0.0000 
     12 O4'       236.3100  161.2270  235.0090 O.3       1 ADP2001     0.0000 
     13 C3'       235.7960  158.9970  235.6290 C.3       1 ADP2001     0.0000 
     14 O3'       234.6410  158.6290  236.3820 O.3       1 ADP2001     0.0000 
     15 C2'       235.4090  159.1970  234.1790 C.3       1 ADP2001     0.0000 
     16 O2'       234.0510  158.8100  233.9710 O.3       1 ADP2001     0.0000 
     17 C1'       235.5630  160.6810  233.9240 C.3       1 ADP2001     0.0000 
     18 N9        236.3130  160.9020  232.6690 N.pl3     1 ADP2001     0.0000 
     19 C8        237.6480  160.8700  232.5420 C.2       1 ADP2001     0.0000 
     20 N7        238.0270  161.1260  231.2670 N.2       1 ADP2001     0.0000 
     21 C5        236.9080  161.3230  230.5540 C.ar      1 ADP2001     0.0000 
     22 C6        236.5860  161.6310  229.1460 C.ar      1 ADP2001     0.0000 
     23 N6        237.5660  161.7810  228.2250 N.pl3     1 ADP2001     0.0000 
     24 N1        235.2870  161.7540  228.8130 N.ar      1 ADP2001     0.0000 
     25 C2        234.3080  161.6040  229.7210 C.ar      1 ADP2001     0.0000 
     26 N3        234.5260  161.3270  231.0150 N.ar      1 ADP2001     0.0000 
     27 C4        235.7820  161.1710  231.4810 C.ar      1 ADP2001     0.0000 
@<TRIPOS>BOND
     1    1    2 ar   
     2    1    3 ar   
     3    1    4 ar   
     4    1    8 1    
     5    5    6 ar   
     6    5    7 ar   
     7    5    8 1    
     8    5    9 1    
     9    9   10 1    
    10   10   11 1    
    11   11   12 1    
    12   11   13 1    
    13   12   17 1    
    14   13   14 1    
    15   13   15 1    
    16   15   16 1    
    17   15   17 1    
    18   17   18 1    
    19   18   19 1    
    20   18   27 1    
    21   19   20 2    
    22   20   21 1    
    23   21   22 ar   
    24   21   27 ar   
    25   22   23 1    
    26   22   24 ar   
    27   24   25 ar   
    28   25   26 ar   
    29   26   27 ar   
@<TRIPOS>SUBSTRUCTURE
     1 ADP2001     1 GROUP   
@<TRIPOS>SET
ATOM$ORANGE STATIC     ATOMS   COLORGROUP SYSTEM 
20 10 10 11 11 13 13 15 15 17 17 19 19 21 21 22 22 25 \
25 27 27 

