#    Name: 6c3o_9_ADP_CAVITY_N1_6
#    Modification time : Fri May 22 19:26:49 2020

@<TRIPOS>MOLECULE
6c3o_9_ADP_CAVITY_N1_6
  107     0     6     0     0
SMALL
NO_CHARGES


@<TRIPOS>ATOM
      1 OG        230.4600  239.1200  233.1900 O.3       1 SER1        0.0000 
      2 OG        233.5800  235.8800  233.3400 O.3       1 SER1        0.0000 
      3 OG        230.8800  239.4600  231.7900 O.3       1 SER1        0.0000 
      4 OG        232.0800  238.6900  235.1700 O.3       1 SER1        0.0000 
      5 OG        233.1200  237.6100  235.2200 O.3       1 SER1        0.0000 
      6 OG        234.1700  236.5300  235.2700 O.3       1 SER1        0.0000 
      7 OG        231.4600  240.1100  233.7200 O.3       1 SER1        0.0000 
      8 OG        234.5800  236.8700  233.8700 O.3       1 SER1        0.0000 
      9 OG        229.8000  242.6000  232.2200 O.3       1 SER1        0.0000 
     10 OG        231.8800  240.4400  232.3200 O.3       1 SER1        0.0000 
     11 OG        232.2900  240.7800  230.9200 O.3       1 SER1        0.0000 
     12 OG        232.7100  241.1200  229.5200 O.3       1 SER1        0.0000 
     13 OG        234.1200  238.6000  235.7500 O.3       1 SER1        0.0000 
     14 OG        233.5000  240.0100  234.3000 O.3       1 SER1        0.0000 
     15 OG        229.7500  244.6700  232.7000 O.3       1 SER1        0.0000 
     16 OG        230.7900  243.5900  232.7500 O.3       1 SER1        0.0000 
     17 OG        232.8700  241.4300  232.8500 O.3       1 SER1        0.0000 
     18 OG        233.2900  241.7700  231.4500 O.3       1 SER1        0.0000 
     19 OG        233.6600  240.3200  237.6400 O.3       1 SER1        0.0000 
     20 OG        236.7800  237.0900  237.7900 O.3       1 SER1        0.0000 
     21 OG        234.0800  240.6600  236.2400 O.3       1 SER1        0.0000 
     22 OG        235.1200  239.5800  236.2900 O.3       1 SER1        0.0000 
     23 OG        236.1600  238.5000  236.3400 O.3       1 SER1        0.0000 
     24 OG        233.2000  242.0500  239.5200 O.3       1 SER1        0.0000 
     25 OG        235.0700  241.6500  236.7700 O.3       1 SER1        0.0000 
     26 OG        236.1200  240.5700  236.8200 O.3       1 SER1        0.0000 
     27 OG        237.1600  239.4900  236.8700 O.3       1 SER1        0.0000 
     28 OG        234.2000  243.0400  240.0600 O.3       1 SER1        0.0000 
     29 OG        234.6100  243.3700  238.6600 O.3       1 SER1        0.0000 
     30 OG        235.6600  242.3000  238.7100 O.3       1 SER1        0.0000 
     31 O         235.2500  233.3900  234.8400 O.2       2 ALA2        0.0000 
     32 O         234.6300  234.8000  233.3900 O.2       2 ALA2        0.0000 
     33 O         235.2100  235.4500  235.3200 O.2       2 ALA2        0.0000 
     34 O         236.2500  234.3700  235.3700 O.2       2 ALA2        0.0000 
     35 O         235.6200  235.7900  233.9200 O.2       2 ALA2        0.0000 
     36 O         233.7100  238.2600  237.1500 O.2       2 ALA2        0.0000 
     37 O         234.7500  237.1800  237.2000 O.2       2 ALA2        0.0000 
     38 O         236.2000  236.4400  235.8500 O.2       2 ALA2        0.0000 
     39 O         236.6200  236.7700  234.4500 O.2       2 ALA2        0.0000 
     40 N         231.7900  244.5700  233.2900 N.am      2 ALA2        0.0000 
     41 N         232.8300  243.4900  233.3400 N.am      2 ALA2        0.0000 
     42 N         232.9900  243.8100  236.6700 N.am      2 ALA2        0.0000 
     43 N         234.0300  242.7300  236.7200 N.am      2 ALA2        0.0000 
     44 N         234.4500  243.0600  235.3200 N.am      2 ALA2        0.0000 
     45 O         235.4900  241.9800  235.3700 O.2       2 ALA2        0.0000 
     46 O         236.5300  240.9000  235.4200 O.2       2 ALA2        0.0000 
     47 N         234.8700  243.4000  233.9200 N.am      2 ALA2        0.0000 
     48 O         235.9100  242.3200  233.9700 O.2       2 ALA2        0.0000 
     49 N         233.5700  244.4500  238.6100 N.am      2 ALA2        0.0000 
     50 N         235.0300  243.7100  237.2600 N.am      2 ALA2        0.0000 
     51 N         236.0700  242.6300  237.3000 N.am      2 ALA2        0.0000 
     52 N         237.1100  241.5500  237.3500 N.am      2 ALA2        0.0000 
     53 N         238.1500  240.4700  237.4000 N.am      2 ALA2        0.0000 
     54 N         236.4900  242.9700  235.9000 N.am      2 ALA2        0.0000 
     55 N         233.7400  244.7700  241.9400 N.am      2 ALA2        0.0000 
     56 N         236.6500  243.2800  239.2400 N.am      2 ALA2        0.0000 
     57 OD1       230.0500  242.6300  227.4800 O.co2     3 ASP3        0.0000 
     58 OD1       231.0400  239.7700  235.1200 O.co2     3 ASP3        0.0000 
     59 OD1       230.4200  241.1900  233.6700 O.co2     3 ASP3        0.0000 
     60 OD1       230.2100  242.9400  230.8200 O.co2     3 ASP3        0.0000 
     61 OD1       231.2500  241.8600  230.8700 O.co2     3 ASP3        0.0000 
     62 OD1       231.6700  242.2000  229.4700 O.co2     3 ASP3        0.0000 
     63 OD1       233.0800  239.6800  235.7000 O.co2     3 ASP3        0.0000 
     64 OD1       232.4600  241.0900  234.2500 O.co2     3 ASP3        0.0000 
     65 OD1       231.8300  242.5100  232.8000 O.co2     3 ASP3        0.0000 
     66 OD1       231.2100  243.9200  231.3500 O.co2     3 ASP3        0.0000 
     67 OD1       237.2000  237.4200  236.3900 O.co2     3 ASP3        0.0000 
     68 OD1       232.4100  243.1600  234.7400 O.co2     3 ASP3        0.0000 
     69 OD1       233.4500  242.0800  234.7900 O.co2     3 ASP3        0.0000 
     70 OD1       233.6200  242.3900  238.1200 O.co2     3 ASP3        0.0000 
     71 OD1       232.7400  243.7800  241.4100 O.co2     3 ASP3        0.0000 
     72 OD1       233.7800  242.7000  241.4600 O.co2     3 ASP3        0.0000 
     73 NZ        236.8300  235.0200  237.3000 N.4       4 LYS4        0.0000 
     74 NZ        237.2400  235.3600  235.9000 N.4       4 LYS4        0.0000 
     75 NZ        231.3700  244.2400  234.6900 N.4       4 LYS4        0.0000 
     76 CA        232.7100  237.2700  236.6200 C.3       5 GLY6        0.0000 
     77 CA        233.7500  236.1900  236.6700 C.3       5 GLY6        0.0000 
     78 CA        233.7500  240.0400  229.5700 C.3       5 GLY6        0.0000 
     79 CA        235.3700  235.7600  238.6600 C.3       5 GLY6        0.0000 
     80 CA        235.1600  237.5200  235.8000 C.3       5 GLY6        0.0000 
     81 CA        235.5800  237.8500  234.4000 C.3       5 GLY6        0.0000 
     82 CA        236.3700  236.7500  239.1900 C.3       5 GLY6        0.0000 
     83 CA        234.4900  241.0000  234.8400 C.3       5 GLY6        0.0000 
     84 CA        235.5400  239.9200  234.8900 C.3       5 GLY6        0.0000 
     85 CA        236.5800  238.8400  234.9400 C.3       5 GLY6        0.0000 
     86 CA        233.8700  242.4100  233.3900 C.3       5 GLY6        0.0000 
     87 CA        234.9100  241.3400  233.4400 C.3       5 GLY6        0.0000 
     88 CA        232.1600  243.1300  239.4700 C.3       5 GLY6        0.0000 
     89 CA        237.7800  238.0700  238.3200 C.3       5 GLY6        0.0000 
     90 CA        237.5700  239.8300  235.4700 C.3       5 GLY6        0.0000 
     91 CA        232.1200  245.2000  239.9600 C.3       5 GLY6        0.0000 
     92 CA        233.1600  244.1200  240.0100 C.3       5 GLY6        0.0000 
     93 CA        232.5300  245.5300  238.5600 C.3       5 GLY6        0.0000 
     94 CA        237.5300  241.8900  235.9500 C.3       5 GLY6        0.0000 
     95 CA        234.7800  243.6900  241.9900 C.3       5 GLY6        0.0000 
     96 CA        236.2400  242.9400  240.6400 C.3       5 GLY6        0.0000 
     97 CA        234.5700  245.4400  239.1400 C.3       5 GLY6        0.0000 
     98 DU        233.1700  235.5500  234.7400 H         6 CUB7        0.0000 
     99 DU        234.2100  234.4700  234.7900 H         6 CUB7        0.0000 
    100 DU        229.8400  240.5400  231.7400 H         6 CUB7        0.0000 
    101 DU        234.7900  235.1100  236.7200 H         6 CUB7        0.0000 
    102 DU        230.8400  241.5200  232.2700 H         6 CUB7        0.0000 
    103 DU        235.7900  236.1000  237.2500 H         6 CUB7        0.0000 
    104 DU        232.2500  242.8500  231.4000 H         6 CUB7        0.0000 
    105 DU        234.1500  245.1000  240.5400 H         6 CUB7        0.0000 
    106 DU        235.2000  244.0200  240.5900 H         6 CUB7        0.0000 
    107 DU        235.6100  244.3600  239.1900 H         6 CUB7        0.0000 
@<TRIPOS>BOND
@<TRIPOS>SUBSTRUCTURE
     1 SER1        1 GROUP   
     2 ALA2       31 GROUP   
     3 ASP3       57 GROUP   
     4 LYS4       73 GROUP   
     5 GLY6       76 GROUP   
     6 CUB7       98 GROUP   
@<TRIPOS>SET

