#    Name: 6c3o_8_ATP
#    Modification time : Fri May 22 19:26:27 2020

@<TRIPOS>MOLECULE
6c3o_8_ATP
   31    33     1     0     1
SMALL
NO_CHARGES


@<TRIPOS>ATOM
      1 PG        258.9420  145.9130  233.1410 P.3       1 ATP2004     0.0000 
      2 O1G       258.2500  147.1520  232.6360 O.co2     1 ATP2004     0.0000 
      3 O2G       260.2220  146.1750  233.8890 O.co2     1 ATP2004     0.0000 
      4 O3G       258.0320  144.8850  233.7590 O.co2     1 ATP2004     0.0000 
      5 PB        260.3170  143.8730  231.7840 P.3       1 ATP2004     0.0000 
      6 O1B       259.3970  142.7060  231.5840 O.co2     1 ATP2004     0.0000 
      7 O2B       261.3000  143.8760  232.9250 O.co2     1 ATP2004     0.0000 
      8 O3B       259.4340  145.2060  231.7970 O.3       1 ATP2004     0.0000 
      9 PA        261.1020  143.0750  229.2290 P.3       1 ATP2004     0.0000 
     10 O1A       259.8710  143.3370  228.4020 O.co2     1 ATP2004     0.0000 
     11 O2A       261.3590  141.7100  229.8060 O.co2     1 ATP2004     0.0000 
     12 O3A       261.1220  144.1350  230.4260 O.3       1 ATP2004     0.0000 
     13 O5'       262.3910  143.5840  228.4210 O.3       1 ATP2004     0.0000 
     14 C5'       263.6910  143.0670  228.6790 C.3       1 ATP2004     0.0000 
     15 C4'       264.6530  143.7540  227.7240 C.3       1 ATP2004     0.0000 
     16 O4'       264.3330  143.3560  226.3950 O.3       1 ATP2004     0.0000 
     17 C3'       264.5040  145.2600  227.8020 C.3       1 ATP2004     0.0000 
     18 O3'       265.7690  145.8440  228.1080 O.3       1 ATP2004     0.0000 
     19 C2'       264.0630  145.7180  226.4300 C.3       1 ATP2004     0.0000 
     20 O2'       264.9760  146.6930  225.9270 O.3       1 ATP2004     0.0000 
     21 C1'       264.0920  144.4830  225.5580 C.3       1 ATP2004     0.0000 
     22 N9        262.7610  144.3190  224.9480 N.pl3     1 ATP2004     0.0000 
     23 C8        261.6200  144.1250  225.6250 C.2       1 ATP2004     0.0000 
     24 N7        260.5680  144.0160  224.7820 N.2       1 ATP2004     0.0000 
     25 C5        261.0410  144.1420  223.5330 C.ar      1 ATP2004     0.0000 
     26 C6        260.4640  144.1230  222.1750 C.ar      1 ATP2004     0.0000 
     27 N6        259.1380  143.9430  221.9730 N.pl3     1 ATP2004     0.0000 
     28 N1        261.3090  144.2960  221.1420 N.ar      1 ATP2004     0.0000 
     29 C2        262.6280  144.4760  221.3290 C.ar      1 ATP2004     0.0000 
     30 N3        263.2180  144.5030  222.5310 N.ar      1 ATP2004     0.0000 
     31 C4        262.4880  144.3460  223.6510 C.ar      1 ATP2004     0.0000 
@<TRIPOS>BOND
     1    1    2 ar   
     2    1    3 ar   
     3    1    4 ar   
     4    1    8 1    
     5    5    6 ar   
     6    5    7 ar   
     7    5    8 1    
     8    5   12 1    
     9    9   10 ar   
    10    9   11 ar   
    11    9   12 1    
    12    9   13 1    
    13   13   14 1    
    14   14   15 1    
    15   15   16 1    
    16   15   17 1    
    17   16   21 1    
    18   17   18 1    
    19   17   19 1    
    20   19   20 1    
    21   19   21 1    
    22   21   22 1    
    23   22   23 1    
    24   22   31 1    
    25   23   24 2    
    26   24   25 1    
    27   25   26 ar   
    28   25   31 ar   
    29   26   27 1    
    30   26   28 ar   
    31   28   29 ar   
    32   29   30 ar   
    33   30   31 ar   
@<TRIPOS>SUBSTRUCTURE
     1 ATP2004     1 GROUP   
@<TRIPOS>SET
ATOM$ORANGE STATIC     ATOMS   COLORGROUP SYSTEM 
20 14 14 15 15 17 17 19 19 21 21 23 23 25 25 26 26 29 \
29 31 31 

