#    Name: 6c3o_11_ADP_CAVITY_N1_4
#    Modification time : Fri May 22 19:27:30 2020

@<TRIPOS>MOLECULE
6c3o_11_ADP_CAVITY_N1_4
   25     0     6     0     0
SMALL
NO_CHARGES


@<TRIPOS>ATOM
      1 OG        146.7900  233.7700  239.1500 O.3       1 SER1        0.0000 
      2 OG        147.8300  232.6900  239.2000 O.3       1 SER1        0.0000 
      3 OG        147.2100  234.1100  237.7500 O.3       1 SER1        0.0000 
      4 OG        147.6200  234.4500  236.3500 O.3       1 SER1        0.0000 
      5 OG        148.6200  235.4300  236.8800 O.3       1 SER1        0.0000 
      6 OG        150.7000  233.2800  236.9800 O.3       1 SER1        0.0000 
      7 OG        151.1200  233.6100  235.5800 O.3       1 SER1        0.0000 
      8 OG        151.7000  234.2600  237.5100 O.3       1 SER1        0.0000 
      9 OG        153.5700  233.8600  234.7600 O.3       1 SER1        0.0000 
     10 N         146.2100  233.1300  237.2100 N.am      2 ALA2        0.0000 
     11 N         146.6300  233.4600  235.8100 N.am      2 ALA2        0.0000 
     12 O         154.5700  234.8400  235.2900 O.2       2 ALA2        0.0000 
     13 OD1       148.2500  233.0300  237.8000 O.co2     3 ASP3        0.0000 
     14 OD1       149.2900  231.9500  237.8500 O.co2     3 ASP3        0.0000 
     15 OD1       150.3300  230.8700  237.9000 O.co2     3 ASP3        0.0000 
     16 OD1       148.6700  233.3700  236.4000 O.co2     3 ASP3        0.0000 
     17 OD1       149.7100  232.2900  236.4500 O.co2     3 ASP3        0.0000 
     18 OD1       149.0800  233.7100  235.0000 O.co2     3 ASP3        0.0000 
     19 OD1       150.1200  232.6300  235.0500 O.co2     3 ASP3        0.0000 
     20 NZ        144.8000  231.8000  238.0800 N.4       4 LYS4        0.0000 
     21 CA        150.0800  234.6900  235.5300 C.3       5 GLY6        0.0000 
     22 CA        153.1600  233.5200  236.1600 C.3       5 GLY6        0.0000 
     23 CA        154.1500  234.5000  236.7000 C.3       5 GLY6        0.0000 
     24 DU        145.8000  232.7900  238.6200 H         6 CUB7        0.0000 
     25 DU        152.1600  232.5300  235.6300 H         6 CUB7        0.0000 
@<TRIPOS>BOND
@<TRIPOS>SUBSTRUCTURE
     1 SER1        1 GROUP   
     2 ALA2       10 GROUP   
     3 ASP3       13 GROUP   
     4 LYS4       20 GROUP   
     5 GLY6       21 GROUP   
     6 CUB7       24 GROUP   
@<TRIPOS>SET

