#    Name: 6c3o_10_ATP
#    Modification time : Fri May 22 19:27:09 2020

@<TRIPOS>MOLECULE
6c3o_10_ATP
   31    33     1     0     1
SMALL
NO_CHARGES


@<TRIPOS>ATOM
      1 PG        244.5270  258.3200  233.6080 P.3       1 ATP2004     0.0000 
      2 O1G       243.2850  257.6340  233.1030 O.co2     1 ATP2004     0.0000 
      3 O2G       244.2680  259.5920  234.3710 O.co2     1 ATP2004     0.0000 
      4 O3G       245.5580  257.4030  234.2120 O.co2     1 ATP2004     0.0000 
      5 PB        246.5600  259.7090  232.2560 P.3       1 ATP2004     0.0000 
      6 O1B       247.7260  258.7910  232.0400 O.co2     1 ATP2004     0.0000 
      7 O2B       246.5630  260.6800  233.4070 O.co2     1 ATP2004     0.0000 
      8 O3B       245.2270  258.8250  232.2660 O.3       1 ATP2004     0.0000 
      9 PA        247.3450  260.5200  229.7050 P.3       1 ATP2004     0.0000 
     10 O1A       247.0780  259.2990  228.8670 O.co2     1 ATP2004     0.0000 
     11 O2A       248.7120  260.7700  230.2770 O.co2     1 ATP2004     0.0000 
     12 O3A       246.2920  260.5270  230.9070 O.3       1 ATP2004     0.0000 
     13 O5'       246.8320  261.8180  228.9140 O.3       1 ATP2004     0.0000 
     14 C5'       247.3510  263.1150  229.1820 C.3       1 ATP2004     0.0000 
     15 C4'       246.6600  264.0870  228.2420 C.3       1 ATP2004     0.0000 
     16 O4'       247.0490  263.7810  226.9070 O.3       1 ATP2004     0.0000 
     17 C3'       245.1540  263.9370  228.3250 C.3       1 ATP2004     0.0000 
     18 O3'       244.5720  265.1990  228.6480 O.3       1 ATP2004     0.0000 
     19 C2'       244.6880  263.5110  226.9510 C.3       1 ATP2004     0.0000 
     20 O2'       243.7120  264.4300  226.4630 O.3       1 ATP2004     0.0000 
     21 C1'       245.9190  263.5490  226.0720 C.3       1 ATP2004     0.0000 
     22 N9        246.0800  262.2230  225.4480 N.pl3     1 ATP2004     0.0000 
     23 C8        246.2760  261.0770  226.1130 C.2       1 ATP2004     0.0000 
     24 N7        246.3810  260.0330  225.2580 N.2       1 ATP2004     0.0000 
     25 C5        246.2470  260.5200  224.0150 C.ar      1 ATP2004     0.0000 
     26 C6        246.2600  259.9570  222.6500 C.ar      1 ATP2004     0.0000 
     27 N6        246.4380  258.6320  222.4320 N.pl3     1 ATP2004     0.0000 
     28 N1        246.0820  260.8120  221.6270 N.ar      1 ATP2004     0.0000 
     29 C2        245.9020  262.1290  221.8290 C.ar      1 ATP2004     0.0000 
     30 N3        245.8820  262.7080  223.0380 N.ar      1 ATP2004     0.0000 
     31 C4        246.0460  261.9640  224.1480 C.ar      1 ATP2004     0.0000 
@<TRIPOS>BOND
     1    1    2 ar   
     2    1    3 ar   
     3    1    4 ar   
     4    1    8 1    
     5    5    6 ar   
     6    5    7 ar   
     7    5    8 1    
     8    5   12 1    
     9    9   10 ar   
    10    9   11 ar   
    11    9   12 1    
    12    9   13 1    
    13   13   14 1    
    14   14   15 1    
    15   15   16 1    
    16   15   17 1    
    17   16   21 1    
    18   17   18 1    
    19   17   19 1    
    20   19   20 1    
    21   19   21 1    
    22   21   22 1    
    23   22   23 1    
    24   22   31 1    
    25   23   24 2    
    26   24   25 1    
    27   25   26 ar   
    28   25   31 ar   
    29   26   27 1    
    30   26   28 ar   
    31   28   29 ar   
    32   29   30 ar   
    33   30   31 ar   
@<TRIPOS>SUBSTRUCTURE
     1 ATP2004     1 GROUP   
@<TRIPOS>SET
ATOM$ORANGE STATIC     ATOMS   COLORGROUP SYSTEM 
20 14 14 15 15 17 17 19 19 21 21 23 23 25 25 26 26 29 \
29 31 31 

