#    Name: 6c3o_11_ADP_CAVITY_N1_12
#    Modification time : Fri May 22 19:27:30 2020

@<TRIPOS>MOLECULE
6c3o_11_ADP_CAVITY_N1_12
   81     0     6     0     0
SMALL
NO_CHARGES


@<TRIPOS>ATOM
      1 OG        146.7900  233.7700  239.1500 O.3       1 SER1        0.0000 
      2 OG        147.8300  232.6900  239.2000 O.3       1 SER1        0.0000 
      3 OG        147.2100  234.1100  237.7500 O.3       1 SER1        0.0000 
      4 OG        147.6200  234.4500  236.3500 O.3       1 SER1        0.0000 
      5 OG        148.6200  235.4300  236.8800 O.3       1 SER1        0.0000 
      6 OG        150.7000  233.2800  236.9800 O.3       1 SER1        0.0000 
      7 OG        151.1200  233.6100  235.5800 O.3       1 SER1        0.0000 
      8 OG        148.1600  237.1600  238.7700 O.3       1 SER1        0.0000 
      9 OG        151.7000  234.2600  237.5100 O.3       1 SER1        0.0000 
     10 OG        151.0800  235.6800  236.0600 O.3       1 SER1        0.0000 
     11 OG        152.1200  234.6000  236.1100 O.3       1 SER1        0.0000 
     12 OG        153.5700  233.8600  234.7600 O.3       1 SER1        0.0000 
     13 OG        152.7000  235.2500  238.0500 O.3       1 SER1        0.0000 
     14 OG        152.0700  236.6600  236.6000 O.3       1 SER1        0.0000 
     15 OG        153.1100  235.5800  236.6500 O.3       1 SER1        0.0000 
     16 N         143.9200  233.1900  241.3700 N.am      2 ALA2        0.0000 
     17 O         143.7100  234.9500  238.5200 O.2       2 ALA2        0.0000 
     18 N         144.7500  233.8700  238.5700 N.am      2 ALA2        0.0000 
     19 N         145.1700  234.2000  237.1700 N.am      2 ALA2        0.0000 
     20 N         146.2100  233.1300  237.2100 N.am      2 ALA2        0.0000 
     21 N         146.6300  233.4600  235.8100 N.am      2 ALA2        0.0000 
     22 N         144.5000  233.8400  243.3000 N.am      2 ALA2        0.0000 
     23 N         144.9200  234.1800  241.9000 N.am      2 ALA2        0.0000 
     24 O         144.7100  235.9300  239.0500 O.2       2 ALA2        0.0000 
     25 O         145.1300  236.2700  237.6500 O.2       2 ALA2        0.0000 
     26 O         146.1700  235.1900  237.7000 O.2       2 ALA2        0.0000 
     27 O         146.5800  235.5300  236.3000 O.2       2 ALA2        0.0000 
     28 O         147.0000  235.8600  234.9000 O.2       2 ALA2        0.0000 
     29 N         145.7100  236.9200  239.5800 N.am      2 ALA2        0.0000 
     30 N         147.1600  236.1800  238.2300 N.am      2 ALA2        0.0000 
     31 N         147.5800  236.5100  236.8300 N.am      2 ALA2        0.0000 
     32 O         148.0000  236.8500  235.4300 O.2       2 ALA2        0.0000 
     33 O         149.0400  235.7700  235.4800 O.2       2 ALA2        0.0000 
     34 N         148.5800  237.5000  237.3600 N.am      2 ALA2        0.0000 
     35 O         150.4500  237.0900  234.6100 O.2       2 ALA2        0.0000 
     36 O         153.5300  235.9200  235.2400 O.2       2 ALA2        0.0000 
     37 O         154.5700  234.8400  235.2900 O.2       2 ALA2        0.0000 
     38 OD1       145.9600  233.1000  241.9500 O.co2     3 ASP3        0.0000 
     39 OD1       146.3800  233.4400  240.5500 O.co2     3 ASP3        0.0000 
     40 OD1       148.2500  233.0300  237.8000 O.co2     3 ASP3        0.0000 
     41 OD1       149.2900  231.9500  237.8500 O.co2     3 ASP3        0.0000 
     42 OD1       150.3300  230.8700  237.9000 O.co2     3 ASP3        0.0000 
     43 OD1       148.6700  233.3700  236.4000 O.co2     3 ASP3        0.0000 
     44 OD1       149.7100  232.2900  236.4500 O.co2     3 ASP3        0.0000 
     45 OD1       149.0800  233.7100  235.0000 O.co2     3 ASP3        0.0000 
     46 OD1       150.1200  232.6300  235.0500 O.co2     3 ASP3        0.0000 
     47 OD1       151.0300  237.7400  236.5500 O.co2     3 ASP3        0.0000 
     48 OD1       152.4900  237.0000  235.2000 O.co2     3 ASP3        0.0000 
     49 OD1       153.0700  237.6500  237.1300 O.co2     3 ASP3        0.0000 
     50 NZ        144.8000  231.8000  238.0800 N.4       4 LYS4        0.0000 
     51 NZ        154.1100  236.5700  237.1800 N.4       4 LYS4        0.0000 
     52 NZ        155.1500  235.4900  237.2300 N.4       4 LYS4        0.0000 
     53 CA        144.3800  231.4700  239.4800 C.3       5 GLY6        0.0000 
     54 CA        143.7600  232.8800  238.0300 C.3       5 GLY6        0.0000 
     55 CA        144.9600  232.1100  241.4200 C.3       5 GLY6        0.0000 
     56 CA        143.3000  234.6100  239.9200 C.3       5 GLY6        0.0000 
     57 CA        144.3400  233.5300  239.9700 C.3       5 GLY6        0.0000 
     58 CA        145.3800  232.4500  240.0200 C.3       5 GLY6        0.0000 
     59 CA        143.8800  235.2600  241.8500 C.3       5 GLY6        0.0000 
     60 CA        144.2900  235.6000  240.4500 C.3       5 GLY6        0.0000 
     61 CA        148.4600  235.1200  233.5500 C.3       5 GLY6        0.0000 
     62 CA        145.9200  235.1600  242.4400 C.3       5 GLY6        0.0000 
     63 CA        145.2900  236.5800  240.9800 C.3       5 GLY6        0.0000 
     64 CA        146.3300  235.5000  241.0300 C.3       5 GLY6        0.0000 
     65 CA        147.3700  234.4200  241.0800 C.3       5 GLY6        0.0000 
     66 CA        146.7500  235.8400  239.6300 C.3       5 GLY6        0.0000 
     67 CA        150.0800  234.6900  235.5300 C.3       5 GLY6        0.0000 
     68 CA        149.4500  236.1100  234.0800 C.3       5 GLY6        0.0000 
     69 CA        147.7500  236.8200  240.1700 C.3       5 GLY6        0.0000 
     70 CA        150.0400  236.7600  236.0100 C.3       5 GLY6        0.0000 
     71 CA        153.1600  233.5200  236.1600 C.3       5 GLY6        0.0000 
     72 CA        151.4900  236.0100  234.6600 C.3       5 GLY6        0.0000 
     73 CA        152.5300  234.9400  234.7100 C.3       5 GLY6        0.0000 
     74 CA        154.1500  234.5000  236.7000 C.3       5 GLY6        0.0000 
     75 CA        152.6500  237.3100  238.5300 C.3       5 GLY6        0.0000 
     76 CA        153.6900  236.2300  238.5800 C.3       5 GLY6        0.0000 
     77 DU        145.8000  232.7900  238.6200 H         6 CUB7        0.0000 
     78 DU        145.3300  234.5200  240.5000 H         6 CUB7        0.0000 
     79 DU        145.7500  234.8500  239.1000 H         6 CUB7        0.0000 
     80 DU        148.0400  234.7900  234.9500 H         6 CUB7        0.0000 
     81 DU        152.1600  232.5300  235.6300 H         6 CUB7        0.0000 
@<TRIPOS>BOND
@<TRIPOS>SUBSTRUCTURE
     1 SER1        1 GROUP   
     2 ALA2       16 GROUP   
     3 ASP3       38 GROUP   
     4 LYS4       50 GROUP   
     5 GLY6       53 GROUP   
     6 CUB7       77 GROUP   
@<TRIPOS>SET

