#    Name: 6c3o_7_ADP_CAVITY_N1_6
#    Modification time : Fri May 22 19:26:08 2020

@<TRIPOS>MOLECULE
6c3o_7_ADP_CAVITY_N1_6
   97     0     7     0     0
SMALL
NO_CHARGES


@<TRIPOS>ATOM
      1 OG        232.6100  161.5900  224.8100 O.3       1 SER1        0.0000 
      2 OG        241.0200  157.3900  229.5100 O.3       1 SER1        0.0000 
      3 OG        239.1000  159.8600  232.7400 O.3       1 SER1        0.0000 
      4 OG        240.1400  158.7900  232.7900 O.3       1 SER1        0.0000 
      5 OG        241.1800  157.7100  232.8400 O.3       1 SER1        0.0000 
      6 OG        238.4700  161.2800  231.2900 O.3       1 SER1        0.0000 
      7 OG        239.5200  160.2000  231.3400 O.3       1 SER1        0.0000 
      8 OG        240.5600  159.1200  231.3900 O.3       1 SER1        0.0000 
      9 OG        241.6000  158.0400  231.4400 O.3       1 SER1        0.0000 
     10 OG        240.9700  159.4600  229.9900 O.3       1 SER1        0.0000 
     11 OG        242.0100  158.3800  230.0400 O.3       1 SER1        0.0000 
     12 OG        240.1000  160.8500  233.2800 O.3       1 SER1        0.0000 
     13 OG        240.5100  161.1900  231.8700 O.3       1 SER1        0.0000 
     14 OG        241.5100  162.1700  232.4100 O.3       1 SER1        0.0000 
     15 OG        242.5500  161.0900  232.4600 O.3       1 SER1        0.0000 
     16 OG        243.5900  160.0100  232.5100 O.3       1 SER1        0.0000 
     17 OG        243.9600  162.4200  231.5900 O.3       1 SER1        0.0000 
     18 OG        245.0000  161.3400  231.6400 O.3       1 SER1        0.0000 
     19 N         233.6600  160.5100  224.8600 N.am      2 ALA2        0.0000 
     20 N         234.7000  159.4300  224.9000 N.am      2 ALA2        0.0000 
     21 N         235.7400  158.3500  224.9500 N.am      2 ALA2        0.0000 
     22 N         236.7800  157.2700  225.0000 N.am      2 ALA2        0.0000 
     23 N         234.0700  160.8500  223.4500 N.am      2 ALA2        0.0000 
     24 N         236.3200  159.0000  226.8900 N.am      2 ALA2        0.0000 
     25 N         237.3600  157.9200  226.9400 N.am      2 ALA2        0.0000 
     26 N         235.6900  160.4100  225.4400 N.am      2 ALA2        0.0000 
     27 N         236.7300  159.3400  225.4900 N.am      2 ALA2        0.0000 
     28 N         238.1900  158.5900  224.1400 N.am      2 ALA2        0.0000 
     29 N         244.2600  156.5300  233.4700 N.am      2 ALA2        0.0000 
     30 N         244.6300  158.9400  232.5600 N.am      2 ALA2        0.0000 
     31 OD1       234.2400  161.1600  226.7900 O.co2     3 ASP3        0.0000 
     32 OD1       233.6100  162.5700  225.3400 O.co2     3 ASP3        0.0000 
     33 OD1       234.6500  161.4900  225.3900 O.co2     3 ASP3        0.0000 
     34 OD1       236.2700  161.0600  227.3700 O.co2     3 ASP3        0.0000 
     35 OD1       237.2700  162.0500  227.9100 O.co2     3 ASP3        0.0000 
     36 OD1       238.3100  160.9700  227.9600 O.co2     3 ASP3        0.0000 
     37 OD1       239.3100  161.9600  228.4900 O.co2     3 ASP3        0.0000 
     38 OD1       240.3500  160.8800  228.5400 O.co2     3 ASP3        0.0000 
     39 OD1       242.4300  158.7200  228.6400 O.co2     3 ASP3        0.0000 
     40 OD1       239.7200  162.2900  227.0900 O.co2     3 ASP3        0.0000 
     41 OD1       240.7600  161.2100  227.1400 O.co2     3 ASP3        0.0000 
     42 OD1       241.8100  160.1300  227.1900 O.co2     3 ASP3        0.0000 
     43 OD1       242.2200  160.4700  225.7900 O.co2     3 ASP3        0.0000 
     44 OD1       241.1400  159.7700  233.3300 O.co2     3 ASP3        0.0000 
     45 OD1       242.1800  158.6900  233.3700 O.co2     3 ASP3        0.0000 
     46 OD1       243.2200  157.6100  233.4200 O.co2     3 ASP3        0.0000 
     47 OD1       240.9300  161.5200  230.4700 O.co2     3 ASP3        0.0000 
     48 OD1       241.9700  160.4500  230.5200 O.co2     3 ASP3        0.0000 
     49 OD1       243.0100  159.3700  230.5700 O.co2     3 ASP3        0.0000 
     50 OD1       240.3000  162.9400  229.0200 O.co2     3 ASP3        0.0000 
     51 OD1       241.3500  161.8600  229.0700 O.co2     3 ASP3        0.0000 
     52 OD1       243.4300  159.7000  229.1700 O.co2     3 ASP3        0.0000 
     53 OD1       240.7200  163.2800  227.6200 O.co2     3 ASP3        0.0000 
     54 OD1       242.1300  160.7600  233.8600 O.co2     3 ASP3        0.0000 
     55 OD1       241.9300  162.5100  231.0100 O.co2     3 ASP3        0.0000 
     56 OD1       242.9700  161.4300  231.0600 O.co2     3 ASP3        0.0000 
     57 OD1       244.0100  160.3500  231.1100 O.co2     3 ASP3        0.0000 
     58 OD1       239.6400  166.4200  228.0600 O.co2     3 ASP3        0.0000 
     59 NZ        245.6300  159.9200  233.0900 N.4       4 LYS4        0.0000 
     60 CZ        237.8500  162.7000  229.8400 C.ar      5 PHE5        0.0000 
     61 CZ        238.8900  161.6200  229.8900 C.ar      5 PHE5        0.0000 
     62 CZ        239.8900  162.6000  230.4200 C.ar      5 PHE5        0.0000 
     63 CZ        239.2600  164.0200  228.9700 C.ar      5 PHE5        0.0000 
     64 CZ        239.2200  166.0900  229.4600 C.ar      5 PHE5        0.0000 
     65 CA        237.7700  158.2600  225.5400 C.3       6 GLY6        0.0000 
     66 CA        238.8100  157.1800  225.5900 C.3       6 GLY6        0.0000 
     67 CA        236.6900  161.4000  225.9700 C.3       6 GLY6        0.0000 
     68 CA        237.7300  160.3200  226.0200 C.3       6 GLY6        0.0000 
     69 CA        238.7700  159.2400  226.0700 C.3       6 GLY6        0.0000 
     70 CA        239.1900  159.5800  224.6700 C.3       6 GLY6        0.0000 
     71 CA        238.7300  161.3100  226.5500 C.3       6 GLY6        0.0000 
     72 CA        239.7700  160.2300  226.6000 C.3       6 GLY6        0.0000 
     73 CA        240.1800  160.5600  225.2000 C.3       6 GLY6        0.0000 
     74 CA        240.6000  160.9000  223.8000 C.3       6 GLY6        0.0000 
     75 CA        242.6400  156.9600  231.4900 C.3       6 GLY6        0.0000 
     76 CA        240.1400  162.6300  225.6900 C.3       6 GLY6        0.0000 
     77 CA        241.1800  161.5500  225.7400 C.3       6 GLY6        0.0000 
     78 CA        241.6000  161.8900  224.3400 C.3       6 GLY6        0.0000 
     79 CA        241.1400  163.6200  226.2200 C.3       6 GLY6        0.0000 
     80 CA        242.1800  162.5400  226.2700 C.3       6 GLY6        0.0000 
     81 CA        245.0500  159.2700  231.1600 C.3       6 GLY6        0.0000 
     82 CA        240.2600  165.0100  229.5100 C.3       6 GLY6        0.0000 
     83 CA        241.3000  163.9300  229.5600 C.3       6 GLY6        0.0000 
     84 CA        240.6800  165.3400  228.1100 C.3       6 GLY6        0.0000 
     85 CA        241.7200  164.2600  228.1600 C.3       6 GLY6        0.0000 
     86 DU        235.2800  160.0800  226.8400 H         7 CUB7        0.0000 
     87 DU        237.3100  159.9800  227.4200 H         7 CUB7        0.0000 
     88 DU        238.3500  158.9000  227.4700 H         7 CUB7        0.0000 
     89 DU        239.8100  158.1600  226.1200 H         7 CUB7        0.0000 
     90 DU        240.2300  158.5000  224.7200 H         7 CUB7        0.0000 
     91 DU        240.3900  158.8100  228.0600 H         7 CUB7        0.0000 
     92 DU        240.8100  159.1500  226.6500 H         7 CUB7        0.0000 
     93 DU        241.2200  159.4900  225.2500 H         7 CUB7        0.0000 
     94 DU        239.9300  160.5400  229.9400 H         7 CUB7        0.0000 
     95 DU        241.5500  160.1100  231.9200 H         7 CUB7        0.0000 
     96 DU        242.5900  159.0300  231.9700 H         7 CUB7        0.0000 
     97 DU        243.6300  157.9500  232.0200 H         7 CUB7        0.0000 
@<TRIPOS>BOND
@<TRIPOS>SUBSTRUCTURE
     1 SER1        1 GROUP   
     2 ALA2       19 GROUP   
     3 ASP3       31 GROUP   
     4 LYS4       59 GROUP   
     5 PHE5       60 GROUP   
     6 GLY6       65 GROUP   
     7 CUB7       86 GROUP   
@<TRIPOS>SET

