#    Name: 6c3o_10_ATP_CAVITY_N1_4
#    Modification time : Fri May 22 19:27:11 2020

@<TRIPOS>MOLECULE
6c3o_10_ATP_CAVITY_N1_4
  135     0     7     0     0
SMALL
NO_CHARGES


@<TRIPOS>ATOM
      1 OG        246.8000  256.4100  221.3300 O.3       1 SER1        0.0000 
      2 OG        246.7600  258.4800  221.8100 O.3       1 SER1        0.0000 
      3 OG        247.8000  257.4000  221.8600 O.3       1 SER1        0.0000 
      4 OG        243.9600  262.3400  228.3300 O.3       1 SER1        0.0000 
      5 OG        245.4200  261.5900  226.9800 O.3       1 SER1        0.0000 
      6 OG        246.4600  260.5100  227.0300 O.3       1 SER1        0.0000 
      7 OG        244.9600  263.3200  228.8700 O.3       1 SER1        0.0000 
      8 OG        246.0000  262.2400  228.9100 O.3       1 SER1        0.0000 
      9 OG        247.0400  261.1600  228.9600 O.3       1 SER1        0.0000 
     10 OG        248.0800  260.0800  229.0100 O.3       1 SER1        0.0000 
     11 OG        246.4200  262.5800  227.5100 O.3       1 SER1        0.0000 
     12 OG        247.4600  261.5000  227.5600 O.3       1 SER1        0.0000 
     13 OG        247.4100  263.5700  228.0500 O.3       1 SER1        0.0000 
     14 OG        246.1600  266.4000  225.1500 O.3       1 SER1        0.0000 
     15 OG        247.1600  267.3800  225.6800 O.3       1 SER1        0.0000 
     16 N         244.7200  258.5700  221.2300 N.am      2 ALA2        0.0000 
     17 N         245.0900  257.1300  227.4100 N.am      2 ALA2        0.0000 
     18 N         246.1300  256.0500  227.4600 N.am      2 ALA2        0.0000 
     19 N         245.5100  257.4600  226.0100 N.am      2 ALA2        0.0000 
     20 N         244.8800  258.8800  224.5600 N.am      2 ALA2        0.0000 
     21 N         245.9200  257.8000  224.6100 N.am      2 ALA2        0.0000 
     22 N         244.6700  260.6300  221.7100 N.am      2 ALA2        0.0000 
     23 N         245.4600  259.5300  226.5000 N.am      2 ALA2        0.0000 
     24 N         246.5000  258.4500  226.5500 N.am      2 ALA2        0.0000 
     25 N         245.8800  259.8700  225.1000 N.am      2 ALA2        0.0000 
     26 N         245.2500  261.2800  223.6400 N.am      2 ALA2        0.0000 
     27 N         244.6300  262.7000  222.1900 N.am      2 ALA2        0.0000 
     28 N         245.6700  261.6200  222.2400 N.am      2 ALA2        0.0000 
     29 N         243.7500  264.0900  225.4800 N.am      2 ALA2        0.0000 
     30 N         244.7900  263.0100  225.5300 N.am      2 ALA2        0.0000 
     31 O         245.8400  261.9300  225.5800 O.2       2 ALA2        0.0000 
     32 N         243.1300  265.5100  224.0300 N.am      2 ALA2        0.0000 
     33 N         244.1700  264.4300  224.0800 N.am      2 ALA2        0.0000 
     34 N         245.2100  263.3500  224.1300 N.am      2 ALA2        0.0000 
     35 O         246.2500  262.2700  224.1800 O.2       2 ALA2        0.0000 
     36 N         244.5900  264.7600  222.6800 N.am      2 ALA2        0.0000 
     37 O         242.4600  265.1400  230.1700 O.2       2 ALA2        0.0000 
     38 N         243.5000  264.0600  230.2200 N.am      2 ALA2        0.0000 
     39 N         244.5400  262.9800  230.2700 N.am      2 ALA2        0.0000 
     40 N         243.9200  264.4000  228.8200 N.am      2 ALA2        0.0000 
     41 O         245.7900  264.0000  226.0600 O.2       2 ALA2        0.0000 
     42 O         246.8300  262.9200  226.1100 O.2       2 ALA2        0.0000 
     43 O         246.2100  264.3300  224.6600 O.2       2 ALA2        0.0000 
     44 N         243.0400  265.7900  232.1000 N.am      2 ALA2        0.0000 
     45 N         243.4600  266.1300  230.7000 N.am      2 ALA2        0.0000 
     46 N         243.8700  266.4700  229.3000 N.am      2 ALA2        0.0000 
     47 N         244.9100  265.3900  229.3500 N.am      2 ALA2        0.0000 
     48 N         245.9600  264.3100  229.4000 N.am      2 ALA2        0.0000 
     49 N         247.0000  263.2300  229.4500 N.am      2 ALA2        0.0000 
     50 O         246.7900  264.9800  226.6000 O.2       2 ALA2        0.0000 
     51 N         244.4500  267.1100  231.2300 N.am      2 ALA2        0.0000 
     52 N         244.8700  267.4500  229.8300 N.am      2 ALA2        0.0000 
     53 N         245.9100  266.3700  229.8800 N.am      2 ALA2        0.0000 
     54 N         246.9500  265.2900  229.9300 N.am      2 ALA2        0.0000 
     55 N         246.9100  267.3600  230.4200 N.am      2 ALA2        0.0000 
     56 N         247.9500  266.2800  230.4700 N.am      2 ALA2        0.0000 
     57 OD1       243.8900  257.8900  224.0300 O.co2     3 ASP3        0.0000 
     58 OD1       244.9300  256.8200  224.0800 O.co2     3 ASP3        0.0000 
     59 OD1       246.0900  258.1100  227.9500 O.co2     3 ASP3        0.0000 
     60 OD1       247.1300  257.0300  228.0000 O.co2     3 ASP3        0.0000 
     61 OD1       247.0800  259.1000  228.4800 O.co2     3 ASP3        0.0000 
     62 NZ        245.8000  255.4200  220.7900 N.4       4 LYS4        0.0000 
     63 NZ        245.9700  255.7400  224.1300 N.4       4 LYS4        0.0000 
     64 NZ        245.3400  257.1500  222.6800 N.4       4 LYS4        0.0000 
     65 NZ        246.3800  256.0700  222.7300 N.4       4 LYS4        0.0000 
     66 CZ        246.3400  258.1400  223.2100 C.ar      5 PHE5        0.0000 
     67 CZ        247.3800  257.0600  223.2600 C.ar      5 PHE5        0.0000 
     68 CZ        246.9200  258.7900  225.1400 C.ar      5 PHE5        0.0000 
     69 CZ        247.9600  257.7100  225.1900 C.ar      5 PHE5        0.0000 
     70 CZ        246.7100  260.5400  222.2900 C.ar      5 PHE5        0.0000 
     71 CZ        247.1300  260.8800  220.8900 C.ar      5 PHE5        0.0000 
     72 CZ        242.9200  263.4200  228.2800 C.ar      5 PHE5        0.0000 
     73 CZ        243.3400  263.7500  226.8800 C.ar      5 PHE5        0.0000 
     74 CZ        247.5000  259.4400  227.0800 C.ar      5 PHE5        0.0000 
     75 CZ        248.5400  258.3600  227.1300 C.ar      5 PHE5        0.0000 
     76 CZ        242.7100  265.1700  225.4300 C.ar      5 PHE5        0.0000 
     77 CZ        246.8800  260.8500  225.6300 C.ar      5 PHE5        0.0000 
     78 CZ        242.0900  266.5900  223.9800 C.ar      5 PHE5        0.0000 
     79 CZ        246.6700  262.6100  222.7800 C.ar      5 PHE5        0.0000 
     80 CZ        247.0800  262.9400  221.3800 C.ar      5 PHE5        0.0000 
     81 CZ        242.8800  265.4800  228.7700 C.ar      5 PHE5        0.0000 
     82 CZ        242.2500  266.9000  227.3200 C.ar      5 PHE5        0.0000 
     83 CZ        243.2900  265.8200  227.3600 C.ar      5 PHE5        0.0000 
     84 CZ        242.6700  267.2300  225.9100 C.ar      5 PHE5        0.0000 
     85 CZ        243.7100  266.1500  225.9600 C.ar      5 PHE5        0.0000 
     86 CZ        243.0900  267.5700  224.5100 C.ar      5 PHE5        0.0000 
     87 CZ        246.6200  264.6700  223.2600 C.ar      5 PHE5        0.0000 
     88 CZ        248.0400  265.9900  222.3900 C.ar      5 PHE5        0.0000 
     89 CA        244.3000  258.2300  222.6300 C.3       6 GLY6        0.0000 
     90 CA        247.8400  255.3300  221.3800 C.3       6 GLY6        0.0000 
     91 CA        244.2600  260.3000  223.1100 C.3       6 GLY6        0.0000 
     92 CA        248.4200  255.9800  223.3100 C.3       6 GLY6        0.0000 
     93 CA        245.7100  259.5500  221.7600 C.3       6 GLY6        0.0000 
     94 CA        248.8400  256.3200  221.9100 C.3       6 GLY6        0.0000 
     95 CA        245.0900  260.9700  220.3100 C.3       6 GLY6        0.0000 
     96 CA        248.1700  255.9500  228.0500 C.3       6 GLY6        0.0000 
     97 CA        244.8400  260.9500  225.0500 C.3       6 GLY6        0.0000 
     98 CA        246.0900  261.9600  220.8400 C.3       6 GLY6        0.0000 
     99 CA        248.1200  258.0200  228.5300 C.3       6 GLY6        0.0000 
    100 CA        244.3800  262.6700  226.9300 C.3       6 GLY6        0.0000 
    101 CA        249.5800  257.2800  227.1800 C.3       6 GLY6        0.0000 
    102 CA        245.6300  263.6800  222.7300 C.3       6 GLY6        0.0000 
    103 CA        246.0400  264.0200  221.3300 C.3       6 GLY6        0.0000 
    104 CA        241.4200  266.2200  230.1200 C.3       6 GLY6        0.0000 
    105 CA        241.8400  266.5600  228.7200 C.3       6 GLY6        0.0000 
    106 CA        246.0000  266.0900  221.8100 C.3       6 GLY6        0.0000 
    107 CA        247.0400  265.0100  221.8600 C.3       6 GLY6        0.0000 
    108 CA        247.4600  265.3400  220.4600 C.3       6 GLY6        0.0000 
    109 CA        242.4200  267.2100  230.6500 C.3       6 GLY6        0.0000 
    110 CA        242.8300  267.5500  229.2500 C.3       6 GLY6        0.0000 
    111 CA        247.9900  264.2100  229.9800 C.3       6 GLY6        0.0000 
    112 CA        246.3300  266.7100  228.4800 C.3       6 GLY6        0.0000 
    113 CA        247.3700  265.6300  228.5300 C.3       6 GLY6        0.0000 
    114 CA        248.4100  264.5500  228.5800 C.3       6 GLY6        0.0000 
    115 CA        248.9900  265.2000  230.5200 C.3       6 GLY6        0.0000 
    116 DU        247.4200  254.9900  222.7800 H         7 CUB7        0.0000 
    117 DU        246.5500  256.3800  226.0600 H         7 CUB7        0.0000 
    118 DU        246.9600  256.7200  224.6600 H         7 CUB7        0.0000 
    119 DU        245.3000  259.2200  223.1600 H         7 CUB7        0.0000 
    120 DU        247.5400  257.3700  226.6000 H         7 CUB7        0.0000 
    121 DU        244.3300  264.7400  227.4100 H         7 CUB7        0.0000 
    122 DU        245.3800  263.6600  227.4600 H         7 CUB7        0.0000 
    123 DU        244.7500  265.0800  226.0100 H         7 CUB7        0.0000 
    124 DU        244.1300  266.4900  224.5600 H         7 CUB7        0.0000 
    125 DU        245.1700  265.4100  224.6100 H         7 CUB7        0.0000 
    126 DU        245.5800  265.7500  223.2100 H         7 CUB7        0.0000 
    127 DU        243.2500  267.8800  227.8500 H         7 CUB7        0.0000 
    128 DU        244.2900  266.8000  227.9000 H         7 CUB7        0.0000 
    129 DU        245.3300  265.7200  227.9500 H         7 CUB7        0.0000 
    130 DU        246.3700  264.6400  228.0000 H         7 CUB7        0.0000 
    131 DU        243.6700  268.2200  226.4500 H         7 CUB7        0.0000 
    132 DU        245.7500  266.0600  226.5500 H         7 CUB7        0.0000 
    133 DU        245.1200  267.4800  225.1000 H         7 CUB7        0.0000 
    134 DU        243.8300  268.5300  229.7800 H         7 CUB7        0.0000 
    135 DU        245.7000  268.1300  227.0300 H         7 CUB7        0.0000 
@<TRIPOS>BOND
@<TRIPOS>SUBSTRUCTURE
     1 SER1        1 GROUP   
     2 ALA2       16 GROUP   
     3 ASP3       57 GROUP   
     4 LYS4       62 GROUP   
     5 PHE5       66 GROUP   
     6 GLY6       89 GROUP   
     7 CUB7      116 GROUP   
@<TRIPOS>SET

