#    Name: 6c3o_7_ADP_CAVITY_N1_4
#    Modification time : Fri May 22 19:26:08 2020

@<TRIPOS>MOLECULE
6c3o_7_ADP_CAVITY_N1_4
   48     0     6     0     0
SMALL
NO_CHARGES


@<TRIPOS>ATOM
      1 OG        239.1000  159.8600  232.7400 O.3       1 SER1        0.0000 
      2 OG        240.1400  158.7900  232.7900 O.3       1 SER1        0.0000 
      3 OG        241.1800  157.7100  232.8400 O.3       1 SER1        0.0000 
      4 OG        238.4700  161.2800  231.2900 O.3       1 SER1        0.0000 
      5 OG        239.5200  160.2000  231.3400 O.3       1 SER1        0.0000 
      6 OG        240.5600  159.1200  231.3900 O.3       1 SER1        0.0000 
      7 OG        240.9700  159.4600  229.9900 O.3       1 SER1        0.0000 
      8 OG        240.1000  160.8500  233.2800 O.3       1 SER1        0.0000 
      9 OG        240.5100  161.1900  231.8700 O.3       1 SER1        0.0000 
     10 OG        241.5100  162.1700  232.4100 O.3       1 SER1        0.0000 
     11 OG        242.5500  161.0900  232.4600 O.3       1 SER1        0.0000 
     12 OG        243.5900  160.0100  232.5100 O.3       1 SER1        0.0000 
     13 N         236.3200  159.0000  226.8900 N.am      2 ALA2        0.0000 
     14 N         235.6900  160.4100  225.4400 N.am      2 ALA2        0.0000 
     15 N         236.7300  159.3400  225.4900 N.am      2 ALA2        0.0000 
     16 OD1       234.2400  161.1600  226.7900 O.co2     3 ASP3        0.0000 
     17 OD1       233.6100  162.5700  225.3400 O.co2     3 ASP3        0.0000 
     18 OD1       234.6500  161.4900  225.3900 O.co2     3 ASP3        0.0000 
     19 OD1       236.2700  161.0600  227.3700 O.co2     3 ASP3        0.0000 
     20 OD1       237.2700  162.0500  227.9100 O.co2     3 ASP3        0.0000 
     21 OD1       238.3100  160.9700  227.9600 O.co2     3 ASP3        0.0000 
     22 OD1       239.3100  161.9600  228.4900 O.co2     3 ASP3        0.0000 
     23 OD1       240.3500  160.8800  228.5400 O.co2     3 ASP3        0.0000 
     24 OD1       239.7200  162.2900  227.0900 O.co2     3 ASP3        0.0000 
     25 OD1       240.7600  161.2100  227.1400 O.co2     3 ASP3        0.0000 
     26 OD1       241.1400  159.7700  233.3300 O.co2     3 ASP3        0.0000 
     27 OD1       242.1800  158.6900  233.3700 O.co2     3 ASP3        0.0000 
     28 OD1       240.9300  161.5200  230.4700 O.co2     3 ASP3        0.0000 
     29 OD1       240.3000  162.9400  229.0200 O.co2     3 ASP3        0.0000 
     30 OD1       241.3500  161.8600  229.0700 O.co2     3 ASP3        0.0000 
     31 OD1       240.7200  163.2800  227.6200 O.co2     3 ASP3        0.0000 
     32 OD1       242.1300  160.7600  233.8600 O.co2     3 ASP3        0.0000 
     33 CZ        237.8500  162.7000  229.8400 C.ar      4 PHE5        0.0000 
     34 CZ        238.8900  161.6200  229.8900 C.ar      4 PHE5        0.0000 
     35 CZ        239.8900  162.6000  230.4200 C.ar      4 PHE5        0.0000 
     36 CZ        239.2600  164.0200  228.9700 C.ar      4 PHE5        0.0000 
     37 CA        236.6900  161.4000  225.9700 C.3       5 GLY6        0.0000 
     38 CA        237.7300  160.3200  226.0200 C.3       5 GLY6        0.0000 
     39 CA        238.7700  159.2400  226.0700 C.3       5 GLY6        0.0000 
     40 CA        238.7300  161.3100  226.5500 C.3       5 GLY6        0.0000 
     41 CA        239.7700  160.2300  226.6000 C.3       5 GLY6        0.0000 
     42 CA        240.1400  162.6300  225.6900 C.3       5 GLY6        0.0000 
     43 DU        235.2800  160.0800  226.8400 H         6 CUB7        0.0000 
     44 DU        237.3100  159.9800  227.4200 H         6 CUB7        0.0000 
     45 DU        238.3500  158.9000  227.4700 H         6 CUB7        0.0000 
     46 DU        239.9300  160.5400  229.9400 H         6 CUB7        0.0000 
     47 DU        241.5500  160.1100  231.9200 H         6 CUB7        0.0000 
     48 DU        242.5900  159.0300  231.9700 H         6 CUB7        0.0000 
@<TRIPOS>BOND
@<TRIPOS>SUBSTRUCTURE
     1 SER1        1 GROUP   
     2 ALA2       13 GROUP   
     3 ASP3       16 GROUP   
     4 PHE5       33 GROUP   
     5 GLY6       37 GROUP   
     6 CUB7       43 GROUP   
@<TRIPOS>SET

