#    Name: 6c3o_2_ATP_CAVITY_N1_4
#    Modification time : Fri May 22 19:25:07 2020

@<TRIPOS>MOLECULE
6c3o_2_ATP_CAVITY_N1_4
    1     0     1     0     0
SMALL
NO_CHARGES


@<TRIPOS>ATOM
      1 N         220.2100  190.5100  207.2000 N.am      1 ALA2        0.0000 
@<TRIPOS>BOND
@<TRIPOS>SUBSTRUCTURE
     1 ALA2        1 GROUP   
@<TRIPOS>SET

