#    Name: 5z4p_5_GDP_CAVITY_N1_4
#    Modification time : Fri May 22 19:35:12 2020

@<TRIPOS>MOLECULE
5z4p_5_GDP_CAVITY_N1_4
   25     0     6     0     0
SMALL
NO_CHARGES


@<TRIPOS>ATOM
      1 OG         13.7100  -47.9900  -18.5800 O.3       1 SER1        0.0000 
      2 OG         13.9200  -46.1200  -19.5600 O.3       1 SER1        0.0000 
      3 OG         10.6600  -46.6500  -18.9600 O.3       1 SER1        0.0000 
      4 OG         15.9500  -47.5800  -17.3200 O.3       1 SER1        0.0000 
      5 O          11.4800  -48.4000  -19.8400 O.2       2 ALA2        0.0000 
      6 O          10.5300  -47.3300  -20.2900 O.2       2 ALA2        0.0000 
      7 O          11.6800  -46.5400  -20.8200 O.2       2 ALA2        0.0000 
      8 O          10.3800  -49.7100  -15.6700 O.2       2 ALA2        0.0000 
      9 N          11.5300  -48.9100  -16.2000 N.am      2 ALA2        0.0000 
     10 O          10.5100  -49.0200  -14.3400 O.2       2 ALA2        0.0000 
     11 OD1        14.7900  -48.3800  -16.7900 O.co2     3 ASP3        0.0000 
     12 NZ         12.7600  -46.9200  -19.0300 N.4       4 LYS4        0.0000 
     13 NZ         11.8200  -45.8500  -19.4900 N.4       4 LYS4        0.0000 
     14 NZ         12.9700  -45.0500  -20.0200 N.4       4 LYS4        0.0000 
     15 NZ         12.6900  -48.1100  -16.7200 N.4       4 LYS4        0.0000 
     16 NZ         13.8400  -47.3100  -17.2500 N.4       4 LYS4        0.0000 
     17 NZ         15.0000  -46.5100  -17.7700 N.4       4 LYS4        0.0000 
     18 NZ         14.0500  -45.4400  -18.2300 N.4       4 LYS4        0.0000 
     19 NZ         10.7200  -47.1500  -15.3200 N.4       4 LYS4        0.0000 
     20 CZ         10.4500  -48.5200  -17.9800 C.ar      5 PHE5        0.0000 
     21 CZ         11.6100  -47.7200  -18.5100 C.ar      5 PHE5        0.0000 
     22 CZ         10.5800  -47.8400  -16.6500 C.ar      5 PHE5        0.0000 
     23 CA         12.6300  -47.6100  -20.3600 C.3       6 GLY6        0.0000 
     24 CA         14.6600  -49.0600  -18.1200 C.3       6 GLY6        0.0000 
     25 CA         11.4000  -49.5900  -17.5300 C.3       6 GLY6        0.0000 
@<TRIPOS>BOND
@<TRIPOS>SUBSTRUCTURE
     1 SER1        1 GROUP   
     2 ALA2        5 GROUP   
     3 ASP3       11 GROUP   
     4 LYS4       12 GROUP   
     5 PHE5       20 GROUP   
     6 GLY6       23 GROUP   
@<TRIPOS>SET

