#    Name: 5z4p_2_IMD_CAVITY_N1_4
#    Modification time : Fri May 22 19:35:04 2020

@<TRIPOS>MOLECULE
5z4p_2_IMD_CAVITY_N1_4
   40     0     6     0     0
SMALL
NO_CHARGES


@<TRIPOS>ATOM
      1 N          31.8700   -7.8100   18.2200 N.am      1 ALA2        0.0000 
      2 N          32.9500   -8.1900   20.0100 N.am      1 ALA2        0.0000 
      3 N          34.1000   -7.4000   19.4800 N.am      1 ALA2        0.0000 
      4 N          32.0000   -7.1200   19.5500 N.am      1 ALA2        0.0000 
      5 N          33.1500   -6.3300   19.0200 N.am      1 ALA2        0.0000 
      6 N          33.0800   -7.5100   21.3300 N.am      1 ALA2        0.0000 
      7 N          31.1100   -6.5600   22.7300 N.am      1 ALA2        0.0000 
      8 N          32.2600   -5.7600   22.2100 N.am      1 ALA2        0.0000 
      9 N          31.3100   -4.6900   21.7500 N.am      1 ALA2        0.0000 
     10 OD1        32.7400  -10.0600   20.9900 O.co2     2 ASP3        0.0000 
     11 OD1        33.8900   -9.2600   20.4600 O.co2     2 ASP3        0.0000 
     12 OD1        30.6400   -9.7900   21.0600 O.co2     2 ASP3        0.0000 
     13 OD1        29.6900   -8.7200   20.6000 O.co2     2 ASP3        0.0000 
     14 OD1        29.8200   -8.0400   21.9300 O.co2     2 ASP3        0.0000 
     15 NZ         31.6600   -9.6800   19.2000 N.4       3 LYS4        0.0000 
     16 NZ         30.7100   -8.6100   18.7500 N.4       3 LYS4        0.0000 
     17 NZ         28.6100   -8.3400   18.8200 N.4       3 LYS4        0.0000 
     18 NZ         29.7600   -7.5400   18.2900 N.4       3 LYS4        0.0000 
     19 NZ         31.7900   -8.9900   20.5300 N.4       3 LYS4        0.0000 
     20 NZ         29.0000   -6.2900   22.8000 N.4       3 LYS4        0.0000 
     21 NZ         30.1600   -5.4900   22.2800 N.4       3 LYS4        0.0000 
     22 CZ         28.7400   -7.6500   20.1500 C.ar      4 PHE5        0.0000 
     23 CZ         29.9000   -6.8500   19.6200 C.ar      4 PHE5        0.0000 
     24 CZ         28.8700   -6.9700   21.4700 C.ar      4 PHE5        0.0000 
     25 CA         30.9200   -6.7400   17.7700 C.3       5 GLY6        0.0000 
     26 CA         34.3100   -5.5300   18.5000 C.3       5 GLY6        0.0000 
     27 CA         32.2100   -5.2600   18.5700 C.3       5 GLY6        0.0000 
     28 CA         30.7700   -9.1100   22.3900 C.3       5 GLY6        0.0000 
     29 CA         31.9200   -8.3100   21.8600 C.3       5 GLY6        0.0000 
     30 CA         32.1300   -6.4400   20.8800 C.3       5 GLY6        0.0000 
     31 CA         33.2900   -5.6400   20.3500 C.3       5 GLY6        0.0000 
     32 CA         32.3400   -4.5700   19.9000 C.3       5 GLY6        0.0000 
     33 CA         29.9500   -7.3600   23.2600 C.3       5 GLY6        0.0000 
     34 CA         32.4700   -3.8900   21.2300 C.3       5 GLY6        0.0000 
     35 DU         30.8400   -7.9200   20.0800 H         6 CUB7        0.0000 
     36 DU         31.0500   -6.0600   19.0900 H         6 CUB7        0.0000 
     37 DU         30.1000   -4.9900   18.6400 H         6 CUB7        0.0000 
     38 DU         30.9700   -7.2400   21.4000 H         6 CUB7        0.0000 
     39 DU         30.0300   -6.1700   20.9500 H         6 CUB7        0.0000 
     40 DU         31.1800   -5.3700   20.4200 H         6 CUB7        0.0000 
@<TRIPOS>BOND
@<TRIPOS>SUBSTRUCTURE
     1 ALA2        1 GROUP   
     2 ASP3       10 GROUP   
     3 LYS4       15 GROUP   
     4 PHE5       22 GROUP   
     5 GLY6       25 GROUP   
     6 CUB7       35 GROUP   
@<TRIPOS>SET

