#    Name: 5z4p_2_IMD
#    Modification time : Fri May 22 19:35:03 2020

@<TRIPOS>MOLECULE
5z4p_2_IMD
    5     5     1     0     0
SMALL
NO_CHARGES


@<TRIPOS>ATOM
      1 N1         32.9900   -8.4140   19.4020 N.pl3     1 IMD510      0.0000 
      2 C2         32.3460   -7.7160   20.3660 C.2       1 IMD510      0.0000 
      3 N3         31.6050   -8.5980   21.0810 N.2       1 IMD510      0.0000 
      4 C4         31.7860   -9.8510   20.5820 C.2       1 IMD510      0.0000 
      5 C5         32.6650   -9.7300   19.5130 C.2       1 IMD510      0.0000 
@<TRIPOS>BOND
     1    1    2 1    
     2    1    5 1    
     3    2    3 2    
     4    3    4 1    
     5    4    5 2    
@<TRIPOS>SUBSTRUCTURE
     1 IMD510      1 GROUP   
@<TRIPOS>SET

