#    Name: 5z4p_2_IMD_CAVITY_N1_6
#    Modification time : Fri May 22 19:35:04 2020

@<TRIPOS>MOLECULE
5z4p_2_IMD_CAVITY_N1_6
   77     0     7     0     0
SMALL
NO_CHARGES


@<TRIPOS>ATOM
      1 OG         29.1600   -3.9200   18.1800 O.3       1 SER1        0.0000 
      2 OG         30.3100   -3.1200   17.6600 O.3       1 SER1        0.0000 
      3 N          31.8700   -7.8100   18.2200 N.am      2 ALA2        0.0000 
      4 N          29.9700   -5.6700   17.3100 N.am      2 ALA2        0.0000 
      5 N          29.0200   -4.6000   16.8500 N.am      2 ALA2        0.0000 
      6 N          32.9500   -8.1900   20.0100 N.am      2 ALA2        0.0000 
      7 N          34.1000   -7.4000   19.4800 N.am      2 ALA2        0.0000 
      8 N          32.0000   -7.1200   19.5500 N.am      2 ALA2        0.0000 
      9 N          33.1500   -6.3300   19.0200 N.am      2 ALA2        0.0000 
     10 N          33.0800   -7.5100   21.3300 N.am      2 ALA2        0.0000 
     11 N          31.1100   -6.5600   22.7300 N.am      2 ALA2        0.0000 
     12 N          32.2600   -5.7600   22.2100 N.am      2 ALA2        0.0000 
     13 N          31.3100   -4.6900   21.7500 N.am      2 ALA2        0.0000 
     14 OD1        32.7400  -10.0600   20.9900 O.co2     3 ASP3        0.0000 
     15 OD1        33.8900   -9.2600   20.4600 O.co2     3 ASP3        0.0000 
     16 OD1        30.6400   -9.7900   21.0600 O.co2     3 ASP3        0.0000 
     17 OD1        29.6900   -8.7200   20.6000 O.co2     3 ASP3        0.0000 
     18 OD1        29.8200   -8.0400   21.9300 O.co2     3 ASP3        0.0000 
     19 OD1        30.2900   -4.8000   23.6100 O.co2     3 ASP3        0.0000 
     20 OD1        31.4500   -4.0100   23.0800 O.co2     3 ASP3        0.0000 
     21 OD1        30.5000   -2.9400   22.6200 O.co2     3 ASP3        0.0000 
     22 OD1        31.6500   -2.1400   22.1000 O.co2     3 ASP3        0.0000 
     23 NZ         31.6600   -9.6800   19.2000 N.4       4 LYS4        0.0000 
     24 NZ         30.7100   -8.6100   18.7500 N.4       4 LYS4        0.0000 
     25 NZ         28.6100   -8.3400   18.8200 N.4       4 LYS4        0.0000 
     26 NZ         29.7600   -7.5400   18.2900 N.4       4 LYS4        0.0000 
     27 NZ         31.7900   -8.9900   20.5300 N.4       4 LYS4        0.0000 
     28 NZ         29.0000   -6.2900   22.8000 N.4       4 LYS4        0.0000 
     29 NZ         30.1600   -5.4900   22.2800 N.4       4 LYS4        0.0000 
     30 NZ         28.0600   -5.2200   22.3500 N.4       4 LYS4        0.0000 
     31 NZ         29.2100   -4.4200   21.8200 N.4       4 LYS4        0.0000 
     32 NZ         30.3700   -3.6200   21.3000 N.4       4 LYS4        0.0000 
     33 NZ         29.4200   -2.5500   20.8400 N.4       4 LYS4        0.0000 
     34 CZ         28.8200   -6.4700   17.8300 C.ar      5 PHE5        0.0000 
     35 CZ         28.7400   -7.6500   20.1500 C.ar      5 PHE5        0.0000 
     36 CZ         29.9000   -6.8500   19.6200 C.ar      5 PHE5        0.0000 
     37 CZ         28.9500   -5.7800   19.1600 C.ar      5 PHE5        0.0000 
     38 CZ         28.8700   -6.9700   21.4700 C.ar      5 PHE5        0.0000 
     39 CZ         27.9200   -5.9000   21.0200 C.ar      5 PHE5        0.0000 
     40 CZ         29.0800   -5.1000   20.4900 C.ar      5 PHE5        0.0000 
     41 CZ         28.1300   -4.0300   20.0400 C.ar      5 PHE5        0.0000 
     42 CA         30.9200   -6.7400   17.7700 C.3       6 GLY6        0.0000 
     43 CA         31.1300   -4.8700   16.7800 C.3       6 GLY6        0.0000 
     44 CA         32.2800   -4.0700   16.2600 C.3       6 GLY6        0.0000 
     45 CA         34.3100   -5.5300   18.5000 C.3       6 GLY6        0.0000 
     46 CA         35.4600   -4.7300   17.9700 C.3       6 GLY6        0.0000 
     47 CA         32.2100   -5.2600   18.5700 C.3       6 GLY6        0.0000 
     48 CA         33.3600   -4.4600   18.0400 C.3       6 GLY6        0.0000 
     49 CA         34.5200   -3.6600   17.5200 C.3       6 GLY6        0.0000 
     50 CA         30.7700   -9.1100   22.3900 C.3       6 GLY6        0.0000 
     51 CA         31.9200   -8.3100   21.8600 C.3       6 GLY6        0.0000 
     52 CA         32.1300   -6.4400   20.8800 C.3       6 GLY6        0.0000 
     53 CA         33.2900   -5.6400   20.3500 C.3       6 GLY6        0.0000 
     54 CA         35.6000   -4.0400   19.3000 C.3       6 GLY6        0.0000 
     55 CA         32.3400   -4.5700   19.9000 C.3       6 GLY6        0.0000 
     56 CA         33.4900   -3.7700   19.3700 C.3       6 GLY6        0.0000 
     57 CA         34.6500   -2.9700   18.8500 C.3       6 GLY6        0.0000 
     58 CA         29.9500   -7.3600   23.2600 C.3       6 GLY6        0.0000 
     59 CA         32.4700   -3.8900   21.2300 C.3       6 GLY6        0.0000 
     60 CA         33.6200   -3.0900   20.7000 C.3       6 GLY6        0.0000 
     61 CA         34.7800   -2.2900   20.1700 C.3       6 GLY6        0.0000 
     62 CA         32.6000   -3.2100   22.5500 C.3       6 GLY6        0.0000 
     63 DU         30.8400   -7.9200   20.0800 H         7 CUB7        0.0000 
     64 DU         31.0500   -6.0600   19.0900 H         7 CUB7        0.0000 
     65 DU         30.1000   -4.9900   18.6400 H         7 CUB7        0.0000 
     66 DU         31.2600   -4.1900   18.1100 H         7 CUB7        0.0000 
     67 DU         32.4100   -3.3900   17.5900 H         7 CUB7        0.0000 
     68 DU         30.9700   -7.2400   21.4000 H         7 CUB7        0.0000 
     69 DU         30.0300   -6.1700   20.9500 H         7 CUB7        0.0000 
     70 DU         31.1800   -5.3700   20.4200 H         7 CUB7        0.0000 
     71 DU         30.2300   -4.3000   19.9700 H         7 CUB7        0.0000 
     72 DU         31.3900   -3.5000   19.4400 H         7 CUB7        0.0000 
     73 DU         32.5500   -2.7000   18.9200 H         7 CUB7        0.0000 
     74 DU         29.2900   -3.2300   19.5100 H         7 CUB7        0.0000 
     75 DU         30.4400   -2.4300   18.9900 H         7 CUB7        0.0000 
     76 DU         31.5200   -2.8200   20.7700 H         7 CUB7        0.0000 
     77 DU         32.6800   -2.0200   20.2400 H         7 CUB7        0.0000 
@<TRIPOS>BOND
@<TRIPOS>SUBSTRUCTURE
     1 SER1        1 GROUP   
     2 ALA2        3 GROUP   
     3 ASP3       14 GROUP   
     4 LYS4       23 GROUP   
     5 PHE5       34 GROUP   
     6 GLY6       42 GROUP   
     7 CUB7       63 GROUP   
@<TRIPOS>SET

