#    Name: 5z4p_6_GTP_CAVITY_N1_6
#    Modification time : Fri May 22 19:35:20 2020

@<TRIPOS>MOLECULE
5z4p_6_GTP_CAVITY_N1_6
    6     0     3     0     0
SMALL
NO_CHARGES


@<TRIPOS>ATOM
      1 OG          7.2400  -15.7300   16.2700 O.3       1 SER1        0.0000 
      2 OG          9.4800  -15.3100   17.5300 O.3       1 SER1        0.0000 
      3 N           8.4000  -14.9300   15.7500 N.am      2 ALA2        0.0000 
      4 N           7.4500  -13.8600   15.2900 N.am      2 ALA2        0.0000 
      5 CA          5.9600  -17.2100   15.4700 C.3       3 GLY6        0.0000 
      6 CA          9.6900  -13.4400   16.5500 C.3       3 GLY6        0.0000 
@<TRIPOS>BOND
@<TRIPOS>SUBSTRUCTURE
     1 SER1        1 GROUP   
     2 ALA2        3 GROUP   
     3 GLY6        5 GROUP   
@<TRIPOS>SET

