#    Name: 5z4p_6_GTP_CAVITY_N1_8
#    Modification time : Fri May 22 19:35:20 2020

@<TRIPOS>MOLECULE
5z4p_6_GTP_CAVITY_N1_8
   28     0     6     0     0
SMALL
NO_CHARGES


@<TRIPOS>ATOM
      1 OG          7.2400  -15.7300   16.2700 O.3       1 SER1        0.0000 
      2 OG          9.4800  -15.3100   17.5300 O.3       1 SER1        0.0000 
      3 O           4.8000  -18.0100   15.9900 O.2       2 ALA2        0.0000 
      4 O           4.9300  -17.3300   17.3200 O.2       2 ALA2        0.0000 
      5 N           8.4000  -14.9300   15.7500 N.am      2 ALA2        0.0000 
      6 N           7.4500  -13.8600   15.2900 N.am      2 ALA2        0.0000 
      7 N           6.5000  -12.7900   14.8300 N.am      2 ALA2        0.0000 
      8 N           8.5300  -14.2400   17.0700 N.am      2 ALA2        0.0000 
      9 N           7.5800  -13.1700   16.6200 N.am      2 ALA2        0.0000 
     10 N           8.7400  -12.3800   16.0900 N.am      2 ALA2        0.0000 
     11 N           6.6400  -12.1000   16.1600 N.am      2 ALA2        0.0000 
     12 N           7.7900  -11.3100   15.6400 N.am      2 ALA2        0.0000 
     13 O           9.6100  -14.6300   18.8600 O.2       2 ALA2        0.0000 
     14 OD1         5.1400  -15.4600   16.3400 O.co2     3 ASP3        0.0000 
     15 OD1         5.3500  -13.5900   15.3600 O.co2     3 ASP3        0.0000 
     16 CZ          6.0900  -16.5300   16.8000 C.ar      4 PHE5        0.0000 
     17 CA          3.6500  -18.8100   16.5200 C.3       5 GLY6        0.0000 
     18 CA          5.9600  -17.2100   15.4700 C.3       5 GLY6        0.0000 
     19 CA          3.8500  -16.9400   15.5400 C.3       5 GLY6        0.0000 
     20 CA          6.3000  -14.6600   15.8200 C.3       5 GLY6        0.0000 
     21 CA          7.6600  -11.9900   14.3100 C.3       5 GLY6        0.0000 
     22 CA          8.3200  -16.1100   18.0600 C.3       5 GLY6        0.0000 
     23 CA          6.2200  -15.8400   18.1300 C.3       5 GLY6        0.0000 
     24 CA          7.3800  -15.0400   17.6000 C.3       5 GLY6        0.0000 
     25 CA          9.6900  -13.4400   16.5500 C.3       5 GLY6        0.0000 
     26 CA          8.6600  -13.5600   18.4000 C.3       5 GLY6        0.0000 
     27 CA          9.8200  -12.7600   17.8800 C.3       5 GLY6        0.0000 
     28 DU          6.4300  -13.9700   17.1400 H         6 CUB7        0.0000 
@<TRIPOS>BOND
@<TRIPOS>SUBSTRUCTURE
     1 SER1        1 GROUP   
     2 ALA2        3 GROUP   
     3 ASP3       14 GROUP   
     4 PHE5       16 GROUP   
     5 GLY6       17 GROUP   
     6 CUB7       28 GROUP   
@<TRIPOS>SET

