#    Name: 5z4p_5_GDP
#    Modification time : Fri May 22 19:35:11 2020

@<TRIPOS>MOLECULE
5z4p_5_GDP
   28    30     1     0     1
SMALL
NO_CHARGES


@<TRIPOS>ATOM
      1 PB         18.3530  -48.5270  -15.9000 P.3       1 GDP501      0.0000 
      2 O1B        18.8770  -49.2660  -17.1140 O.co2     1 GDP501      0.0000 
      3 O2B        18.0370  -49.5230  -14.8230 O.co2     1 GDP501      0.0000 
      4 O3B        19.3900  -47.5650  -15.3580 O.co2     1 GDP501      0.0000 
      5 O3A        17.0570  -47.6490  -16.2450 O.3       1 GDP501      0.0000 
      6 PA         15.7060  -48.1020  -17.0340 P.3       1 GDP501      0.0000 
      7 O1A        15.7260  -49.5120  -17.5930 O.co2     1 GDP501      0.0000 
      8 O2A        14.5480  -47.8120  -16.0940 O.co2     1 GDP501      0.0000 
      9 O5'        15.7160  -46.9920  -18.1790 O.3       1 GDP501      0.0000 
     10 C5'        14.6520  -46.0730  -18.3360 C.3       1 GDP501      0.0000 
     11 C4'        14.0400  -46.2410  -19.7220 C.3       1 GDP501      0.0000 
     12 O4'        13.5230  -47.5640  -19.8500 O.3       1 GDP501      0.0000 
     13 C3'        12.8550  -45.3220  -19.8380 C.3       1 GDP501      0.0000 
     14 O3'        12.7130  -44.9370  -21.1970 O.3       1 GDP501      0.0000 
     15 C2'        11.6650  -46.1720  -19.4900 C.3       1 GDP501      0.0000 
     16 O2'        10.5890  -45.7610  -20.3270 O.3       1 GDP501      0.0000 
     17 C1'        12.1050  -47.5270  -19.9680 C.3       1 GDP501      0.0000 
     18 N9         11.6330  -48.6920  -19.2140 N.pl3     1 GDP501      0.0000 
     19 C8         11.9280  -49.0010  -17.9470 C.2       1 GDP501      0.0000 
     20 N7         11.3730  -50.1940  -17.6210 N.2       1 GDP501      0.0000 
     21 C5         10.7320  -50.6650  -18.7120 C.2       1 GDP501      0.0000 
     22 C6          9.9480  -51.8670  -19.0630 C.2       1 GDP501      0.0000 
     23 O6          9.7380  -52.7690  -18.2270 O.2       1 GDP501      0.0000 
     24 N1          9.4600  -51.9640  -20.2990 N.am      1 GDP501      0.0000 
     25 C2          9.6720  -51.0250  -21.2260 C.2       1 GDP501      0.0000 
     26 N2          9.1370  -51.2190  -22.4550 N.pl3     1 GDP501      0.0000 
     27 N3         10.3820  -49.8930  -20.9760 N.2       1 GDP501      0.0000 
     28 C4         10.9240  -49.6740  -19.7610 C.2       1 GDP501      0.0000 
@<TRIPOS>BOND
     1    1    2 ar   
     2    1    3 ar   
     3    1    4 ar   
     4    1    5 1    
     5    5    6 1    
     6    6    7 ar   
     7    6    8 ar   
     8    6    9 1    
     9    9   10 1    
    10   10   11 1    
    11   11   12 1    
    12   11   13 1    
    13   12   17 1    
    14   13   14 1    
    15   13   15 1    
    16   15   16 1    
    17   15   17 1    
    18   17   18 1    
    19   18   19 1    
    20   18   28 1    
    21   19   20 2    
    22   20   21 1    
    23   21   22 1    
    24   21   28 2    
    25   22   23 2    
    26   22   24 am   
    27   24   25 1    
    28   25   26 1    
    29   25   27 2    
    30   27   28 1    
@<TRIPOS>SUBSTRUCTURE
     1 GDP501      1 GROUP   
@<TRIPOS>SET
ATOM$ORANGE STATIC     ATOMS   COLORGROUP SYSTEM 
20 10 10 11 11 13 13 15 15 17 17 19 19 21 21 22 22 25 \
25 28 28 

