#    Name: 5z4p_5_GDP_CAVITY_N1_6
#    Modification time : Fri May 22 19:35:12 2020

@<TRIPOS>MOLECULE
5z4p_5_GDP_CAVITY_N1_6
   50     0     6     0     0
SMALL
NO_CHARGES


@<TRIPOS>ATOM
      1 OG         13.7100  -47.9900  -18.5800 O.3       1 SER1        0.0000 
      2 OG         13.9200  -46.1200  -19.5600 O.3       1 SER1        0.0000 
      3 OG         10.6600  -46.6500  -18.9600 O.3       1 SER1        0.0000 
      4 OG         15.9500  -47.5800  -17.3200 O.3       1 SER1        0.0000 
      5 OG          5.6400  -44.3600  -17.9500 O.3       1 SER1        0.0000 
      6 O          11.4800  -48.4000  -19.8400 O.2       2 ALA2        0.0000 
      7 O          10.5300  -47.3300  -20.2900 O.2       2 ALA2        0.0000 
      8 O          11.6800  -46.5400  -20.8200 O.2       2 ALA2        0.0000 
      9 N           7.8600  -53.1700  -13.6400 N.am      2 ALA2        0.0000 
     10 O          10.3800  -49.7100  -15.6700 O.2       2 ALA2        0.0000 
     11 N          11.5300  -48.9100  -16.2000 N.am      2 ALA2        0.0000 
     12 O           6.7900  -43.5600  -18.4800 O.2       2 ALA2        0.0000 
     13 O           5.8500  -42.4900  -18.9300 O.2       2 ALA2        0.0000 
     14 O           9.3500  -49.8200  -13.8200 O.2       2 ALA2        0.0000 
     15 O          10.5100  -49.0200  -14.3400 O.2       2 ALA2        0.0000 
     16 N           6.9300  -42.8800  -17.1500 N.am      2 ALA2        0.0000 
     17 O           9.4800  -49.1400  -12.4900 O.2       2 ALA2        0.0000 
     18 O           9.6900  -47.2700  -13.4700 O.2       2 ALA2        0.0000 
     19 O          14.7700  -50.0700  -10.8400 O.2       2 ALA2        0.0000 
     20 O          10.7700  -47.6600  -11.6900 O.2       2 ALA2        0.0000 
     21 N          11.9300  -46.8600  -12.2100 N.am      2 ALA2        0.0000 
     22 O          13.0100  -47.2400  -10.4300 O.2       2 ALA2        0.0000 
     23 OD1        14.7900  -48.3800  -16.7900 O.co2     3 ASP3        0.0000 
     24 NZ         12.7600  -46.9200  -19.0300 N.4       4 LYS4        0.0000 
     25 NZ         11.8200  -45.8500  -19.4900 N.4       4 LYS4        0.0000 
     26 NZ         12.9700  -45.0500  -20.0200 N.4       4 LYS4        0.0000 
     27 NZ         12.6900  -48.1100  -16.7200 N.4       4 LYS4        0.0000 
     28 NZ         13.8400  -47.3100  -17.2500 N.4       4 LYS4        0.0000 
     29 NZ         15.0000  -46.5100  -17.7700 N.4       4 LYS4        0.0000 
     30 NZ         14.0500  -45.4400  -18.2300 N.4       4 LYS4        0.0000 
     31 NZ         10.7200  -47.1500  -15.3200 N.4       4 LYS4        0.0000 
     32 NZ         10.8500  -46.4700  -14.0000 N.4       4 LYS4        0.0000 
     33 NZ         10.9800  -45.7900  -12.6700 N.4       4 LYS4        0.0000 
     34 NZ         15.1100  -47.5100  -10.5000 N.4       4 LYS4        0.0000 
     35 NZ         17.5500  -45.2300  -10.2200 N.4       4 LYS4        0.0000 
     36 CZ         10.4500  -48.5200  -17.9800 C.ar      5 PHE5        0.0000 
     37 CZ         11.6100  -47.7200  -18.5100 C.ar      5 PHE5        0.0000 
     38 CZ          5.3000  -46.9100  -18.3000 C.ar      5 PHE5        0.0000 
     39 CZ          8.0700  -51.3100  -14.6200 C.ar      5 PHE5        0.0000 
     40 CZ          5.9600  -51.0300  -14.5500 C.ar      5 PHE5        0.0000 
     41 CZ         10.5800  -47.8400  -16.6500 C.ar      5 PHE5        0.0000 
     42 CZ          8.2000  -50.6200  -13.2900 C.ar      5 PHE5        0.0000 
     43 CZ          7.2500  -49.5500  -13.7500 C.ar      5 PHE5        0.0000 
     44 CZ          8.4100  -48.7500  -14.2700 C.ar      5 PHE5        0.0000 
     45 CZ          9.5600  -47.9500  -14.8000 C.ar      5 PHE5        0.0000 
     46 CZ          8.5400  -48.0700  -12.9400 C.ar      5 PHE5        0.0000 
     47 CZ          8.7400  -46.2000  -13.9300 C.ar      5 PHE5        0.0000 
     48 CA         12.6300  -47.6100  -20.3600 C.3       6 GLY6        0.0000 
     49 CA         14.6600  -49.0600  -18.1200 C.3       6 GLY6        0.0000 
     50 CA         11.4000  -49.5900  -17.5300 C.3       6 GLY6        0.0000 
@<TRIPOS>BOND
@<TRIPOS>SUBSTRUCTURE
     1 SER1        1 GROUP   
     2 ALA2        6 GROUP   
     3 ASP3       23 GROUP   
     4 LYS4       24 GROUP   
     5 PHE5       36 GROUP   
     6 GLY6       48 GROUP   
@<TRIPOS>SET

