#    Name: 5z4p_6_GTP
#    Modification time : Fri May 22 19:35:19 2020

@<TRIPOS>MOLECULE
5z4p_6_GTP
   32    34     1     0     1
SMALL
NO_CHARGES


@<TRIPOS>ATOM
      1 PG         20.0700  -18.1130   16.8050 P.3       1 GTP503      0.0000 
      2 O1G        20.2400  -16.6340   16.5440 O.co2     1 GTP503      0.0000 
      3 O2G        21.4270  -18.6630   17.2130 O.co2     1 GTP503      0.0000 
      4 O3G        19.0420  -18.3490   17.8940 O.co2     1 GTP503      0.0000 
      5 O3B        19.6610  -18.9150   15.4740 O.3       1 GTP503      0.0000 
      6 PB         18.4030  -19.9200   15.3700 P.3       1 GTP503      0.0000 
      7 O1B        18.6860  -21.0440   14.4140 O.co2     1 GTP503      0.0000 
      8 O2B        17.8580  -20.4120   16.6890 O.co2     1 GTP503      0.0000 
      9 O3A        17.3810  -18.8900   14.6990 O.3       1 GTP503      0.0000 
     10 PA         15.8640  -19.2720   14.3650 P.3       1 GTP503      0.0000 
     11 O1A        15.7590  -20.7450   14.0530 O.co2     1 GTP503      0.0000 
     12 O2A        14.9640  -18.8440   15.5230 O.co2     1 GTP503      0.0000 
     13 O5'        15.7130  -18.3500   13.0530 O.3       1 GTP503      0.0000 
     14 C5'        14.8290  -17.2530   12.9840 C.3       1 GTP503      0.0000 
     15 C4'        13.8610  -17.5210   11.8470 C.3       1 GTP503      0.0000 
     16 O4'        13.3550  -18.8330   11.9640 O.3       1 GTP503      0.0000 
     17 C3'        12.6720  -16.6160   11.8910 C.3       1 GTP503      0.0000 
     18 O3'        12.4300  -16.2850   10.5520 O.3       1 GTP503      0.0000 
     19 C2'        11.5600  -17.4900   12.4220 C.3       1 GTP503      0.0000 
     20 O2'        10.3210  -17.1020   11.8850 O.3       1 GTP503      0.0000 
     21 C1'        11.9460  -18.8710   11.9480 C.3       1 GTP503      0.0000 
     22 N9         11.5440  -19.9340   12.8880 N.pl3     1 GTP503      0.0000 
     23 C8         12.0120  -20.1070   14.1710 C.2       1 GTP503      0.0000 
     24 N7         11.4070  -21.2020   14.6900 N.2       1 GTP503      0.0000 
     25 C5         10.5690  -21.7470   13.7570 C.2       1 GTP503      0.0000 
     26 C6          9.7160  -22.8610   13.7530 C.2       1 GTP503      0.0000 
     27 O6          9.5970  -23.6150   14.7250 O.2       1 GTP503      0.0000 
     28 N1          8.9780  -23.1460   12.6300 N.am      1 GTP503      0.0000 
     29 C2          9.0670  -22.3410   11.5070 C.2       1 GTP503      0.0000 
     30 N2          8.3500  -22.6300   10.4140 N.pl3     1 GTP503      0.0000 
     31 N3          9.9110  -21.2420   11.5270 N.2       1 GTP503      0.0000 
     32 C4         10.6490  -20.9500   12.6220 C.2       1 GTP503      0.0000 
@<TRIPOS>BOND
     1    1    2 ar   
     2    1    3 ar   
     3    1    4 ar   
     4    1    5 1    
     5    5    6 1    
     6    6    7 ar   
     7    6    8 ar   
     8    6    9 1    
     9    9   10 1    
    10   10   11 ar   
    11   10   12 ar   
    12   10   13 1    
    13   13   14 1    
    14   14   15 1    
    15   15   16 1    
    16   15   17 1    
    17   16   21 1    
    18   17   18 1    
    19   17   19 1    
    20   19   20 1    
    21   19   21 1    
    22   21   22 1    
    23   22   23 1    
    24   22   32 1    
    25   23   24 2    
    26   24   25 1    
    27   25   26 1    
    28   25   32 2    
    29   26   27 2    
    30   26   28 am   
    31   28   29 1    
    32   29   30 1    
    33   29   31 2    
    34   31   32 1    
@<TRIPOS>SUBSTRUCTURE
     1 GTP503      1 GROUP   
@<TRIPOS>SET
ATOM$ORANGE STATIC     ATOMS   COLORGROUP SYSTEM 
20 14 14 15 15 17 17 19 19 21 21 23 23 25 25 26 26 29 \
29 32 32 

