#    Name: 6mdn_7_ATP
#    Modification time : Fri May 22 19:31:27 2020

@<TRIPOS>MOLECULE
6mdn_7_ATP
   43    45     1     0     1
SMALL
NO_CHARGES


@<TRIPOS>ATOM
      1 PG        162.5320  174.8100  203.7970 P.3       1 ATP801      0.0000 
      2 O1G       162.6530  174.0410  202.5150 O.co2     1 ATP801      0.0000 
      3 O2G       161.1780  175.3890  204.0840 O.co2     1 ATP801      0.0000 
      4 O3G       163.2410  174.1890  204.9680 O.co2     1 ATP801      0.0000 
      5 PB        164.9050  175.8740  203.1690 P.3       1 ATP801      0.0000 
      6 O1B       164.8960  175.1690  201.8460 O.co2     1 ATP801      0.0000 
      7 O2B       165.6520  175.3040  204.3420 O.co2     1 ATP801      0.0000 
      8 O3B       163.3970  176.1200  203.5790 O.3       1 ATP801      0.0000 
      9 PA        165.2510  178.0650  201.5140 P.3       1 ATP801      0.0000 
     10 O1A       166.0530  177.1500  200.6270 O.co2     1 ATP801      0.0000 
     11 O2A       163.8040  178.3850  201.2790 O.co2     1 ATP801      0.0000 
     12 O3A       165.3860  177.3730  202.9450 O.3       1 ATP801      0.0000 
     13 O5'       166.2020  179.3320  201.8170 O.3       1 ATP801      0.0000 
     14 C5'       167.1210  179.7400  200.8060 C.3       1 ATP801      0.0000 
     15 C4'       167.8390  181.0650  201.0790 C.3       1 ATP801      0.0000 
     16 O4'       168.7960  180.9840  202.1300 O.3       1 ATP801      0.0000 
     17 C3'       168.6040  181.5900  199.8690 C.3       1 ATP801      0.0000 
     18 O3'       167.9870  182.7600  199.3330 O.3       1 ATP801      0.0000 
     19 C2'       169.9730  181.9500  200.3870 C.3       1 ATP801      0.0000 
     20 O2'       170.5110  183.1710  199.9190 O.3       1 ATP801      0.0000 
     21 C1'       169.7280  182.0200  201.8550 C.3       1 ATP801      0.0000 
     22 N9        171.0030  181.9100  202.5470 N.pl3     1 ATP801      0.0000 
     23 C8        171.9100  182.8750  202.6100 C.2       1 ATP801      0.0000 
     24 N7        172.9880  182.4890  203.3250 N.2       1 ATP801      0.0000 
     25 C5        172.7500  181.2360  203.7120 C.ar      1 ATP801      0.0000 
     26 C6        173.4470  180.2260  204.5030 C.ar      1 ATP801      0.0000 
     27 N6        174.6530  180.4640  205.0260 N.pl3     1 ATP801      0.0000 
     28 N1        172.8510  179.0500  204.6840 N.ar      1 ATP801      0.0000 
     29 C2        171.6460  178.7920  204.1790 C.ar      1 ATP801      0.0000 
     30 N3        170.9430  179.6570  203.4500 N.ar      1 ATP801      0.0000 
     31 C4        171.4400  180.8680  203.1980 C.ar      1 ATP801      0.0000 
     32 H5'1      166.5750  179.8120  199.8730 H         1 ATP801      0.0000 
     33 H5'2      167.8570  178.9500  200.6840 H         1 ATP801      0.0000 
     34 H4'       167.0950  181.8170  201.3530 H         1 ATP801      0.0000 
     35 H3'       168.6980  180.8060  199.1150 H         1 ATP801      0.0000 
     36 HO3'      168.4510  183.0310  198.5290 H         1 ATP801      0.0000 
     37 H2'       170.6740  181.1320  200.2180 H         1 ATP801      0.0000 
     38 HO2'      170.6950  183.0950  198.9730 H         1 ATP801      0.0000 
     39 H1'       169.2680  182.9880  202.0610 H         1 ATP801      0.0000 
     40 H8        171.7950  183.8370  202.1460 H         1 ATP801      0.0000 
     41 HN61      175.0880  181.3590  204.8790 H         1 ATP801      0.0000 
     42 HN62      175.1130  179.7440  205.5590 H         1 ATP801      0.0000 
     43 H2        171.2420  177.8120  204.3550 H         1 ATP801      0.0000 
@<TRIPOS>BOND
     1    1    2 ar   
     2    1    3 ar   
     3    1    4 ar   
     4    1    8 1    
     5    5    6 ar   
     6    5    7 ar   
     7    5    8 1    
     8    5   12 1    
     9    9   10 ar   
    10    9   11 ar   
    11    9   12 1    
    12    9   13 1    
    13   13   14 1    
    14   14   15 1    
    15   14   32 1    
    16   14   33 1    
    17   15   16 1    
    18   15   17 1    
    19   15   34 1    
    20   16   21 1    
    21   17   18 1    
    22   17   19 1    
    23   17   35 1    
    24   18   36 1    
    25   19   20 1    
    26   19   21 1    
    27   19   37 1    
    28   20   38 1    
    29   21   22 1    
    30   21   39 1    
    31   22   23 1    
    32   22   31 1    
    33   23   24 2    
    34   23   40 1    
    35   24   25 1    
    36   25   26 ar   
    37   25   31 ar   
    38   26   27 1    
    39   26   28 ar   
    40   27   41 1    
    41   27   42 1    
    42   28   29 ar   
    43   29   30 ar   
    44   29   43 1    
    45   30   31 ar   
@<TRIPOS>SUBSTRUCTURE
     1 ATP801      1 GROUP   
@<TRIPOS>SET
ATOM$ORANGE STATIC     ATOMS   COLORGROUP SYSTEM 
20 14 14 15 15 17 17 19 19 21 21 23 23 25 25 26 26 29 \
29 31 31 

