#    Name: 6mdn_4_ATP
#    Modification time : Fri May 22 19:30:23 2020

@<TRIPOS>MOLECULE
6mdn_4_ATP
   43    45     1     0     1
SMALL
NO_CHARGES


@<TRIPOS>ATOM
      1 PG        113.8300  156.6230  206.0060 P.3       1 ATP802      0.0000 
      2 O1G       114.2710  156.6060  204.5710 O.co2     1 ATP802      0.0000 
      3 O2G       113.8780  155.2970  206.7110 O.co2     1 ATP802      0.0000 
      4 O3G       114.2740  157.7890  206.8330 O.co2     1 ATP802      0.0000 
      5 PB        111.6490  158.1930  205.3510 P.3       1 ATP802      0.0000 
      6 O1B       112.1610  158.5190  203.9780 O.co2     1 ATP802      0.0000 
      7 O2B       111.6840  159.1370  206.5170 O.co2     1 ATP802      0.0000 
      8 O3B       112.2610  156.8170  205.8700 O.3       1 ATP802      0.0000 
      9 PA        109.3690  157.6530  203.8400 P.3       1 ATP802      0.0000 
     10 O1A       109.9000  156.5700  202.9420 O.co2     1 ATP802      0.0000 
     11 O2A       109.2580  159.1050  203.4430 O.co2     1 ATP802      0.0000 
     12 O3A       110.1740  157.5840  205.2220 O.3       1 ATP802      0.0000 
     13 O5'       107.9240  157.2520  204.4080 O.3       1 ATP802      0.0000 
     14 C5'       106.8910  157.0130  203.4910 C.3       1 ATP802      0.0000 
     15 C4'       105.6560  156.3450  204.0390 C.3       1 ATP802      0.0000 
     16 O4'       105.2740  157.0370  205.2230 O.3       1 ATP802      0.0000 
     17 C3'       104.5360  156.4700  203.0130 C.3       1 ATP802      0.0000 
     18 O3'       103.6360  155.3740  202.9090 O.3       1 ATP802      0.0000 
     19 C2'       103.8140  157.6630  203.5480 C.3       1 ATP802      0.0000 
     20 O2'       102.4500  157.7630  203.1680 O.3       1 ATP802      0.0000 
     21 C1'       103.9690  157.5580  205.0400 C.3       1 ATP802      0.0000 
     22 N9        103.9010  158.9180  205.5280 N.pl3     1 ATP802      0.0000 
     23 C8        104.8700  159.8110  205.3900 C.2       1 ATP802      0.0000 
     24 N7        104.5560  160.9800  205.9640 N.2       1 ATP802      0.0000 
     25 C5        103.3640  160.7800  206.5160 C.ar      1 ATP802      0.0000 
     26 C6        102.4420  161.5850  207.2840 C.ar      1 ATP802      0.0000 
     27 N6        102.8000  162.8440  207.5480 N.pl3     1 ATP802      0.0000 
     28 N1        101.2910  161.0210  207.6850 N.ar      1 ATP802      0.0000 
     29 C2        100.9990  159.7420  207.3960 C.ar      1 ATP802      0.0000 
     30 N3        101.7950  158.9510  206.6840 N.ar      1 ATP802      0.0000 
     31 C4        102.9630  159.4140  206.2580 C.ar      1 ATP802      0.0000 
     32 H5'1      107.3010  156.3850  202.7040 H         1 ATP802      0.0000 
     33 H5'2      106.5970  157.9530  203.0680 H         1 ATP802      0.0000 
     34 H4'       105.8810  155.3000  204.2630 H         1 ATP802      0.0000 
     35 H3'       104.9470  156.7350  202.0370 H         1 ATP802      0.0000 
     36 HO3'      103.1530  155.4810  202.0770 H         1 ATP802      0.0000 
     37 H2'       104.3320  158.5170  203.1260 H         1 ATP802      0.0000 
     38 HO2'      102.4130  157.6050  202.2210 H         1 ATP802      0.0000 
     39 H1'       103.1900  156.9380  205.4740 H         1 ATP802      0.0000 
     40 H8        105.7580  159.5930  204.8290 H         1 ATP802      0.0000 
     41 HN61      103.6840  163.1670  207.1980 H         1 ATP802      0.0000 
     42 HN62      102.2010  163.4500  208.0800 H         1 ATP802      0.0000 
     43 H2        100.0640  159.3320  207.7350 H         1 ATP802      0.0000 
@<TRIPOS>BOND
     1    1    2 ar   
     2    1    3 ar   
     3    1    4 ar   
     4    1    8 1    
     5    5    6 ar   
     6    5    7 ar   
     7    5    8 1    
     8    5   12 1    
     9    9   10 ar   
    10    9   11 ar   
    11    9   12 1    
    12    9   13 1    
    13   13   14 1    
    14   14   15 1    
    15   14   32 1    
    16   14   33 1    
    17   15   16 1    
    18   15   17 1    
    19   15   34 1    
    20   16   21 1    
    21   17   18 1    
    22   17   19 1    
    23   17   35 1    
    24   18   36 1    
    25   19   20 1    
    26   19   21 1    
    27   19   37 1    
    28   20   38 1    
    29   21   22 1    
    30   21   39 1    
    31   22   23 1    
    32   22   31 1    
    33   23   24 2    
    34   23   40 1    
    35   24   25 1    
    36   25   26 ar   
    37   25   31 ar   
    38   26   27 1    
    39   26   28 ar   
    40   27   41 1    
    41   27   42 1    
    42   28   29 ar   
    43   29   30 ar   
    44   29   43 1    
    45   30   31 ar   
@<TRIPOS>SUBSTRUCTURE
     1 ATP802      1 GROUP   
@<TRIPOS>SET
ATOM$ORANGE STATIC     ATOMS   COLORGROUP SYSTEM 
20 14 14 15 15 17 17 19 19 21 21 23 23 25 25 26 26 29 \
29 31 31 

