#    Name: 6mdn_3_ATP
#    Modification time : Fri May 22 19:30:02 2020

@<TRIPOS>MOLECULE
6mdn_3_ATP
   43    45     1     0     1
SMALL
NO_CHARGES


@<TRIPOS>ATOM
      1 PG        121.7820  166.8590  169.6680 P.3       1 ATP801      0.0000 
      2 O1G       122.6760  165.9920  168.8260 O.co2     1 ATP801      0.0000 
      3 O2G       122.4800  167.8710  170.5200 O.co2     1 ATP801      0.0000 
      4 O3G       120.6570  166.1350  170.3590 O.co2     1 ATP801      0.0000 
      5 PB        119.5900  168.3200  169.0220 P.3       1 ATP801      0.0000 
      6 O1B       118.5850  167.2200  169.0720 O.co2     1 ATP801      0.0000 
      7 O2B       119.8520  169.1750  170.2280 O.co2     1 ATP801      0.0000 
      8 O3B       120.9680  167.6640  168.5650 O.3       1 ATP801      0.0000 
      9 PA        118.3770  168.7840  166.6020 P.3       1 ATP801      0.0000 
     10 O1A       118.5120  169.8470  165.5450 O.co2     1 ATP801      0.0000 
     11 O2A       118.7380  167.3540  166.3020 O.co2     1 ATP801      0.0000 
     12 O3A       119.3180  169.2860  167.7870 O.3       1 ATP801      0.0000 
     13 O5'       116.8530  168.8390  167.0730 O.3       1 ATP801      0.0000 
     14 C5'       115.9100  168.6790  166.0300 C.3       1 ATP801      0.0000 
     15 C4'       114.5180  168.9770  166.4950 C.3       1 ATP801      0.0000 
     16 O4'       114.2890  170.3540  166.7420 O.3       1 ATP801      0.0000 
     17 C3'       113.5490  168.5990  165.4210 C.3       1 ATP801      0.0000 
     18 O3'       113.0480  167.2970  165.6730 O.3       1 ATP801      0.0000 
     19 C2'       112.4660  169.6280  165.5210 C.3       1 ATP801      0.0000 
     20 O2'       111.2070  169.0210  165.7490 O.3       1 ATP801      0.0000 
     21 C1'       112.8890  170.5020  166.6760 C.3       1 ATP801      0.0000 
     22 N9        112.4920  171.8930  166.4710 N.pl3     1 ATP801      0.0000 
     23 C8        111.4060  172.3430  165.8380 C.2       1 ATP801      0.0000 
     24 N7        111.3600  173.6850  165.8700 N.2       1 ATP801      0.0000 
     25 C5        112.4330  174.0850  166.5400 C.ar      1 ATP801      0.0000 
     26 C6        112.9630  175.3710  166.9600 C.ar      1 ATP801      0.0000 
     27 N6        112.3350  176.5000  166.6180 N.pl3     1 ATP801      0.0000 
     28 N1        114.0880  175.3810  167.6750 N.ar      1 ATP801      0.0000 
     29 C2        114.7120  174.2510  168.0110 C.ar      1 ATP801      0.0000 
     30 N3        114.2680  173.0360  167.6760 N.ar      1 ATP801      0.0000 
     31 C4        113.1400  172.9030  166.9790 C.ar      1 ATP801      0.0000 
     32 H5'1      115.9330  167.6760  165.6150 H         1 ATP801      0.0000 
     33 H5'2      116.1490  169.3580  165.2210 H         1 ATP801      0.0000 
     34 H4'       114.3010  168.3990  167.3880 H         1 ATP801      0.0000 
     35 H3'       114.0480  168.6630  164.4540 H         1 ATP801      0.0000 
     36 HO3'      112.5340  167.0200  164.9090 H         1 ATP801      0.0000 
     37 H2'       112.4800  170.1870  164.5840 H         1 ATP801      0.0000 
     38 HO2'      110.9030  168.6300  164.9230 H         1 ATP801      0.0000 
     39 H1'       112.4600  170.1170  167.6000 H         1 ATP801      0.0000 
     40 H8        110.6860  171.7160  165.3380 H         1 ATP801      0.0000 
     41 HN61      111.4890  176.4460  166.0790 H         1 ATP801      0.0000 
     42 HN62      112.7090  177.3890  166.9000 H         1 ATP801      0.0000 
     43 H2        115.6200  174.3220  168.5940 H         1 ATP801      0.0000 
@<TRIPOS>BOND
     1    1    2 ar   
     2    1    3 ar   
     3    1    4 ar   
     4    1    8 1    
     5    5    6 ar   
     6    5    7 ar   
     7    5    8 1    
     8    5   12 1    
     9    9   10 ar   
    10    9   11 ar   
    11    9   12 1    
    12    9   13 1    
    13   13   14 1    
    14   14   15 1    
    15   14   32 1    
    16   14   33 1    
    17   15   16 1    
    18   15   17 1    
    19   15   34 1    
    20   16   21 1    
    21   17   18 1    
    22   17   19 1    
    23   17   35 1    
    24   18   36 1    
    25   19   20 1    
    26   19   21 1    
    27   19   37 1    
    28   20   38 1    
    29   21   22 1    
    30   21   39 1    
    31   22   23 1    
    32   22   31 1    
    33   23   24 2    
    34   23   40 1    
    35   24   25 1    
    36   25   26 ar   
    37   25   31 ar   
    38   26   27 1    
    39   26   28 ar   
    40   27   41 1    
    41   27   42 1    
    42   28   29 ar   
    43   29   30 ar   
    44   29   43 1    
    45   30   31 ar   
@<TRIPOS>SUBSTRUCTURE
     1 ATP801      1 GROUP   
@<TRIPOS>SET
ATOM$ORANGE STATIC     ATOMS   COLORGROUP SYSTEM 
20 14 14 15 15 17 17 19 19 21 21 23 23 25 25 26 26 29 \
29 31 31 

