#    Name: 6mdn_10_ADP
#    Modification time : Fri May 22 19:32:25 2020

@<TRIPOS>MOLECULE
6mdn_10_ADP
   39    41     1     0     1
SMALL
NO_CHARGES


@<TRIPOS>ATOM
      1 PB        173.5310  132.2010  163.3610 P.3       1 ADP802      0.0000 
      2 O1B       173.7550  132.6760  161.9580 O.co2     1 ADP802      0.0000 
      3 O2B       172.8160  133.1530  164.2810 O.co2     1 ADP802      0.0000 
      4 O3B       173.0070  130.8070  163.3400 O.co2     1 ADP802      0.0000 
      5 PA        175.9300  130.8720  163.3710 P.3       1 ADP802      0.0000 
      6 O1A       175.8980  131.0790  161.8800 O.co2     1 ADP802      0.0000 
      7 O2A       175.5650  129.5350  163.9210 O.co2     1 ADP802      0.0000 
      8 O3A       175.0080  132.0440  163.9660 O.3       1 ADP802      0.0000 
      9 O5'       177.3760  131.2020  163.9710 O.3       1 ADP802      0.0000 
     10 C5'       178.4880  130.9100  163.1510 C.3       1 ADP802      0.0000 
     11 C4'       179.7340  131.5900  163.6670 C.3       1 ADP802      0.0000 
     12 O4'       180.4070  130.8930  164.7330 O.3       1 ADP802      0.0000 
     13 C3'       180.7200  131.6910  162.5350 C.3       1 ADP802      0.0000 
     14 O3'       180.7340  132.9870  161.9420 O.3       1 ADP802      0.0000 
     15 C2'       182.0490  131.3540  163.1320 C.3       1 ADP802      0.0000 
     16 O2'       182.9760  132.4380  163.0500 O.3       1 ADP802      0.0000 
     17 C1'       181.8380  130.9930  164.6010 C.3       1 ADP802      0.0000 
     18 N9        182.4740  129.7100  164.9440 N.pl3     1 ADP802      0.0000 
     19 C8        183.6960  129.3610  164.5190 C.2       1 ADP802      0.0000 
     20 N7        184.0210  128.1280  164.9150 N.2       1 ADP802      0.0000 
     21 C5        183.0100  127.6810  165.6440 C.ar      1 ADP802      0.0000 
     22 C6        182.7460  126.4410  166.3600 C.ar      1 ADP802      0.0000 
     23 N6        183.6610  125.4550  166.3830 N.pl3     1 ADP802      0.0000 
     24 N1        181.5820  126.3300  167.0000 N.ar      1 ADP802      0.0000 
     25 C2        180.6850  127.3170  166.9740 C.ar      1 ADP802      0.0000 
     26 N3        180.8460  128.4780  166.3290 N.ar      1 ADP802      0.0000 
     27 C4        181.9710  128.7040  165.6370 C.ar      1 ADP802      0.0000 
     28 H5'1      178.2820  131.3100  162.1630 H         1 ADP802      0.0000 
     29 H5'2      178.6370  129.8460  163.0410 H         1 ADP802      0.0000 
     30 H4'       179.4590  132.5720  164.0180 H         1 ADP802      0.0000 
     31 H3'       180.4830  130.9210  161.7930 H         1 ADP802      0.0000 
     32 HO3'      181.3920  132.9940  161.2340 H         1 ADP802      0.0000 
     33 H2'       182.3840  130.5230  162.5130 H         1 ADP802      0.0000 
     34 HO2'      183.5370  132.3160  162.2760 H         1 ADP802      0.0000 
     35 H1'       182.2340  131.7860  165.2380 H         1 ADP802      0.0000 
     36 H8        184.3160  129.9750  163.8860 H         1 ADP802      0.0000 
     37 HN61      183.4730  124.6080  166.8820 H         1 ADP802      0.0000 
     38 HN62      184.5340  125.5690  165.8990 H         1 ADP802      0.0000 
     39 H2        179.7740  127.1530  167.5060 H         1 ADP802      0.0000 
@<TRIPOS>BOND
     1    1    2 ar   
     2    1    3 ar   
     3    1    4 ar   
     4    1    8 1    
     5    5    6 ar   
     6    5    7 ar   
     7    5    8 1    
     8    5    9 1    
     9    9   10 1    
    10   10   11 1    
    11   10   28 1    
    12   10   29 1    
    13   11   12 1    
    14   11   13 1    
    15   11   30 1    
    16   12   17 1    
    17   13   14 1    
    18   13   15 1    
    19   13   31 1    
    20   14   32 1    
    21   15   16 1    
    22   15   17 1    
    23   15   33 1    
    24   16   34 1    
    25   17   18 1    
    26   17   35 1    
    27   18   19 1    
    28   18   27 1    
    29   19   20 2    
    30   19   36 1    
    31   20   21 1    
    32   21   22 ar   
    33   21   27 ar   
    34   22   23 1    
    35   22   24 ar   
    36   23   37 1    
    37   23   38 1    
    38   24   25 ar   
    39   25   26 ar   
    40   25   39 1    
    41   26   27 ar   
@<TRIPOS>SUBSTRUCTURE
     1 ADP802      1 GROUP   
@<TRIPOS>SET
ATOM$ORANGE STATIC     ATOMS   COLORGROUP SYSTEM 
20 10 10 11 11 13 13 15 15 17 17 19 19 21 21 22 22 25 \
25 27 27 

