#    Name: 6mdn_7_ATP_CAVITY_N1_4
#    Modification time : Fri May 22 19:31:29 2020

@<TRIPOS>MOLECULE
6mdn_7_ATP_CAVITY_N1_4
   69     0     7     0     0
SMALL
NO_CHARGES


@<TRIPOS>ATOM
      1 OG        161.0600  171.3900  204.9400 O.3       1 SER1        0.0000 
      2 OG        160.5600  176.3400  205.0500 O.3       1 SER1        0.0000 
      3 OG        162.1200  177.4300  204.1100 O.3       1 SER1        0.0000 
      4 N         158.0400  174.3100  203.3100 N.am      2 ALA2        0.0000 
      5 O         158.3700  173.3900  205.1900 O.2       2 ALA2        0.0000 
      6 O         164.4700  176.3500  201.9800 O.2       2 ALA2        0.0000 
      7 O         159.0000  175.2500  205.9900 O.2       2 ALA2        0.0000 
      8 O         161.9700  176.0400  204.6500 O.2       2 ALA2        0.0000 
      9 O         161.8300  174.6500  205.2000 O.2       2 ALA2        0.0000 
     10 O         163.3900  175.7300  204.2600 O.2       2 ALA2        0.0000 
     11 O         163.2400  174.3400  204.8000 O.2       2 ALA2        0.0000 
     12 O         165.1000  178.2100  202.7800 O.2       2 ALA2        0.0000 
     13 O         164.9500  176.8200  203.3200 O.2       2 ALA2        0.0000 
     14 O         164.8000  175.4300  203.8600 O.2       2 ALA2        0.0000 
     15 O         164.6600  174.0400  204.4000 O.2       2 ALA2        0.0000 
     16 O         166.2200  175.1300  203.4600 O.2       2 ALA2        0.0000 
     17 O         166.0700  173.7300  204.0100 O.2       2 ALA2        0.0000 
     18 OD1       159.9000  178.1800  201.2800 O.co2     3 ASP3        0.0000 
     19 OD1       159.4600  174.0100  202.9100 O.co2     3 ASP3        0.0000 
     20 OD1       159.3100  172.6100  203.4500 O.co2     3 ASP3        0.0000 
     21 OD1       161.0200  175.0900  201.9700 O.co2     3 ASP3        0.0000 
     22 OD1       160.8700  173.7000  202.5100 O.co2     3 ASP3        0.0000 
     23 OD1       160.7300  172.3100  203.0500 O.co2     3 ASP3        0.0000 
     24 OD1       162.5800  176.1800  201.0300 O.co2     3 ASP3        0.0000 
     25 OD1       162.4300  174.7900  201.5700 O.co2     3 ASP3        0.0000 
     26 OD1       164.1400  177.2700  200.0900 O.co2     3 ASP3        0.0000 
     27 OD1       161.6400  176.9600  202.7700 O.co2     3 ASP3        0.0000 
     28 OD1       163.0600  176.6500  202.3700 O.co2     3 ASP3        0.0000 
     29 OD1       164.6200  177.7400  201.4400 O.co2     3 ASP3        0.0000 
     30 OD1       164.5100  172.6500  204.9400 O.co2     3 ASP3        0.0000 
     31 OD1       165.1300  174.5100  205.7400 O.co2     3 ASP3        0.0000 
     32 NZ        163.3700  174.0100  199.8400 N.4       4 LYS4        0.0000 
     33 NZ        160.5800  170.9200  203.5900 N.4       4 LYS4        0.0000 
     34 NZ        162.2900  173.4000  202.1200 N.4       4 LYS4        0.0000 
     35 NZ        161.2000  172.7800  204.4000 N.4       4 LYS4        0.0000 
     36 NZ        162.7600  173.8700  203.4600 N.4       4 LYS4        0.0000 
     37 NZ        162.6200  172.4800  204.0000 N.4       4 LYS4        0.0000 
     38 NZ        162.4700  171.0900  204.5400 N.4       4 LYS4        0.0000 
     39 NZ        164.1800  173.5700  203.0600 N.4       4 LYS4        0.0000 
     40 NZ        165.4500  171.8700  203.2100 N.4       4 LYS4        0.0000 
     41 CZ        158.6700  176.1700  204.1100 C.ar      5 PHE5        0.0000 
     42 CZ        160.2300  177.2600  203.1700 C.ar      5 PHE5        0.0000 
     43 CZ        160.0800  175.8700  203.7100 C.ar      5 PHE5        0.0000 
     44 CA        158.3400  177.0900  202.2200 C.3       6 GLY6        0.0000 
     45 CA        158.1900  175.7000  202.7600 C.3       6 GLY6        0.0000 
     46 CA        159.7500  176.7900  201.8300 C.3       6 GLY6        0.0000 
     47 CA        159.6000  175.4000  202.3700 C.3       6 GLY6        0.0000 
     48 CA        161.1700  176.4800  201.4300 C.3       6 GLY6        0.0000 
     49 CA        164.0000  175.8800  200.6400 C.3       6 GLY6        0.0000 
     50 CA        163.8500  174.4900  201.1800 C.3       6 GLY6        0.0000 
     51 CA        165.5600  176.9600  199.7000 C.3       6 GLY6        0.0000 
     52 CA        165.1200  172.7900  201.3200 C.3       6 GLY6        0.0000 
     53 CA        164.3300  174.9600  202.5200 C.3       6 GLY6        0.0000 
     54 CA        166.0300  177.4400  201.0400 C.3       6 GLY6        0.0000 
     55 CA        165.8900  176.0400  201.5800 C.3       6 GLY6        0.0000 
     56 CA        165.7400  174.6500  202.1200 C.3       6 GLY6        0.0000 
     57 CA        165.5900  173.2600  202.6600 C.3       6 GLY6        0.0000 
     58 CA        167.4500  177.1300  200.6400 C.3       6 GLY6        0.0000 
     59 CA        160.4100  174.9500  205.5900 C.3       6 GLY6        0.0000 
     60 CA        160.2700  173.5600  206.1300 C.3       6 GLY6        0.0000 
     61 CA        161.6800  173.2500  205.7400 C.3       6 GLY6        0.0000 
     62 CA        163.5400  177.1200  203.7200 C.3       6 GLY6        0.0000 
     63 CA        163.0900  172.9500  205.3400 C.3       6 GLY6        0.0000 
     64 CA        165.9200  172.3400  204.5500 C.3       6 GLY6        0.0000 
     65 DU        159.9400  174.4800  204.2500 H         7 CUB7        0.0000 
     66 DU        159.7900  173.0900  204.7900 H         7 CUB7        0.0000 
     67 DU        161.5000  175.5600  203.3100 H         7 CUB7        0.0000 
     68 DU        161.3500  174.1700  203.8500 H         7 CUB7        0.0000 
     69 DU        162.9100  175.2600  202.9200 H         7 CUB7        0.0000 
@<TRIPOS>BOND
@<TRIPOS>SUBSTRUCTURE
     1 SER1        1 GROUP   
     2 ALA2        4 GROUP   
     3 ASP3       18 GROUP   
     4 LYS4       32 GROUP   
     5 PHE5       41 GROUP   
     6 GLY6       44 GROUP   
     7 CUB7       65 GROUP   
@<TRIPOS>SET

