#    Name: 6mdn_1_ATP_CAVITY_N1_4
#    Modification time : Fri May 22 19:29:41 2020

@<TRIPOS>MOLECULE
6mdn_1_ATP_CAVITY_N1_4
   82     0     7     0     0
SMALL
NO_CHARGES


@<TRIPOS>ATOM
      1 OG        120.8900  124.1500  205.6500 O.3       1 SER1        0.0000 
      2 OG        122.4500  125.2400  204.7100 O.3       1 SER1        0.0000 
      3 OG        119.9500  124.9300  207.3900 O.3       1 SER1        0.0000 
      4 OG        121.5100  126.0200  206.4500 O.3       1 SER1        0.0000 
      5 OG        121.3700  124.6300  206.9900 O.3       1 SER1        0.0000 
      6 OG        122.9300  125.7100  206.0500 O.3       1 SER1        0.0000 
      7 OG        121.9900  126.4900  207.7900 O.3       1 SER1        0.0000 
      8 OG        125.1300  130.3800  210.3300 O.3       1 SER1        0.0000 
      9 OG        126.6900  131.4700  209.4000 O.3       1 SER1        0.0000 
     10 OG        126.5400  130.0800  209.9400 O.3       1 SER1        0.0000 
     11 OG        127.8100  128.3800  210.0800 O.3       1 SER1        0.0000 
     12 OG        127.1700  131.9400  210.7400 O.3       1 SER1        0.0000 
     13 OG        127.0200  130.5500  211.2800 O.3       1 SER1        0.0000 
     14 OG        127.5000  131.0200  212.6200 O.3       1 SER1        0.0000 
     15 N         121.8300  123.3800  203.9100 N.am      2 ALA2        0.0000 
     16 O         121.2000  128.6600  208.9900 O.2       2 ALA2        0.0000 
     17 O         121.0500  127.2600  209.5300 O.2       2 ALA2        0.0000 
     18 O         122.4700  126.9600  209.1300 O.2       2 ALA2        0.0000 
     19 O         122.3200  125.5700  209.6700 O.2       2 ALA2        0.0000 
     20 O         121.5300  127.7400  210.8700 O.2       2 ALA2        0.0000 
     21 O         123.0900  128.8200  209.9300 O.2       2 ALA2        0.0000 
     22 O         122.9400  127.4300  210.4700 O.2       2 ALA2        0.0000 
     23 O         124.3600  127.1300  210.0800 O.2       2 ALA2        0.0000 
     24 N         129.2300  128.0800  209.6900 N.am      2 ALA2        0.0000 
     25 O         128.4400  130.2500  210.8800 O.2       2 ALA2        0.0000 
     26 O         128.2900  128.8600  211.4200 O.2       2 ALA2        0.0000 
     27 O         129.8500  129.9400  210.4900 O.2       2 ALA2        0.0000 
     28 OD1       122.1600  122.4600  205.7900 O.co2     3 ASP3        0.0000 
     29 OD1       123.5700  122.1600  205.4000 O.co2     3 ASP3        0.0000 
     30 OD1       123.4200  120.7600  205.9400 O.co2     3 ASP3        0.0000 
     31 OD1       123.2800  119.3700  206.4800 O.co2     3 ASP3        0.0000 
     32 OD1       122.6300  122.9300  207.1300 O.co2     3 ASP3        0.0000 
     33 OD1       123.2600  124.7900  207.9300 O.co2     3 ASP3        0.0000 
     34 OD1       123.8800  126.6600  208.7300 O.co2     3 ASP3        0.0000 
     35 OD1       123.7300  125.2700  209.2800 O.co2     3 ASP3        0.0000 
     36 OD1       125.7700  126.8300  209.6800 O.co2     3 ASP3        0.0000 
     37 OD1       128.1100  131.1700  209.0000 O.co2     3 ASP3        0.0000 
     38 NZ        123.5500  127.5800  206.8500 N.4       4 LYS4        0.0000 
     39 NZ        126.5300  128.3600  205.5200 N.4       4 LYS4        0.0000 
     40 NZ        122.6100  128.3500  208.5900 N.4       4 LYS4        0.0000 
     41 NZ        124.0300  128.0500  208.1900 N.4       4 LYS4        0.0000 
     42 NZ        125.5900  129.1400  207.2600 N.4       4 LYS4        0.0000 
     43 NZ        127.1500  130.2200  206.3200 N.4       4 LYS4        0.0000 
     44 NZ        127.0000  128.8300  206.8600 N.4       4 LYS4        0.0000 
     45 NZ        123.2400  130.2100  209.3900 N.4       4 LYS4        0.0000 
     46 NZ        124.6500  129.9100  208.9900 N.4       4 LYS4        0.0000 
     47 NZ        126.2100  131.0000  208.0600 N.4       4 LYS4        0.0000 
     48 NZ        126.0700  129.6100  208.6000 N.4       4 LYS4        0.0000 
     49 CZ        126.4000  128.6900  210.4800 C.ar      5 PHE5        0.0000 
     50 CA        121.6800  121.9900  204.4500 C.3       6 GLY6        0.0000 
     51 CA        122.6000  126.6300  204.1700 C.3       6 GLY6        0.0000 
     52 CA        124.0100  126.3300  203.7700 C.3       6 GLY6        0.0000 
     53 CA        123.8600  124.9400  204.3100 C.3       6 GLY6        0.0000 
     54 CA        123.7200  123.5500  204.8600 C.3       6 GLY6        0.0000 
     55 CA        123.0700  127.1000  205.5100 C.3       6 GLY6        0.0000 
     56 CA        122.7800  124.3200  206.5900 C.3       6 GLY6        0.0000 
     57 CA        124.4900  126.8000  205.1100 C.3       6 GLY6        0.0000 
     58 CA        124.3400  125.4100  205.6600 C.3       6 GLY6        0.0000 
     59 CA        124.1900  124.0200  206.2000 C.3       6 GLY6        0.0000 
     60 CA        120.5800  126.7900  208.1900 C.3       6 GLY6        0.0000 
     61 CA        122.1400  127.8800  207.2500 C.3       6 GLY6        0.0000 
     62 CA        121.8400  125.1000  208.3300 C.3       6 GLY6        0.0000 
     63 CA        121.7000  123.7100  208.8700 C.3       6 GLY6        0.0000 
     64 CA        123.4000  126.1900  207.3900 C.3       6 GLY6        0.0000 
     65 CA        123.1100  123.4000  208.4800 C.3       6 GLY6        0.0000 
     66 CA        124.9700  127.2700  206.4600 C.3       6 GLY6        0.0000 
     67 CA        125.4400  127.7400  207.8000 C.3       6 GLY6        0.0000 
     68 CA        121.6800  129.1300  210.3300 C.3       6 GLY6        0.0000 
     69 CA        125.9200  128.2200  209.1400 C.3       6 GLY6        0.0000 
     70 CA        127.6300  130.6900  207.6600 C.3       6 GLY6        0.0000 
     71 CA        127.3300  127.9100  208.7400 C.3       6 GLY6        0.0000 
     72 CA        128.9000  129.0000  207.8000 C.3       6 GLY6        0.0000 
     73 CA        128.7500  127.6100  208.3500 C.3       6 GLY6        0.0000 
     74 CA        123.5700  129.3000  211.2700 C.3       6 GLY6        0.0000 
     75 CA        124.9800  128.9900  210.8800 C.3       6 GLY6        0.0000 
     76 CA        129.3700  129.4700  209.1500 C.3       6 GLY6        0.0000 
     77 CA        126.8800  129.1600  211.8200 C.3       6 GLY6        0.0000 
     78 DU        122.3000  123.8500  205.2500 H         7 CUB7        0.0000 
     79 DU        124.5100  128.5200  209.5300 H         7 CUB7        0.0000 
     80 DU        127.4800  129.3000  208.2000 H         7 CUB7        0.0000 
     81 DU        127.9600  129.7800  209.5400 H         7 CUB7        0.0000 
     82 DU        128.5800  131.6400  210.3400 H         7 CUB7        0.0000 
@<TRIPOS>BOND
@<TRIPOS>SUBSTRUCTURE
     1 SER1        1 GROUP   
     2 ALA2       15 GROUP   
     3 ASP3       28 GROUP   
     4 LYS4       38 GROUP   
     5 PHE5       49 GROUP   
     6 GLY6       50 GROUP   
     7 CUB7       78 GROUP   
@<TRIPOS>SET

