#    Name: 6mdn_6_ATP
#    Modification time : Fri May 22 19:31:09 2020

@<TRIPOS>MOLECULE
6mdn_6_ATP
   43    45     1     0     1
SMALL
NO_CHARGES


@<TRIPOS>ATOM
      1 PG        148.4340  178.1380  166.9430 P.3       1 ATP802      0.0000 
      2 O1G       148.7540  176.7380  166.5010 O.co2     1 ATP802      0.0000 
      3 O2G       147.0600  178.3110  167.5340 O.co2     1 ATP802      0.0000 
      4 O3G       149.5560  178.8730  167.6090 O.co2     1 ATP802      0.0000 
      5 PB        148.2310  180.5190  165.6650 P.3       1 ATP802      0.0000 
      6 O1B       149.4680  181.1800  166.2100 O.co2     1 ATP802      0.0000 
      7 O2B       146.9080  180.7130  166.3280 O.co2     1 ATP802      0.0000 
      8 O3B       148.3550  178.9320  165.5690 O.3       1 ATP802      0.0000 
      9 PA        148.6330  182.2170  163.5520 P.3       1 ATP802      0.0000 
     10 O1A       148.0150  182.4040  162.1950 O.co2     1 ATP802      0.0000 
     11 O2A       150.1240  182.0770  163.6580 O.co2     1 ATP802      0.0000 
     12 O3A       148.0930  180.8260  164.1110 O.3       1 ATP802      0.0000 
     13 O5'       148.0740  183.2930  164.5750 O.3       1 ATP802      0.0000 
     14 C5'       146.6810  183.4040  164.6030 C.3       1 ATP802      0.0000 
     15 C4'       146.2670  184.8130  164.2870 C.3       1 ATP802      0.0000 
     16 O4'       147.0140  185.8300  164.9320 O.3       1 ATP802      0.0000 
     17 C3'       146.4920  185.0630  162.8390 C.3       1 ATP802      0.0000 
     18 O3'       145.4510  184.4720  162.0770 O.3       1 ATP802      0.0000 
     19 C2'       146.4440  186.5460  162.7800 C.3       1 ATP802      0.0000 
     20 O2'       145.1420  186.9250  162.3760 O.3       1 ATP802      0.0000 
     21 C1'       146.7530  187.0170  164.1930 C.3       1 ATP802      0.0000 
     22 N9        147.9150  187.9190  164.2900 N.pl3     1 ATP802      0.0000 
     23 C8        148.3150  188.8440  163.4130 C.2       1 ATP802      0.0000 
     24 N7        149.4380  189.4630  163.8110 N.2       1 ATP802      0.0000 
     25 C5        149.7610  188.9280  164.9800 C.ar      1 ATP802      0.0000 
     26 C6        150.8460  189.1280  165.9320 C.ar      1 ATP802      0.0000 
     27 N6        151.7700  190.0600  165.6690 N.pl3     1 ATP802      0.0000 
     28 N1        150.8570  188.3940  167.0430 N.ar      1 ATP802      0.0000 
     29 C2        149.9090  187.4820  167.2660 C.ar      1 ATP802      0.0000 
     30 N3        148.8950  187.2300  166.4320 N.ar      1 ATP802      0.0000 
     31 C4        148.7770  187.9060  165.2820 C.ar      1 ATP802      0.0000 
     32 H5'1      146.2890  183.0390  165.5430 H         1 ATP802      0.0000 
     33 H5'2      146.2980  182.8040  163.7950 H         1 ATP802      0.0000 
     34 H4'       145.2040  184.9480  164.4790 H         1 ATP802      0.0000 
     35 H3'       147.4830  184.7260  162.5520 H         1 ATP802      0.0000 
     36 HO3'      145.6330  184.6140  161.1440 H         1 ATP802      0.0000 
     37 H2'       147.1610  186.8540  162.0410 H         1 ATP802      0.0000 
     38 HO2'      145.0860  186.8400  161.4190 H         1 ATP802      0.0000 
     39 H1'       145.8640  187.4960  164.6000 H         1 ATP802      0.0000 
     40 H8        147.8070  189.0440  162.4870 H         1 ATP802      0.0000 
     41 HN61      151.6830  190.5870  164.8210 H         1 ATP802      0.0000 
     42 HN62      152.5240  190.2380  166.3130 H         1 ATP802      0.0000 
     43 H2        149.9700  186.9130  168.1770 H         1 ATP802      0.0000 
@<TRIPOS>BOND
     1    1    2 ar   
     2    1    3 ar   
     3    1    4 ar   
     4    1    8 1    
     5    5    6 ar   
     6    5    7 ar   
     7    5    8 1    
     8    5   12 1    
     9    9   10 ar   
    10    9   11 ar   
    11    9   12 1    
    12    9   13 1    
    13   13   14 1    
    14   14   15 1    
    15   14   32 1    
    16   14   33 1    
    17   15   16 1    
    18   15   17 1    
    19   15   34 1    
    20   16   21 1    
    21   17   18 1    
    22   17   19 1    
    23   17   35 1    
    24   18   36 1    
    25   19   20 1    
    26   19   21 1    
    27   19   37 1    
    28   20   38 1    
    29   21   22 1    
    30   21   39 1    
    31   22   23 1    
    32   22   31 1    
    33   23   24 2    
    34   23   40 1    
    35   24   25 1    
    36   25   26 ar   
    37   25   31 ar   
    38   26   27 1    
    39   26   28 ar   
    40   27   41 1    
    41   27   42 1    
    42   28   29 ar   
    43   29   30 ar   
    44   29   43 1    
    45   30   31 ar   
@<TRIPOS>SUBSTRUCTURE
     1 ATP802      1 GROUP   
@<TRIPOS>SET
ATOM$ORANGE STATIC     ATOMS   COLORGROUP SYSTEM 
20 14 14 15 15 17 17 19 19 21 21 23 23 25 25 26 26 29 \
29 31 31 

