#    Name: 6mdn_8_ATP
#    Modification time : Fri May 22 19:31:50 2020

@<TRIPOS>MOLECULE
6mdn_8_ATP
   43    45     1     0     1
SMALL
NO_CHARGES


@<TRIPOS>ATOM
      1 PG        172.5240  161.4740  166.3010 P.3       1 ATP802      0.0000 
      2 O1G       172.1110  161.1000  164.9050 O.co2     1 ATP802      0.0000 
      3 O2G       171.4000  162.0260  167.1250 O.co2     1 ATP802      0.0000 
      4 O3G       173.4710  160.5160  166.9670 O.co2     1 ATP802      0.0000 
      5 PB        174.8780  162.4860  165.4250 P.3       1 ATP802      0.0000 
      6 O1B       174.7920  161.3870  164.4070 O.co2     1 ATP802      0.0000 
      7 O2B       175.8650  162.4400  166.5610 O.co2     1 ATP802      0.0000 
      8 O3B       173.4230  162.7580  166.0190 O.3       1 ATP802      0.0000 
      9 PA        176.5100  164.5690  165.0170 P.3       1 ATP802      0.0000 
     10 O1A       177.5940  163.6490  164.5410 O.co2     1 ATP802      0.0000 
     11 O2A       176.5020  164.9900  166.4550 O.co2     1 ATP802      0.0000 
     12 O3A       175.1220  163.8710  164.6830 O.3       1 ATP802      0.0000 
     13 O5'       176.5000  165.8980  164.1260 O.3       1 ATP802      0.0000 
     14 C5'       177.7520  166.2680  163.5960 C.3       1 ATP802      0.0000 
     15 C4'       177.8860  167.7720  163.4710 C.3       1 ATP802      0.0000 
     16 O4'       177.8690  168.3950  164.7540 O.3       1 ATP802      0.0000 
     17 C3'       179.1940  168.1640  162.8260 C.3       1 ATP802      0.0000 
     18 O3'       179.0150  168.4220  161.4430 O.3       1 ATP802      0.0000 
     19 C2'       179.5540  169.4200  163.5530 C.3       1 ATP802      0.0000 
     20 O2'       178.8710  170.5640  163.0620 O.3       1 ATP802      0.0000 
     21 C1'       179.1000  169.0840  164.9430 C.3       1 ATP802      0.0000 
     22 N9        179.9210  168.0850  165.6410 N.pl3     1 ATP802      0.0000 
     23 C8        179.3860  167.1950  166.4750 C.2       1 ATP802      0.0000 
     24 N7        180.3200  166.4190  167.0190 N.2       1 ATP802      0.0000 
     25 C5        181.4740  166.7650  166.4960 C.ar      1 ATP802      0.0000 
     26 C6        182.8310  166.2880  166.6680 C.ar      1 ATP802      0.0000 
     27 N6        183.0340  165.2650  167.5090 N.pl3     1 ATP802      0.0000 
     28 N1        183.8060  166.9000  165.9880 N.ar      1 ATP802      0.0000 
     29 C2        183.5310  167.9260  165.1740 C.ar      1 ATP802      0.0000 
     30 N3        182.2960  168.4050  164.9730 N.ar      1 ATP802      0.0000 
     31 C4        181.2310  167.8750  165.5960 C.ar      1 ATP802      0.0000 
     32 H5'1      177.8280  165.8170  162.6080 H         1 ATP802      0.0000 
     33 H5'2      178.5530  165.8680  164.2040 H         1 ATP802      0.0000 
     34 H4'       177.0610  168.1350  162.8510 H         1 ATP802      0.0000 
     35 H3'       179.9570  167.4100  163.0340 H         1 ATP802      0.0000 
     36 HO3'      179.7920  168.8920  161.1240 H         1 ATP802      0.0000 
     37 H2'       180.6260  169.6020  163.5050 H         1 ATP802      0.0000 
     38 HO2'      179.2640  170.8140  162.2190 H         1 ATP802      0.0000 
     39 H1'       178.9970  169.9910  165.5290 H         1 ATP802      0.0000 
     40 H8        178.3450  167.1170  166.7230 H         1 ATP802      0.0000 
     41 HN61      182.2410  164.8620  167.9810 H         1 ATP802      0.0000 
     42 HN62      183.9630  164.9070  167.6590 H         1 ATP802      0.0000 
     43 H2        184.3480  168.3810  164.6410 H         1 ATP802      0.0000 
@<TRIPOS>BOND
     1    1    2 ar   
     2    1    3 ar   
     3    1    4 ar   
     4    1    8 1    
     5    5    6 ar   
     6    5    7 ar   
     7    5    8 1    
     8    5   12 1    
     9    9   10 ar   
    10    9   11 ar   
    11    9   12 1    
    12    9   13 1    
    13   13   14 1    
    14   14   15 1    
    15   14   32 1    
    16   14   33 1    
    17   15   16 1    
    18   15   17 1    
    19   15   34 1    
    20   16   21 1    
    21   17   18 1    
    22   17   19 1    
    23   17   35 1    
    24   18   36 1    
    25   19   20 1    
    26   19   21 1    
    27   19   37 1    
    28   20   38 1    
    29   21   22 1    
    30   21   39 1    
    31   22   23 1    
    32   22   31 1    
    33   23   24 2    
    34   23   40 1    
    35   24   25 1    
    36   25   26 ar   
    37   25   31 ar   
    38   26   27 1    
    39   26   28 ar   
    40   27   41 1    
    41   27   42 1    
    42   28   29 ar   
    43   29   30 ar   
    44   29   43 1    
    45   30   31 ar   
@<TRIPOS>SUBSTRUCTURE
     1 ATP802      1 GROUP   
@<TRIPOS>SET
ATOM$ORANGE STATIC     ATOMS   COLORGROUP SYSTEM 
20 14 14 15 15 17 17 19 19 21 21 23 23 25 25 26 26 29 \
29 31 31 

