#    Name: 6mdn_11_ATP
#    Modification time : Fri May 22 19:32:41 2020

@<TRIPOS>MOLECULE
6mdn_11_ATP
   43    45     1     0     1
SMALL
NO_CHARGES


@<TRIPOS>ATOM
      1 PG        154.5550  122.6350  209.7130 P.3       1 ATP801      0.0000 
      2 O1G       153.8450  123.4580  208.6690 O.co2     1 ATP801      0.0000 
      3 O2G       153.6830  121.7100  210.5240 O.co2     1 ATP801      0.0000 
      4 O3G       155.6410  123.3070  210.5130 O.co2     1 ATP801      0.0000 
      5 PB        154.6360  120.2380  208.6270 P.3       1 ATP801      0.0000 
      6 O1B       153.2240  120.4870  208.1810 O.co2     1 ATP801      0.0000 
      7 O2B       154.9480  119.4320  209.8460 O.co2     1 ATP801      0.0000 
      8 O3B       155.4000  121.6070  208.8580 O.3       1 ATP801      0.0000 
      9 PA        154.8930  118.6660  206.4090 P.3       1 ATP801      0.0000 
     10 O1A       154.6200  119.3280  205.0860 O.co2     1 ATP801      0.0000 
     11 O2A       153.8440  118.0540  207.2950 O.co2     1 ATP801      0.0000 
     12 O3A       155.5230  119.7210  207.4100 O.3       1 ATP801      0.0000 
     13 O5'       156.2260  117.7790  206.4060 O.3       1 ATP801      0.0000 
     14 C5'       156.2690  116.7760  207.3970 C.3       1 ATP801      0.0000 
     15 C4'       157.4640  115.8470  207.3090 C.3       1 ATP801      0.0000 
     16 O4'       157.4110  114.9020  208.3730 O.3       1 ATP801      0.0000 
     17 C3'       157.4840  115.0410  206.0180 C.3       1 ATP801      0.0000 
     18 O3'       158.5640  115.4260  205.1750 O.3       1 ATP801      0.0000 
     19 C2'       157.6690  113.5890  206.4190 C.3       1 ATP801      0.0000 
     20 O2'       158.7930  113.0060  205.7750 O.3       1 ATP801      0.0000 
     21 C1'       157.9400  113.6700  207.8950 C.3       1 ATP801      0.0000 
     22 N9        157.4510  112.5030  208.6370 N.pl3     1 ATP801      0.0000 
     23 C8        157.7850  111.2400  208.3720 C.2       1 ATP801      0.0000 
     24 N7        157.2210  110.4140  209.2770 N.2       1 ATP801      0.0000 
     25 C5        156.5230  111.1620  210.1300 C.ar      1 ATP801      0.0000 
     26 C6        155.6870  110.9120  211.3030 C.ar      1 ATP801      0.0000 
     27 N6        155.5000  109.6500  211.7160 N.pl3     1 ATP801      0.0000 
     28 N1        155.1380  111.9640  211.9280 N.ar      1 ATP801      0.0000 
     29 C2        155.3420  113.2160  211.4910 C.ar      1 ATP801      0.0000 
     30 N3        156.0940  113.5100  210.4240 N.ar      1 ATP801      0.0000 
     31 C4        156.6980  112.5430  209.7160 C.ar      1 ATP801      0.0000 
     32 H5'1      156.2760  117.2930  208.3540 H         1 ATP801      0.0000 
     33 H5'2      155.3680  116.1740  207.3310 H         1 ATP801      0.0000 
     34 H4'       158.3780  116.4470  207.3730 H         1 ATP801      0.0000 
     35 H3'       156.5260  115.1570  205.5020 H         1 ATP801      0.0000 
     36 HO3'      158.3040  115.2790  204.2570 H         1 ATP801      0.0000 
     37 H2'       156.7630  113.0020  206.2400 H         1 ATP801      0.0000 
     38 HO2'      158.5950  112.9500  204.8400 H         1 ATP801      0.0000 
     39 H1'       159.0250  113.6810  208.0010 H         1 ATP801      0.0000 
     40 H8        158.4150  110.9360  207.5510 H         1 ATP801      0.0000 
     41 HN61      154.9320  109.4520  212.5240 H         1 ATP801      0.0000 
     42 HN62      155.9380  108.9130  211.2010 H         1 ATP801      0.0000 
     43 H2        154.8790  114.0300  212.0270 H         1 ATP801      0.0000 
@<TRIPOS>BOND
     1    1    2 ar   
     2    1    3 ar   
     3    1    4 ar   
     4    1    8 1    
     5    5    6 ar   
     6    5    7 ar   
     7    5    8 1    
     8    5   12 1    
     9    9   10 ar   
    10    9   11 ar   
    11    9   12 1    
    12    9   13 1    
    13   13   14 1    
    14   14   15 1    
    15   14   32 1    
    16   14   33 1    
    17   15   16 1    
    18   15   17 1    
    19   15   34 1    
    20   16   21 1    
    21   17   18 1    
    22   17   19 1    
    23   17   35 1    
    24   18   36 1    
    25   19   20 1    
    26   19   21 1    
    27   19   37 1    
    28   20   38 1    
    29   21   22 1    
    30   21   39 1    
    31   22   23 1    
    32   22   31 1    
    33   23   24 2    
    34   23   40 1    
    35   24   25 1    
    36   25   26 ar   
    37   25   31 ar   
    38   26   27 1    
    39   26   28 ar   
    40   27   41 1    
    41   27   42 1    
    42   28   29 ar   
    43   29   30 ar   
    44   29   43 1    
    45   30   31 ar   
@<TRIPOS>SUBSTRUCTURE
     1 ATP801      1 GROUP   
@<TRIPOS>SET
ATOM$ORANGE STATIC     ATOMS   COLORGROUP SYSTEM 
20 14 14 15 15 17 17 19 19 21 21 23 23 25 25 26 26 29 \
29 31 31 

