#    Name: 6mdn_9_ATP
#    Modification time : Fri May 22 19:32:06 2020

@<TRIPOS>MOLECULE
6mdn_9_ATP
   43    45     1     0     1
SMALL
NO_CHARGES


@<TRIPOS>ATOM
      1 PG        173.9010  145.5500  206.7370 P.3       1 ATP801      0.0000 
      2 O1G       173.6530  146.7550  205.8970 O.co2     1 ATP801      0.0000 
      3 O2G       173.9570  145.8140  208.2090 O.co2     1 ATP801      0.0000 
      4 O3G       173.1950  144.3190  206.2480 O.co2     1 ATP801      0.0000 
      5 PB        175.6500  144.7400  204.8970 P.3       1 ATP801      0.0000 
      6 O1B       175.0700  145.7110  203.9120 O.co2     1 ATP801      0.0000 
      7 O2B       175.3560  143.2670  204.8540 O.co2     1 ATP801      0.0000 
      8 O3B       175.4080  145.2820  206.3650 O.3       1 ATP801      0.0000 
      9 PA        178.2250  143.9490  204.2840 P.3       1 ATP801      0.0000 
     10 O1A       177.9540  144.0780  202.8110 O.co2     1 ATP801      0.0000 
     11 O2A       177.9460  142.5880  204.8500 O.co2     1 ATP801      0.0000 
     12 O3A       177.2250  144.9590  204.9920 O.3       1 ATP801      0.0000 
     13 O5'       179.6460  144.5660  204.7260 O.3       1 ATP801      0.0000 
     14 C5'       180.6270  144.5620  203.7150 C.3       1 ATP801      0.0000 
     15 C4'       182.0360  145.0510  204.0550 C.3       1 ATP801      0.0000 
     16 O4'       182.5800  144.5450  205.2810 O.3       1 ATP801      0.0000 
     17 C3'       183.0170  144.6290  202.9730 C.3       1 ATP801      0.0000 
     18 O3'       183.6250  145.7740  202.3850 O.3       1 ATP801      0.0000 
     19 C2'       184.0500  143.7400  203.6160 C.3       1 ATP801      0.0000 
     20 O2'       185.3730  144.1150  203.2610 O.3       1 ATP801      0.0000 
     21 C1'       183.8250  143.8540  205.0910 C.3       1 ATP801      0.0000 
     22 N9        183.6410  142.5780  205.7660 N.pl3     1 ATP801      0.0000 
     23 C8        182.6000  141.7680  205.6400 C.2       1 ATP801      0.0000 
     24 N7        182.7480  140.6860  206.4400 N.2       1 ATP801      0.0000 
     25 C5        183.9110  140.8210  207.0870 C.ar      1 ATP801      0.0000 
     26 C6        184.6910  140.0570  208.0670 C.ar      1 ATP801      0.0000 
     27 N6        184.2970  138.8910  208.5830 N.pl3     1 ATP801      0.0000 
     28 N1        185.8490  140.5550  208.4680 N.ar      1 ATP801      0.0000 
     29 C2        186.3140  141.7090  208.0050 C.ar      1 ATP801      0.0000 
     30 N3        185.6780  142.4650  207.1070 N.ar      1 ATP801      0.0000 
     31 C4        184.5140  142.0500  206.5960 C.ar      1 ATP801      0.0000 
     32 H5'1      180.2420  145.1910  202.9150 H         1 ATP801      0.0000 
     33 H5'2      180.6710  143.5420  203.3510 H         1 ATP801      0.0000 
     34 H4'       182.0010  146.1420  204.1000 H         1 ATP801      0.0000 
     35 H3'       182.5200  144.0530  202.1920 H         1 ATP801      0.0000 
     36 HO3'      183.8860  145.5360  201.4910 H         1 ATP801      0.0000 
     37 H2'       183.8550  142.7050  203.3280 H         1 ATP801      0.0000 
     38 HO2'      185.4400  144.1060  202.3000 H         1 ATP801      0.0000 
     39 H1'       184.6600  144.3790  205.5600 H         1 ATP801      0.0000 
     40 H8        181.7590  141.9700  204.9920 H         1 ATP801      0.0000 
     41 HN61      184.8890  138.4290  209.2560 H         1 ATP801      0.0000 
     42 HN62      183.4210  138.4920  208.2960 H         1 ATP801      0.0000 
     43 H2        187.2600  142.0240  208.3940 H         1 ATP801      0.0000 
@<TRIPOS>BOND
     1    1    2 ar   
     2    1    3 ar   
     3    1    4 ar   
     4    1    8 1    
     5    5    6 ar   
     6    5    7 ar   
     7    5    8 1    
     8    5   12 1    
     9    9   10 ar   
    10    9   11 ar   
    11    9   12 1    
    12    9   13 1    
    13   13   14 1    
    14   14   15 1    
    15   14   32 1    
    16   14   33 1    
    17   15   16 1    
    18   15   17 1    
    19   15   34 1    
    20   16   21 1    
    21   17   18 1    
    22   17   19 1    
    23   17   35 1    
    24   18   36 1    
    25   19   20 1    
    26   19   21 1    
    27   19   37 1    
    28   20   38 1    
    29   21   22 1    
    30   21   39 1    
    31   22   23 1    
    32   22   31 1    
    33   23   24 2    
    34   23   40 1    
    35   24   25 1    
    36   25   26 ar   
    37   25   31 ar   
    38   26   27 1    
    39   26   28 ar   
    40   27   41 1    
    41   27   42 1    
    42   28   29 ar   
    43   29   30 ar   
    44   29   43 1    
    45   30   31 ar   
@<TRIPOS>SUBSTRUCTURE
     1 ATP801      1 GROUP   
@<TRIPOS>SET
ATOM$ORANGE STATIC     ATOMS   COLORGROUP SYSTEM 
20 14 14 15 15 17 17 19 19 21 21 23 23 25 25 26 26 29 \
29 31 31 

