#    Name: 6mdn_1_ATP
#    Modification time : Fri May 22 19:29:39 2020

@<TRIPOS>MOLECULE
6mdn_1_ATP
   43    45     1     0     1
SMALL
NO_CHARGES


@<TRIPOS>ATOM
      1 PG        124.9520  128.2150  209.8510 P.3       1 ATP801      0.0000 
      2 O1G       124.0190  129.1720  209.1640 O.co2     1 ATP801      0.0000 
      3 O2G       126.4170  128.5240  209.7150 O.co2     1 ATP801      0.0000 
      4 O3G       124.4770  127.7700  211.2040 O.co2     1 ATP801      0.0000 
      5 PB        123.2810  126.6560  208.5310 P.3       1 ATP801      0.0000 
      6 O1B       123.0830  127.2810  207.1810 O.co2     1 ATP801      0.0000 
      7 O2B       122.3920  127.0340  209.6850 O.co2     1 ATP801      0.0000 
      8 O3B       124.7740  126.9080  208.9750 O.3       1 ATP801      0.0000 
      9 PA        121.7540  124.6040  208.4560 P.3       1 ATP801      0.0000 
     10 O1A       121.0520  125.5360  207.5000 O.co2     1 ATP801      0.0000 
     11 O2A       121.3820  124.5840  209.9150 O.co2     1 ATP801      0.0000 
     12 O3A       123.2590  125.0780  208.3680 O.3       1 ATP801      0.0000 
     13 O5'       121.7040  123.1320  207.8470 O.3       1 ATP801      0.0000 
     14 C5'       120.5000  122.6680  207.2540 C.3       1 ATP801      0.0000 
     15 C4'       119.9510  121.4390  207.9850 C.3       1 ATP801      0.0000 
     16 O4'       118.7420  121.7640  208.7010 O.3       1 ATP801      0.0000 
     17 C3'       119.5530  120.2800  207.0780 C.3       1 ATP801      0.0000 
     18 O3'       120.2740  119.0830  207.3660 O.3       1 ATP801      0.0000 
     19 C2'       118.0920  120.0930  207.3100 C.3       1 ATP801      0.0000 
     20 O2'       117.6310  118.7700  207.1570 O.3       1 ATP801      0.0000 
     21 C1'       117.9220  120.5900  208.7140 C.3       1 ATP801      0.0000 
     22 N9        116.5020  120.7740  209.0620 N.pl3     1 ATP801      0.0000 
     23 C8        115.4300  120.6210  208.2790 C.2       1 ATP801      0.0000 
     24 N7        114.2860  120.8100  208.9490 N.2       1 ATP801      0.0000 
     25 C5        114.6250  121.0560  210.1990 C.ar      1 ATP801      0.0000 
     26 C6        113.8960  121.3470  211.4210 C.ar      1 ATP801      0.0000 
     27 N6        112.5670  121.4030  211.3850 N.pl3     1 ATP801      0.0000 
     28 N1        114.5840  121.5500  212.5440 N.ar      1 ATP801      0.0000 
     29 C2        115.9150  121.4860  212.5360 C.ar      1 ATP801      0.0000 
     30 N3        116.6570  121.2190  211.4590 N.ar      1 ATP801      0.0000 
     31 C4        116.0710  120.9860  210.2810 C.ar      1 ATP801      0.0000 
     32 H5'1      120.7270  122.4710  206.2140 H         1 ATP801      0.0000 
     33 H5'2      119.7540  123.4630  207.2970 H         1 ATP801      0.0000 
     34 H4'       120.7170  121.0720  208.6690 H         1 ATP801      0.0000 
     35 H3'       119.6430  120.5480  206.0310 H         1 ATP801      0.0000 
     36 HO3'      119.9650  118.3730  206.7870 H         1 ATP801      0.0000 
     37 H2'       117.5990  120.7600  206.6040 H         1 ATP801      0.0000 
     38 HO2'      117.2580  118.7380  206.2760 H         1 ATP801      0.0000 
     39 H1'       118.3390  119.8390  209.3840 H         1 ATP801      0.0000 
     40 H8        115.4460  120.4040  207.2320 H         1 ATP801      0.0000 
     41 HN61      112.1000  121.2440  210.5130 H         1 ATP801      0.0000 
     42 HN62      112.0580  121.6110  212.2240 H         1 ATP801      0.0000 
     43 H2        116.4200  121.6450  213.4590 H         1 ATP801      0.0000 
@<TRIPOS>BOND
     1    1    2 ar   
     2    1    3 ar   
     3    1    4 ar   
     4    1    8 1    
     5    5    6 ar   
     6    5    7 ar   
     7    5    8 1    
     8    5   12 1    
     9    9   10 ar   
    10    9   11 ar   
    11    9   12 1    
    12    9   13 1    
    13   13   14 1    
    14   14   15 1    
    15   14   32 1    
    16   14   33 1    
    17   15   16 1    
    18   15   17 1    
    19   15   34 1    
    20   16   21 1    
    21   17   18 1    
    22   17   19 1    
    23   17   35 1    
    24   18   36 1    
    25   19   20 1    
    26   19   21 1    
    27   19   37 1    
    28   20   38 1    
    29   21   22 1    
    30   21   39 1    
    31   22   23 1    
    32   22   31 1    
    33   23   24 2    
    34   23   40 1    
    35   24   25 1    
    36   25   26 ar   
    37   25   31 ar   
    38   26   27 1    
    39   26   28 ar   
    40   27   41 1    
    41   27   42 1    
    42   28   29 ar   
    43   29   30 ar   
    44   29   43 1    
    45   30   31 ar   
@<TRIPOS>SUBSTRUCTURE
     1 ATP801      1 GROUP   
@<TRIPOS>SET
ATOM$ORANGE STATIC     ATOMS   COLORGROUP SYSTEM 
20 14 14 15 15 17 17 19 19 21 21 23 23 25 25 26 26 29 \
29 31 31 

