#    Name: 6mdn_5_ATP
#    Modification time : Fri May 22 19:30:43 2020

@<TRIPOS>MOLECULE
6mdn_5_ATP
   43    45     1     0     1
SMALL
NO_CHARGES


@<TRIPOS>ATOM
      1 PG        132.4890  178.8680  203.8470 P.3       1 ATP801      0.0000 
      2 O1G       132.0540  177.4400  203.7180 O.co2     1 ATP801      0.0000 
      3 O2G       131.7910  179.6710  204.9120 O.co2     1 ATP801      0.0000 
      4 O3G       133.9670  179.0900  203.7370 O.co2     1 ATP801      0.0000 
      5 PB        132.6490  180.9420  202.2440 P.3       1 ATP801      0.0000 
      6 O1B       134.0390  180.7420  201.7210 O.co2     1 ATP801      0.0000 
      7 O2B       132.3880  181.7820  203.4620 O.co2     1 ATP801      0.0000 
      8 O3B       131.9990  179.5230  202.4940 O.3       1 ATP801      0.0000 
      9 PA        132.2820  182.8340  200.4400 P.3       1 ATP801      0.0000 
     10 O1A       132.6490  182.6560  198.9950 O.co2     1 ATP801      0.0000 
     11 O2A       133.2580  183.2460  201.5070 O.co2     1 ATP801      0.0000 
     12 O3A       131.7520  181.4640  201.0400 O.3       1 ATP801      0.0000 
     13 O5'       130.9190  183.6400  200.6160 O.3       1 ATP801      0.0000 
     14 C5'       131.1250  184.9850  200.9620 C.3       1 ATP801      0.0000 
     15 C4'       129.9040  185.8600  200.8810 C.3       1 ATP801      0.0000 
     16 O4'       130.0900  186.9320  201.7840 O.3       1 ATP801      0.0000 
     17 C3'       129.6490  186.4470  199.5150 C.3       1 ATP801      0.0000 
     18 O3'       128.5280  185.8750  198.8540 O.3       1 ATP801      0.0000 
     19 C2'       129.3760  187.9000  199.7650 C.3       1 ATP801      0.0000 
     20 O2'       128.1110  188.2550  199.2310 O.3       1 ATP801      0.0000 
     21 C1'       129.3760  188.0290  201.2600 C.3       1 ATP801      0.0000 
     22 N9        130.0100  189.3010  201.5370 N.pl3     1 ATP801      0.0000 
     23 C8        129.5170  190.4540  201.1380 C.2       1 ATP801      0.0000 
     24 N7        130.2930  191.4590  201.5530 N.2       1 ATP801      0.0000 
     25 C5        131.2850  190.9190  202.2470 C.ar      1 ATP801      0.0000 
     26 C6        132.4630  191.3870  202.9500 C.ar      1 ATP801      0.0000 
     27 N6        132.6830  192.6940  202.9870 N.pl3     1 ATP801      0.0000 
     28 N1        133.2650  190.5240  203.5760 N.ar      1 ATP801      0.0000 
     29 C2        133.0110  189.2190  203.5320 C.ar      1 ATP801      0.0000 
     30 N3        131.9560  188.7070  202.8900 N.ar      1 ATP801      0.0000 
     31 C4        131.0940  189.4970  202.2370 C.ar      1 ATP801      0.0000 
     32 H5'1      131.9800  185.4090  200.4410 H         1 ATP801      0.0000 
     33 H5'2      131.3670  184.9340  202.0050 H         1 ATP801      0.0000 
     34 H4'       129.0200  185.2910  201.1690 H         1 ATP801      0.0000 
     35 H3'       130.5600  186.3660  198.9140 H         1 ATP801      0.0000 
     36 HO3'      128.5090  186.2070  197.9450 H         1 ATP801      0.0000 
     37 H2'       130.1850  188.4950  199.3370 H         1 ATP801      0.0000 
     38 HO2'      128.2570  188.5170  198.3170 H         1 ATP801      0.0000 
     39 H1'       128.3440  188.0440  201.6130 H         1 ATP801      0.0000 
     40 H8        128.6360  190.5430  200.5310 H         1 ATP801      0.0000 
     41 HN61      132.0430  193.2870  202.5070 H         1 ATP801      0.0000 
     42 HN62      133.4790  193.0630  203.4770 H         1 ATP801      0.0000 
     43 H2        133.6820  188.5490  204.0410 H         1 ATP801      0.0000 
@<TRIPOS>BOND
     1    1    2 ar   
     2    1    3 ar   
     3    1    4 ar   
     4    1    8 1    
     5    5    6 ar   
     6    5    7 ar   
     7    5    8 1    
     8    5   12 1    
     9    9   10 ar   
    10    9   11 ar   
    11    9   12 1    
    12    9   13 1    
    13   13   14 1    
    14   14   15 1    
    15   14   32 1    
    16   14   33 1    
    17   15   16 1    
    18   15   17 1    
    19   15   34 1    
    20   16   21 1    
    21   17   18 1    
    22   17   19 1    
    23   17   35 1    
    24   18   36 1    
    25   19   20 1    
    26   19   21 1    
    27   19   37 1    
    28   20   38 1    
    29   21   22 1    
    30   21   39 1    
    31   22   23 1    
    32   22   31 1    
    33   23   24 2    
    34   23   40 1    
    35   24   25 1    
    36   25   26 ar   
    37   25   31 ar   
    38   26   27 1    
    39   26   28 ar   
    40   27   41 1    
    41   27   42 1    
    42   28   29 ar   
    43   29   30 ar   
    44   29   43 1    
    45   30   31 ar   
@<TRIPOS>SUBSTRUCTURE
     1 ATP801      1 GROUP   
@<TRIPOS>SET
ATOM$ORANGE STATIC     ATOMS   COLORGROUP SYSTEM 
20 14 14 15 15 17 17 19 19 21 21 23 23 25 25 26 26 29 \
29 31 31 

