#    Name: 5mrs_3_AES
#    Modification time : Fri May 22 19:21:11 2020

@<TRIPOS>MOLECULE
5mrs_3_AES
   13    13     1     0     0
SMALL
NO_CHARGES


@<TRIPOS>ATOM
      1 C3         26.8750   37.3990   -6.0750 C.ar      1 AES203      0.0000 
      2 C2         25.9170   36.8510   -6.9290 C.ar      1 AES203      0.0000 
      3 C1         25.1640   35.7440   -6.5280 C.ar      1 AES203      0.0000 
      4 S          24.0470   35.0820   -7.4870 S.o2      1 AES203      0.0000 
      5 F          24.5730   34.9680   -8.9490 F         1 AES203      0.0000 
      6 O1S        23.7070   33.7590   -7.0700 O.2       1 AES203      0.0000 
      7 O2S        22.8470   35.8600   -7.3630 O.2       1 AES203      0.0000 
      8 C6         25.3750   35.2400   -5.2530 C.ar      1 AES203      0.0000 
      9 C5         26.3250   35.7850   -4.3920 C.ar      1 AES203      0.0000 
     10 C4         27.0860   36.8720   -4.8030 C.ar      1 AES203      0.0000 
     11 C7         28.1210   37.4720   -3.8700 C.3       1 AES203      0.0000 
     12 C8         27.8590   38.9690   -3.6690 C.3       1 AES203      0.0000 
     13 N8         26.6610   39.1970   -2.8770 N.4       1 AES203      0.0000 
@<TRIPOS>BOND
     1    1    2 ar   
     2    1   10 ar   
     3    2    3 ar   
     4    3    4 1    
     5    3    8 ar   
     6    4    5 1    
     7    4    6 2    
     8    4    7 2    
     9    8    9 ar   
    10    9   10 ar   
    11   10   11 1    
    12   11   12 1    
    13   12   13 1    
@<TRIPOS>SUBSTRUCTURE
     1 AES203      1 GROUP   
@<TRIPOS>SET

