#    Name: 5mrs_3_AES_CAVITY_N1_6
#    Modification time : Fri May 22 19:21:12 2020

@<TRIPOS>MOLECULE
5mrs_3_AES_CAVITY_N1_6
   85     0     7     0     0
SMALL
NO_CHARGES


@<TRIPOS>ATOM
      1 OG         24.9600   35.0900   -6.8000 O.3       1 SER1        0.0000 
      2 OG         25.6000   35.9000   -7.8900 O.3       1 SER1        0.0000 
      3 OG         26.2400   36.7100   -8.9800 O.3       1 SER1        0.0000 
      4 OG         24.9700   37.6900   -6.9400 O.3       1 SER1        0.0000 
      5 OG         26.1900   36.8200   -6.8600 O.3       1 SER1        0.0000 
      6 OG         26.8300   37.6200   -7.9500 O.3       1 SER1        0.0000 
      7 OG         24.9800   40.2800   -7.0700 O.3       1 SER1        0.0000 
      8 OG         26.2000   39.4100   -7.0000 O.3       1 SER1        0.0000 
      9 O          26.1800   34.2200   -6.7200 O.2       2 ALA2        0.0000 
     10 O          25.5000   36.1300   -3.6500 O.2       2 ALA2        0.0000 
     11 N          26.7200   35.2600   -3.5800 N.am      2 ALA2        0.0000 
     12 N          24.3400   39.4800   -5.9800 N.am      2 ALA2        0.0000 
     13 N          25.5600   38.6100   -5.9100 N.am      2 ALA2        0.0000 
     14 N          26.0900   37.0400   -2.6300 N.am      2 ALA2        0.0000 
     15 N          26.7300   37.8500   -3.7200 N.am      2 ALA2        0.0000 
     16 N          27.9500   36.9800   -3.6400 N.am      2 ALA2        0.0000 
     17 N          24.9400   40.4000   -4.9600 N.am      2 ALA2        0.0000 
     18 O          24.8200   38.0300   -0.5800 O.2       2 ALA2        0.0000 
     19 N          26.6900   37.9600   -1.6000 N.am      2 ALA2        0.0000 
     20 N          27.9000   37.0900   -1.5200 N.am      2 ALA2        0.0000 
     21 N          29.1200   36.2200   -1.4500 N.am      2 ALA2        0.0000 
     22 N          28.5500   37.9000   -2.6100 N.am      2 ALA2        0.0000 
     23 N          26.6400   38.0800    0.5200 N.am      2 ALA2        0.0000 
     24 N          27.2800   38.8800   -0.5700 N.am      2 ALA2        0.0000 
     25 O          27.9800   42.1700   -3.9200 O.2       2 ALA2        0.0000 
     26 OD1        28.6900   37.5600   -8.9700 O.co2     3 ASP3        0.0000 
     27 OD1        28.0000   36.8700   -5.7600 O.co2     3 ASP3        0.0000 
     28 OD1        27.4200   38.5400   -6.9200 O.co2     3 ASP3        0.0000 
     29 OD1        28.0700   39.3500   -8.0200 O.co2     3 ASP3        0.0000 
     30 OD1        28.5900   37.7900   -4.7300 O.co2     3 ASP3        0.0000 
     31 OD1        28.0200   39.4600   -5.9000 O.co2     3 ASP3        0.0000 
     32 OD1        29.1900   38.7000   -3.7100 O.co2     3 ASP3        0.0000 
     33 NZ         25.0000   42.8800   -7.2100 N.4       4 LYS4        0.0000 
     34 NZ         26.2200   42.0100   -7.1400 N.4       4 LYS4        0.0000 
     35 NZ         26.8600   42.8100   -8.2300 N.4       4 LYS4        0.0000 
     36 NZ         24.9500   42.9900   -5.0900 N.4       4 LYS4        0.0000 
     37 NZ         26.1700   42.1200   -5.0200 N.4       4 LYS4        0.0000 
     38 NZ         26.8100   42.9300   -6.1100 N.4       4 LYS4        0.0000 
     39 NZ         28.0300   42.0600   -6.0400 N.4       4 LYS4        0.0000 
     40 CZ         25.6300   41.0900   -8.1600 C.ar      5 PHE5        0.0000 
     41 CZ         24.2900   39.5900   -3.8700 C.ar      5 PHE5        0.0000 
     42 CZ         23.7200   41.2700   -5.0300 C.ar      5 PHE5        0.0000 
     43 CZ         24.3600   42.0700   -6.1200 C.ar      5 PHE5        0.0000 
     44 CZ         25.5800   41.2000   -6.0500 C.ar      5 PHE5        0.0000 
     45 CZ         25.4700   38.8300   -1.6700 C.ar      5 PHE5        0.0000 
     46 CZ         26.1100   39.6400   -2.7600 C.ar      5 PHE5        0.0000 
     47 CZ         25.5300   41.3100   -3.9300 C.ar      5 PHE5        0.0000 
     48 CZ         26.7500   40.4400   -3.8500 C.ar      5 PHE5        0.0000 
     49 CZ         25.4200   38.9500    0.4400 C.ar      5 PHE5        0.0000 
     50 CZ         26.0600   39.7500   -0.6500 C.ar      5 PHE5        0.0000 
     51 CZ         26.7000   40.5600   -1.7400 C.ar      5 PHE5        0.0000 
     52 CZ         27.3400   41.3600   -2.8300 C.ar      5 PHE5        0.0000 
     53 CZ         26.0100   39.8600    1.4700 C.ar      5 PHE5        0.0000 
     54 CZ         26.6500   40.6700    0.3800 C.ar      5 PHE5        0.0000 
     55 CA         24.3100   34.2900   -5.7100 C.3       6 GLY6        0.0000 
     56 CA         27.4600   35.8400   -8.9000 C.3       6 GLY6        0.0000 
     57 CA         28.1000   36.6400  -10.0000 C.3       6 GLY6        0.0000 
     58 CA         24.9100   35.2100   -4.6800 C.3       6 GLY6        0.0000 
     59 CA         26.1300   34.3400   -4.6100 C.3       6 GLY6        0.0000 
     60 CA         24.3300   36.8800   -5.8400 C.3       6 GLY6        0.0000 
     61 CA         25.5500   36.0100   -5.7700 C.3       6 GLY6        0.0000 
     62 CA         26.7700   35.1400   -5.7000 C.3       6 GLY6        0.0000 
     63 CA         27.4100   35.9500   -6.7900 C.3       6 GLY6        0.0000 
     64 CA         28.0500   36.7500   -7.8800 C.3       6 GLY6        0.0000 
     65 CA         24.9200   37.8000   -4.8200 C.3       6 GLY6        0.0000 
     66 CA         26.1400   36.9300   -4.7400 C.3       6 GLY6        0.0000 
     67 CA         27.3600   36.0600   -4.6700 C.3       6 GLY6        0.0000 
     68 CA         24.8700   37.9100   -2.7000 C.3       6 GLY6        0.0000 
     69 CA         25.5100   38.7200   -3.7900 C.3       6 GLY6        0.0000 
     70 CA         29.1700   36.1100   -3.5700 C.3       6 GLY6        0.0000 
     71 CA         27.2900   41.4800   -0.7100 C.3       6 GLY6        0.0000 
     72 DU         27.5200   38.3200  -11.1600 H         7 CUB7        0.0000 
     73 DU         27.4700   38.4300   -9.0400 H         7 CUB7        0.0000 
     74 DU         26.7800   37.7400   -5.8300 H         7 CUB7        0.0000 
     75 DU         26.8500   40.2200   -8.0900 H         7 CUB7        0.0000 
     76 DU         26.1600   39.5300   -4.8800 H         7 CUB7        0.0000 
     77 DU         27.3800   38.6600   -4.8100 H         7 CUB7        0.0000 
     78 DU         26.8000   40.3300   -5.9700 H         7 CUB7        0.0000 
     79 DU         27.4400   41.1400   -7.0600 H         7 CUB7        0.0000 
     80 DU         27.3300   38.7700   -2.6900 H         7 CUB7        0.0000 
     81 DU         27.9700   39.5700   -3.7800 H         7 CUB7        0.0000 
     82 DU         27.3900   41.2500   -4.9400 H         7 CUB7        0.0000 
     83 DU         28.6100   40.3800   -4.8700 H         7 CUB7        0.0000 
     84 DU         27.9200   39.6900   -1.6600 H         7 CUB7        0.0000 
     85 DU         28.5600   40.4900   -2.7500 H         7 CUB7        0.0000 
@<TRIPOS>BOND
@<TRIPOS>SUBSTRUCTURE
     1 SER1        1 GROUP   
     2 ALA2        9 GROUP   
     3 ASP3       26 GROUP   
     4 LYS4       33 GROUP   
     5 PHE5       40 GROUP   
     6 GLY6       55 GROUP   
     7 CUB7       72 GROUP   
@<TRIPOS>SET

