#    Name: 5x1t_1_ADP
#    Modification time : Fri May 22 19:17:33 2020

@<TRIPOS>MOLECULE
5x1t_1_ADP
   27    29     1     0     1
SMALL
NO_CHARGES


@<TRIPOS>ATOM
      1 PB          2.4090   22.2690   28.4660 P.3       1 ADP401      0.0000 
      2 O1B         2.6390   23.1480   27.2560 O.co2     1 ADP401      0.0000 
      3 O2B         0.9720   22.2290   28.9310 O.co2     1 ADP401      0.0000 
      4 O3B         3.3920   22.5240   29.5860 O.co2     1 ADP401      0.0000 
      5 PA          4.1350   20.0110   28.0610 P.3       1 ADP401      0.0000 
      6 O1A         4.9700   20.5000   26.8970 O.co2     1 ADP401      0.0000 
      7 O2A         4.6400   20.2210   29.4700 O.co2     1 ADP401      0.0000 
      8 O3A         2.6950   20.7520   27.9610 O.3       1 ADP401      0.0000 
      9 O5'         3.7650   18.4500   27.7680 O.3       1 ADP401      0.0000 
     10 C5'         3.7370   17.2780   28.6190 C.3       1 ADP401      0.0000 
     11 C4'         4.3720   17.3370   30.0140 C.3       1 ADP401      0.0000 
     12 O4'         3.9700   16.2270   30.8290 O.3       1 ADP401      0.0000 
     13 C3'         5.8930   17.3110   29.9890 C.3       1 ADP401      0.0000 
     14 O3'         6.3740   18.5620   30.4940 O.3       1 ADP401      0.0000 
     15 C2'         6.3270   16.1650   30.8970 C.3       1 ADP401      0.0000 
     16 O2'         7.3710   16.5680   31.7950 O.3       1 ADP401      0.0000 
     17 C1'         5.0620   15.8170   31.6650 C.3       1 ADP401      0.0000 
     18 N9          4.8830   14.3840   32.0410 N.pl3     1 ADP401      0.0000 
     19 C8          4.4740   13.3950   31.2230 C.2       1 ADP401      0.0000 
     20 N7          4.3830   12.2130   31.8870 N.2       1 ADP401      0.0000 
     21 C5          4.7350   12.4380   33.1640 C.ar      1 ADP401      0.0000 
     22 C6          4.8480   11.6150   34.3910 C.ar      1 ADP401      0.0000 
     23 N6          4.5580   10.2910   34.3460 N.pl3     1 ADP401      0.0000 
     24 N1          5.2350   12.2280   35.5360 N.ar      1 ADP401      0.0000 
     25 C2          5.5180   13.5490   35.5480 C.ar      1 ADP401      0.0000 
     26 N3          5.4500   14.3610   34.4690 N.ar      1 ADP401      0.0000 
     27 C4          5.0620   13.8710   33.2640 C.ar      1 ADP401      0.0000 
@<TRIPOS>BOND
     1    1    2 ar   
     2    1    3 ar   
     3    1    4 ar   
     4    1    8 1    
     5    5    6 ar   
     6    5    7 ar   
     7    5    8 1    
     8    5    9 1    
     9    9   10 1    
    10   10   11 1    
    11   11   12 1    
    12   11   13 1    
    13   12   17 1    
    14   13   14 1    
    15   13   15 1    
    16   15   16 1    
    17   15   17 1    
    18   17   18 1    
    19   18   19 1    
    20   18   27 1    
    21   19   20 2    
    22   20   21 1    
    23   21   22 ar   
    24   21   27 ar   
    25   22   23 1    
    26   22   24 ar   
    27   24   25 ar   
    28   25   26 ar   
    29   26   27 ar   
@<TRIPOS>SUBSTRUCTURE
     1 ADP401      1 GROUP   
@<TRIPOS>SET
ATOM$ORANGE STATIC     ATOMS   COLORGROUP SYSTEM 
20 10 10 11 11 13 13 15 15 17 17 19 19 21 21 22 22 25 \
25 27 27 

