#    Name: 6ol9_1_0HK
#    Modification time : Fri May 22 19:35:44 2020

@<TRIPOS>MOLECULE
6ol9_1_0HK
   26    30     1     0     0
SMALL
NO_CHARGES


@<TRIPOS>ATOM
      1 C28        36.4200   25.4860  -41.4970 C.2       1 0HK1203     0.0000 
      2 O29        36.2570   26.5000  -42.1140 O.2       1 0HK1203     0.0000 
      3 C31        38.2210   24.5730  -39.9170 C.2       1 0HK1203     0.0000 
      4 C32        37.6170   23.3550  -42.0230 C.2       1 0HK1203     0.0000 
      5 C34        37.5460   24.1270  -38.7730 C.2       1 0HK1203     0.0000 
      6 C35        38.3640   24.1040  -37.6320 C.2       1 0HK1203     0.0000 
      7 C36        39.6150   24.5170  -37.8970 C.2       1 0HK1203     0.0000 
      8 C41        37.2880   22.1190  -41.4680 C.2       1 0HK1203     0.0000 
      9 C42        37.2440   21.0850  -42.4400 C.2       1 0HK1203     0.0000 
     10 C43        37.5320   21.5270  -43.6820 C.2       1 0HK1203     0.0000 
     11 O10        33.1690   21.3660  -41.4800 O.3       1 0HK1203     0.0000 
     12 O11        35.4710   24.8330  -40.8200 O.3       1 0HK1203     0.0000 
     13 O33        38.7440   25.4610  -42.0890 O.3       1 0HK1203     0.0000 
     14 S37        39.8460   24.9480  -39.5200 S.3       1 0HK1203     0.0000 
     15 S44        37.8660   23.2040  -43.7230 S.3       1 0HK1203     0.0000 
     16 C1         30.6940   24.8020  -40.9710 C.3       1 0HK1203     0.0000 
     17 C3         32.5800   23.3650  -39.9870 C.3       1 0HK1203     0.0000 
     18 C4         33.3430   24.6710  -39.6710 C.3       1 0HK1203     0.0000 
     19 C5         34.0880   25.3140  -40.8400 C.3       1 0HK1203     0.0000 
     20 C6         33.4120   25.0570  -42.1850 C.3       1 0HK1203     0.0000 
     21 C7         32.6450   23.7270  -42.3120 C.3       1 0HK1203     0.0000 
     22 C8         33.6560   22.6210  -42.0010 C.3       1 0HK1203     0.0000 
     23 C9         33.6100   22.3910  -40.5630 C.3       1 0HK1203     0.0000 
     24 C12        30.5000   22.6300  -41.3560 C.3       1 0HK1203     0.0000 
     25 C30        37.7630   24.7310  -41.3720 C.3       1 0HK1203     0.0000 
     26 N2         31.6220   23.6240  -41.1600 N.4       1 0HK1203     0.0000 
@<TRIPOS>BOND
     1    1   12 1    
     2    1   25 1    
     3    1    2 2    
     4    3    5 2    
     5    3   14 1    
     6    3   25 1    
     7    4    8 2    
     8    4   15 1    
     9    4   25 1    
    10    5    6 1    
    11    6    7 2    
    12    7   14 1    
    13    8    9 1    
    14    9   10 2    
    15   10   15 1    
    16   11   22 1    
    17   11   23 1    
    18   12   19 1    
    19   13   25 1    
    20   16   26 1    
    21   17   18 1    
    22   17   23 1    
    23   17   26 1    
    24   18   19 1    
    25   19   20 1    
    26   20   21 1    
    27   21   22 1    
    28   21   26 1    
    29   22   23 1    
    30   24   26 1    
@<TRIPOS>SUBSTRUCTURE
     1 0HK1203     1 GROUP   
@<TRIPOS>SET

