#    Name: 6ol9_1_0HK_CAVITY_N1_8
#    Modification time : Fri May 22 19:35:45 2020

@<TRIPOS>MOLECULE
6ol9_1_0HK_CAVITY_N1_8
   80     0     5     0     0
SMALL
NO_CHARGES


@<TRIPOS>ATOM
      1 OG         31.2600   23.5200  -42.0000 O.3       1 SER1        0.0000 
      2 OG         30.8600   22.1000  -41.7300 O.3       1 SER1        0.0000 
      3 OG         32.6500   23.0600  -42.3500 O.3       1 SER1        0.0000 
      4 OG         32.2400   21.6400  -42.0700 O.3       1 SER1        0.0000 
      5 OG         31.2700   22.2600  -40.2900 O.3       1 SER1        0.0000 
      6 OG         37.4700   24.2000  -37.5800 O.3       1 SER1        0.0000 
      7 OG         37.0700   22.7800  -37.3100 O.3       1 SER1        0.0000 
      8 OG         37.8800   24.3500  -36.1500 O.3       1 SER1        0.0000 
      9 O          36.3900   21.5300  -44.8300 O.2       2 ALA2        0.0000 
     10 N          33.4500   25.9000  -42.8900 N.am      2 ALA2        0.0000 
     11 N          35.0100   20.7300  -42.7700 N.am      2 ALA2        0.0000 
     12 N          36.4000   20.2700  -43.1200 N.am      2 ALA2        0.0000 
     13 O          38.1900   21.2300  -43.7400 O.2       2 ALA2        0.0000 
     14 N          30.6900   25.5600  -40.4800 N.am      2 ALA2        0.0000 
     15 N          32.4800   26.5200  -41.1000 N.am      2 ALA2        0.0000 
     16 N          33.8600   26.0600  -41.4500 N.am      2 ALA2        0.0000 
     17 N          38.0200   24.6900  -42.5000 N.am      2 ALA2        0.0000 
     18 N          38.4300   24.8400  -41.0700 N.am      2 ALA2        0.0000 
     19 N          39.8100   24.3900  -41.4200 N.am      2 ALA2        0.0000 
     20 N          39.2400   26.4200  -39.9100 N.am      2 ALA2        0.0000 
     21 N          38.8400   25.0000  -39.6400 N.am      2 ALA2        0.0000 
     22 O          40.2300   24.5400  -39.9900 O.2       2 ALA2        0.0000 
     23 CZ         35.0000   21.9900  -44.4800 C.ar      3 PHE5        0.0000 
     24 CZ         29.8800   23.9800  -41.6500 C.ar      3 PHE5        0.0000 
     25 CZ         33.0500   24.4800  -42.6200 C.ar      3 PHE5        0.0000 
     26 CZ         34.4300   24.0300  -42.9700 C.ar      3 PHE5        0.0000 
     27 CZ         35.8200   23.5700  -43.3200 C.ar      3 PHE5        0.0000 
     28 CZ         35.4200   22.1500  -43.0400 C.ar      3 PHE5        0.0000 
     29 CZ         37.6000   24.5300  -43.9400 C.ar      3 PHE5        0.0000 
     30 CZ         37.2000   23.1100  -43.6700 C.ar      3 PHE5        0.0000 
     31 CZ         30.2900   24.1400  -40.2100 C.ar      3 PHE5        0.0000 
     32 CZ         31.6700   23.6800  -40.5600 C.ar      3 PHE5        0.0000 
     33 CZ         32.6600   21.8000  -40.6400 C.ar      3 PHE5        0.0000 
     34 CZ         35.2500   25.6000  -41.8000 C.ar      3 PHE5        0.0000 
     35 CZ         34.8400   24.1800  -41.5300 C.ar      3 PHE5        0.0000 
     36 CZ         34.4400   22.7600  -41.2600 C.ar      3 PHE5        0.0000 
     37 CZ         34.0400   21.3400  -40.9900 C.ar      3 PHE5        0.0000 
     38 CZ         36.6300   25.1500  -42.1500 C.ar      3 PHE5        0.0000 
     39 CZ         36.2300   23.7300  -41.8800 C.ar      3 PHE5        0.0000 
     40 CZ         35.8300   22.3100  -41.6100 C.ar      3 PHE5        0.0000 
     41 CZ         35.4300   20.8900  -41.3400 C.ar      3 PHE5        0.0000 
     42 CZ         37.2100   21.8500  -41.9600 C.ar      3 PHE5        0.0000 
     43 CZ         36.8100   20.4300  -41.6900 C.ar      3 PHE5        0.0000 
     44 CZ         38.6000   21.3900  -42.3100 C.ar      3 PHE5        0.0000 
     45 CZ         32.4900   25.2500  -39.4000 C.ar      3 PHE5        0.0000 
     46 CZ         32.0900   23.8300  -39.1300 C.ar      3 PHE5        0.0000 
     47 CZ         34.2700   26.2200  -40.0200 C.ar      3 PHE5        0.0000 
     48 CZ         33.8700   24.8000  -39.7500 C.ar      3 PHE5        0.0000 
     49 CZ         33.4700   23.3800  -39.4800 C.ar      3 PHE5        0.0000 
     50 CZ         35.6600   25.7600  -40.3700 C.ar      3 PHE5        0.0000 
     51 CZ         35.2600   24.3400  -40.1000 C.ar      3 PHE5        0.0000 
     52 CZ         34.8600   22.9200  -39.8300 C.ar      3 PHE5        0.0000 
     53 CZ         37.0400   25.3000  -40.7200 C.ar      3 PHE5        0.0000 
     54 CZ         36.2400   22.4600  -40.1800 C.ar      3 PHE5        0.0000 
     55 CZ         37.6300   22.0000  -40.5300 C.ar      3 PHE5        0.0000 
     56 CZ         39.0100   21.5500  -40.8800 C.ar      3 PHE5        0.0000 
     57 CZ         35.6700   24.5000  -38.6700 C.ar      3 PHE5        0.0000 
     58 CZ         37.4600   25.4600  -39.2900 C.ar      3 PHE5        0.0000 
     59 CZ         37.0600   24.0400  -39.0200 C.ar      3 PHE5        0.0000 
     60 CZ         38.0400   22.1600  -39.0900 C.ar      3 PHE5        0.0000 
     61 CZ         37.8700   25.6200  -37.8500 C.ar      3 PHE5        0.0000 
     62 CA         31.6600   24.9400  -42.2700 C.3       4 GLY6        0.0000 
     63 CA         34.0300   22.6100  -42.7000 C.3       4 GLY6        0.0000 
     64 CA         33.6300   21.1900  -42.4200 C.3       4 GLY6        0.0000 
     65 CA         38.5900   22.6500  -44.0100 C.3       4 GLY6        0.0000 
     66 CA         32.0700   25.1000  -40.8300 C.3       4 GLY6        0.0000 
     67 CA         39.4000   24.2300  -42.8500 C.3       4 GLY6        0.0000 
     68 CA         39.0000   22.8100  -42.5800 C.3       4 GLY6        0.0000 
     69 CA         39.4100   22.9700  -41.1500 C.3       4 GLY6        0.0000 
     70 CA         38.4400   23.5800  -39.3600 C.3       4 GLY6        0.0000 
     71 CA         39.2600   25.1600  -38.2000 C.3       4 GLY6        0.0000 
     72 CA         38.8600   23.7400  -37.9300 C.3       4 GLY6        0.0000 
     73 CA         38.4500   22.3200  -37.6600 C.3       4 GLY6        0.0000 
     74 CA         39.2700   23.8900  -36.5000 C.3       4 GLY6        0.0000 
     75 DU         36.8000   21.6900  -43.3900 H         5 CUB7        0.0000 
     76 DU         33.4600   24.6400  -41.1800 H         5 CUB7        0.0000 
     77 DU         33.0600   23.2200  -40.9100 H         5 CUB7        0.0000 
     78 DU         37.6100   23.2700  -42.2300 H         5 CUB7        0.0000 
     79 DU         36.6400   23.8800  -40.4500 H         5 CUB7        0.0000 
     80 DU         38.0300   23.4200  -40.8000 H         5 CUB7        0.0000 
@<TRIPOS>BOND
@<TRIPOS>SUBSTRUCTURE
     1 SER1        1 GROUP   
     2 ALA2        9 GROUP   
     3 PHE5       23 GROUP   
     4 GLY6       62 GROUP   
     5 CUB7       75 GROUP   
@<TRIPOS>SET

