#    Name: 6pw3_1_GTG_CAVITY_N1_12
#    Modification time : Fri May 22 19:35:44 2020

@<TRIPOS>MOLECULE
6pw3_1_GTG_CAVITY_N1_12
   94     0     7     0     0
SMALL
NO_CHARGES


@<TRIPOS>ATOM
      1 OG        -13.7700    1.7100   18.6000 O.3       1 SER1        0.0000 
      2 OG        -15.0100    0.4700   21.4600 O.3       1 SER1        0.0000 
      3 OG        -16.0100    0.4300   22.5900 O.3       1 SER1        0.0000 
      4 OG        -14.1600    1.4300   22.2500 O.3       1 SER1        0.0000 
      5 OG        -14.7500    9.4400   16.0100 O.3       1 SER1        0.0000 
      6 OG        -12.5700    1.2200   23.6400 O.3       1 SER1        0.0000 
      7 OG        -13.3100    2.3800   23.0300 O.3       1 SER1        0.0000 
      8 OG        -14.3000    2.3400   24.1500 O.3       1 SER1        0.0000 
      9 OG        -12.7100    2.1400   25.5500 O.3       1 SER1        0.0000 
     10 N         -16.2100    0.9600   16.4300 N.am      2 ALA2        0.0000 
     11 O         -17.2000    0.9200   17.5500 O.2       2 ALA2        0.0000 
     12 O         -17.9400    2.0700   16.9400 O.2       2 ALA2        0.0000 
     13 O         -18.1900    0.8800   18.6800 O.2       2 ALA2        0.0000 
     14 O         -18.9300    2.0300   18.0700 O.2       2 ALA2        0.0000 
     15 O         -19.6600    3.1900   17.4600 O.2       2 ALA2        0.0000 
     16 O         -19.1800    0.8400   19.8000 O.2       2 ALA2        0.0000 
     17 O         -19.9200    2.0000   19.2000 O.2       2 ALA2        0.0000 
     18 O         -20.6500    3.1500   18.5900 O.2       2 ALA2        0.0000 
     19 N         -18.7000    6.2600   18.4200 N.am      2 ALA2        0.0000 
     20 N         -15.0100    8.2400   17.7400 N.am      2 ALA2        0.0000 
     21 OD1       -20.4000    4.3500   16.8500 O.co2     3 ASP3        0.0000 
     22 OD1       -21.3900    4.3100   17.9800 O.co2     3 ASP3        0.0000 
     23 OD1       -14.3600    1.9500   16.0900 O.co2     3 ASP3        0.0000 
     24 OD1       -16.0900    3.0700   16.6000 O.co2     3 ASP3        0.0000 
     25 OD1       -16.8300    4.2300   16.0000 O.co2     3 ASP3        0.0000 
     26 OD1       -17.5600    5.3800   15.3900 O.co2     3 ASP3        0.0000 
     27 OD1       -19.5500    5.3000   17.6400 O.co2     3 ASP3        0.0000 
     28 OD1       -20.2800    6.4600   17.0300 O.co2     3 ASP3        0.0000 
     29 OD1       -16.7100    6.3400   16.1700 O.co2     3 ASP3        0.0000 
     30 OD1       -15.8600    7.2900   16.9600 O.co2     3 ASP3        0.0000 
     31 OD1       -13.2800    7.1300   17.2200 O.co2     3 ASP3        0.0000 
     32 OD1       -14.0200    8.2800   16.6200 O.co2     3 ASP3        0.0000 
     33 OD1       -12.6000    4.2500   25.7200 O.co2     3 ASP3        0.0000 
     34 NZ        -20.0600    2.9100   21.1000 N.4       4 LYS4        0.0000 
     35 NZ        -18.4700    2.7100   22.5000 N.4       4 LYS4        0.0000 
     36 NZ        -19.2100    3.8600   21.8900 N.4       4 LYS4        0.0000 
     37 NZ        -19.9400    5.0200   21.2800 N.4       4 LYS4        0.0000 
     38 NZ        -17.6200    3.6600   23.2800 N.4       4 LYS4        0.0000 
     39 NZ        -15.1800    4.4100   25.4600 N.4       4 LYS4        0.0000 
     40 CZ        -15.3600    1.9100   17.2100 C.ar      5 PHE5        0.0000 
     41 CZ        -16.3500    1.8700   18.3400 C.ar      5 PHE5        0.0000 
     42 CZ        -17.0800    3.0300   17.7300 C.ar      5 PHE5        0.0000 
     43 CZ        -17.8200    4.1900   17.1200 C.ar      5 PHE5        0.0000 
     44 CZ        -18.0700    2.9900   18.8500 C.ar      5 PHE5        0.0000 
     45 CZ        -14.7600    1.6700   19.7300 C.ar      5 PHE5        0.0000 
     46 CZ        -17.7000    6.3000   17.3000 C.ar      5 PHE5        0.0000 
     47 CZ        -15.7500    1.6300   20.8500 C.ar      5 PHE5        0.0000 
     48 CZ        -16.4900    2.7900   20.2500 C.ar      5 PHE5        0.0000 
     49 CZ        -17.9600    5.1000   19.0300 C.ar      5 PHE5        0.0000 
     50 CZ        -16.7400    1.5900   21.9800 C.ar      5 PHE5        0.0000 
     51 CZ        -18.2100    3.9000   20.7600 C.ar      5 PHE5        0.0000 
     52 CZ        -17.7300    1.5500   23.1000 C.ar      5 PHE5        0.0000 
     53 CZ        -16.8500    7.2500   18.0800 C.ar      5 PHE5        0.0000 
     54 CZ        -14.9000    2.5800   21.6400 C.ar      5 PHE5        0.0000 
     55 CZ        -15.8900    2.5400   22.7600 C.ar      5 PHE5        0.0000 
     56 CZ        -16.6300    3.7000   22.1600 C.ar      5 PHE5        0.0000 
     57 CZ        -15.0400    3.5000   23.5500 C.ar      5 PHE5        0.0000 
     58 CZ        -16.0300    3.4600   24.6700 C.ar      5 PHE5        0.0000 
     59 CZ        -13.4500    3.2900   24.9400 C.ar      5 PHE5        0.0000 
     60 CZ        -14.1900    4.4500   24.3300 C.ar      5 PHE5        0.0000 
     61 CZ        -14.4400    3.2500   26.0600 C.ar      5 PHE5        0.0000 
     62 CA        -16.5800   -2.3500   17.9800 C.3       6 GLY6        0.0000 
     63 CA        -18.3100   -1.2300   18.5000 C.3       6 GLY6        0.0000 
     64 CA        -15.4700   -0.2000   17.0400 C.3       6 GLY6        0.0000 
     65 CA        -16.9400    2.1100   15.8200 C.3       6 GLY6        0.0000 
     66 CA        -16.4600   -0.2400   18.1600 C.3       6 GLY6        0.0000 
     67 CA        -18.6700    3.2300   16.3400 C.3       6 GLY6        0.0000 
     68 CA        -19.4100    4.3900   15.7300 C.3       6 GLY6        0.0000 
     69 CA        -17.4500   -0.2800   19.2900 C.3       6 GLY6        0.0000 
     70 CA        -21.6500    3.1100   19.7100 C.3       6 GLY6        0.0000 
     71 CA        -19.2900    6.5000   15.9100 C.3       6 GLY6        0.0000 
     72 CA        -19.8000    4.1100   19.3700 C.3       6 GLY6        0.0000 
     73 CA        -20.5400    5.2600   18.7600 C.3       6 GLY6        0.0000 
     74 CA        -20.7900    4.0700   20.5000 C.3       6 GLY6        0.0000 
     75 CA        -17.4500    7.4900   15.5700 C.3       6 GLY6        0.0000 
     76 CA        -19.4300    7.4100   17.8200 C.3       6 GLY6        0.0000 
     77 CA        -18.9500    5.0600   20.1600 C.3       6 GLY6        0.0000 
     78 CA        -19.6900    6.2200   19.5500 C.3       6 GLY6        0.0000 
     79 CA        -15.6100    8.4900   15.2200 C.3       6 GLY6        0.0000 
     80 CA        -16.6000    8.4500   16.3500 C.3       6 GLY6        0.0000 
     81 CA        -11.7200    2.1800   24.4200 C.3       6 GLY6        0.0000 
     82 CA        -12.4600    3.3300   23.8100 C.3       6 GLY6        0.0000 
     83 DU        -15.7300   -1.4000   18.7700 H         7 CUB7        0.0000 
     84 DU        -14.6200    0.7500   17.8200 H         7 CUB7        0.0000 
     85 DU        -15.6100    0.7100   18.9400 H         7 CUB7        0.0000 
     86 DU        -18.5600    5.3400   16.5100 H         7 CUB7        0.0000 
     87 DU        -15.8700   -0.4800   20.6800 H         7 CUB7        0.0000 
     88 DU        -16.6000    0.6700   20.0700 H         7 CUB7        0.0000 
     89 DU        -17.3400    1.8300   19.4600 H         7 CUB7        0.0000 
     90 DU        -18.8100    4.1500   18.2500 H         7 CUB7        0.0000 
     91 DU        -17.5900    0.6300   21.1900 H         7 CUB7        0.0000 
     92 DU        -18.3300    1.7900   20.5900 H         7 CUB7        0.0000 
     93 DU        -19.0700    2.9500   19.9800 H         7 CUB7        0.0000 
     94 DU        -19.3200    1.7500   21.7100 H         7 CUB7        0.0000 
@<TRIPOS>BOND
@<TRIPOS>SUBSTRUCTURE
     1 SER1        1 GROUP   
     2 ALA2       10 GROUP   
     3 ASP3       21 GROUP   
     4 LYS4       34 GROUP   
     5 PHE5       40 GROUP   
     6 GLY6       62 GROUP   
     7 CUB7       83 GROUP   
@<TRIPOS>SET

