#    Name: 6pw3_1_GTG_CAVITY_N1_4
#    Modification time : Fri May 22 19:35:44 2020

@<TRIPOS>MOLECULE
6pw3_1_GTG_CAVITY_N1_4
   51     0     7     0     0
SMALL
NO_CHARGES


@<TRIPOS>ATOM
      1 OG        -13.7700    1.7100   18.6000 O.3       1 SER1        0.0000 
      2 OG        -15.0100    0.4700   21.4600 O.3       1 SER1        0.0000 
      3 OG        -16.0100    0.4300   22.5900 O.3       1 SER1        0.0000 
      4 OG        -14.1600    1.4300   22.2500 O.3       1 SER1        0.0000 
      5 OG        -12.5700    1.2200   23.6400 O.3       1 SER1        0.0000 
      6 OG        -13.3100    2.3800   23.0300 O.3       1 SER1        0.0000 
      7 OG        -14.3000    2.3400   24.1500 O.3       1 SER1        0.0000 
      8 OG        -12.7100    2.1400   25.5500 O.3       1 SER1        0.0000 
      9 O         -17.2000    0.9200   17.5500 O.2       2 ALA2        0.0000 
     10 O         -18.1900    0.8800   18.6800 O.2       2 ALA2        0.0000 
     11 OD1       -12.6000    4.2500   25.7200 O.co2     3 ASP3        0.0000 
     12 NZ        -20.0600    2.9100   21.1000 N.4       4 LYS4        0.0000 
     13 NZ        -18.4700    2.7100   22.5000 N.4       4 LYS4        0.0000 
     14 NZ        -19.2100    3.8600   21.8900 N.4       4 LYS4        0.0000 
     15 NZ        -19.9400    5.0200   21.2800 N.4       4 LYS4        0.0000 
     16 NZ        -17.6200    3.6600   23.2800 N.4       4 LYS4        0.0000 
     17 NZ        -15.1800    4.4100   25.4600 N.4       4 LYS4        0.0000 
     18 CZ        -15.3600    1.9100   17.2100 C.ar      5 PHE5        0.0000 
     19 CZ        -16.3500    1.8700   18.3400 C.ar      5 PHE5        0.0000 
     20 CZ        -18.0700    2.9900   18.8500 C.ar      5 PHE5        0.0000 
     21 CZ        -14.7600    1.6700   19.7300 C.ar      5 PHE5        0.0000 
     22 CZ        -15.7500    1.6300   20.8500 C.ar      5 PHE5        0.0000 
     23 CZ        -16.4900    2.7900   20.2500 C.ar      5 PHE5        0.0000 
     24 CZ        -17.9600    5.1000   19.0300 C.ar      5 PHE5        0.0000 
     25 CZ        -16.7400    1.5900   21.9800 C.ar      5 PHE5        0.0000 
     26 CZ        -18.2100    3.9000   20.7600 C.ar      5 PHE5        0.0000 
     27 CZ        -17.7300    1.5500   23.1000 C.ar      5 PHE5        0.0000 
     28 CZ        -14.9000    2.5800   21.6400 C.ar      5 PHE5        0.0000 
     29 CZ        -15.8900    2.5400   22.7600 C.ar      5 PHE5        0.0000 
     30 CZ        -16.6300    3.7000   22.1600 C.ar      5 PHE5        0.0000 
     31 CZ        -15.0400    3.5000   23.5500 C.ar      5 PHE5        0.0000 
     32 CZ        -16.0300    3.4600   24.6700 C.ar      5 PHE5        0.0000 
     33 CZ        -13.4500    3.2900   24.9400 C.ar      5 PHE5        0.0000 
     34 CZ        -14.1900    4.4500   24.3300 C.ar      5 PHE5        0.0000 
     35 CZ        -14.4400    3.2500   26.0600 C.ar      5 PHE5        0.0000 
     36 CA        -15.4700   -0.2000   17.0400 C.3       6 GLY6        0.0000 
     37 CA        -16.4600   -0.2400   18.1600 C.3       6 GLY6        0.0000 
     38 CA        -17.4500   -0.2800   19.2900 C.3       6 GLY6        0.0000 
     39 CA        -18.9500    5.0600   20.1600 C.3       6 GLY6        0.0000 
     40 CA        -11.7200    2.1800   24.4200 C.3       6 GLY6        0.0000 
     41 CA        -12.4600    3.3300   23.8100 C.3       6 GLY6        0.0000 
     42 DU        -15.7300   -1.4000   18.7700 H         7 CUB7        0.0000 
     43 DU        -14.6200    0.7500   17.8200 H         7 CUB7        0.0000 
     44 DU        -15.6100    0.7100   18.9400 H         7 CUB7        0.0000 
     45 DU        -15.8700   -0.4800   20.6800 H         7 CUB7        0.0000 
     46 DU        -16.6000    0.6700   20.0700 H         7 CUB7        0.0000 
     47 DU        -17.3400    1.8300   19.4600 H         7 CUB7        0.0000 
     48 DU        -17.5900    0.6300   21.1900 H         7 CUB7        0.0000 
     49 DU        -18.3300    1.7900   20.5900 H         7 CUB7        0.0000 
     50 DU        -19.0700    2.9500   19.9800 H         7 CUB7        0.0000 
     51 DU        -19.3200    1.7500   21.7100 H         7 CUB7        0.0000 
@<TRIPOS>BOND
@<TRIPOS>SUBSTRUCTURE
     1 SER1        1 GROUP   
     2 ALA2        9 GROUP   
     3 ASP3       11 GROUP   
     4 LYS4       12 GROUP   
     5 PHE5       18 GROUP   
     6 GLY6       36 GROUP   
     7 CUB7       42 GROUP   
@<TRIPOS>SET

