#    Name: 6pw3_1_GTG
#    Modification time : Fri May 22 19:35:43 2020

@<TRIPOS>MOLECULE
6pw3_1_GTG
   79    84     1     0     0
SMALL
NO_CHARGES


@<TRIPOS>ATOM
      1 PA         -8.3250    1.8520   20.6150 P.3       1 GTG1001     0.0000 
      2 O1A        -8.4150    1.3840   19.1820 O.co2     1 GTG1001     0.0000 
      3 O2A        -9.4440    2.8240   20.9090 O.co2     1 GTG1001     0.0000 
      4 O3A        -6.8770    2.5990   20.8460 O.3       1 GTG1001     0.0000 
      5 PB         -5.8930    2.9950   19.5910 P.3       1 GTG1001     0.0000 
      6 O1B        -5.5490    1.7380   18.8270 O.co2     1 GTG1001     0.0000 
      7 O2B        -4.6280    3.6360   20.1100 O.co2     1 GTG1001     0.0000 
      8 O3B        -6.6750    4.0420   18.5910 O.3       1 GTG1001     0.0000 
      9 N9A       -12.7770    1.4190   23.2250 N.pl3     1 GTG1001     0.0000 
     10 C8A       -13.0980    0.8610   22.0460 C.2       1 GTG1001     0.0000 
     11 N7A       -14.2570    1.4270   21.6520 N.pl3     1 GTG1001     0.0000 
     12 C7X       -14.8730    1.0250   20.3990 C.3       1 GTG1001     0.0000 
     13 C5A       -14.6310    2.3140   22.5750 C.2       1 GTG1001     0.0000 
     14 C6A       -15.8480    3.2430   22.6600 C.2       1 GTG1001     0.0000 
     15 O6A       -16.6560    3.2410   21.7950 O.2       1 GTG1001     0.0000 
     16 N1A       -16.0080    4.1130   23.7840 N.am      1 GTG1001     0.0000 
     17 C2A       -15.0210    4.1110   24.8320 C.2       1 GTG1001     0.0000 
     18 N2A       -15.1770    4.9910   25.9740 N.pl3     1 GTG1001     0.0000 
     19 N3A       -13.8620    3.2250   24.7470 N.2       1 GTG1001     0.0000 
     20 C4A       -13.6970    2.3170   23.5730 C.2       1 GTG1001     0.0000 
     21 O5D        -8.4320    0.5560   21.6260 O.3       1 GTG1001     0.0000 
     22 C5D        -9.6720    0.2570   22.1930 C.3       1 GTG1001     0.0000 
     23 C4D        -9.6700    0.6880   23.5130 C.3       1 GTG1001     0.0000 
     24 O4D       -10.6390    1.8230   23.6760 O.3       1 GTG1001     0.0000 
     25 C3D       -10.2100   -0.4430   24.5150 C.3       1 GTG1001     0.0000 
     26 O3D        -9.6200   -0.2320   25.8820 O.3       1 GTG1001     0.0000 
     27 C2D       -11.4360   -0.2810   24.5460 C.3       1 GTG1001     0.0000 
     28 O2D       -11.9440   -0.5790   25.9040 O.3       1 GTG1001     0.0000 
     29 C1D       -11.7320    1.3190   24.1810 C.3       1 GTG1001     0.0000 
     30 PG         -6.3850    4.1260   16.9720 P.3       1 GTG1001     0.0000 
     31 O1G        -7.7000    4.1160   16.2290 O.co2     1 GTG1001     0.0000 
     32 O2G        -5.5530    2.9400   16.5450 O.co2     1 GTG1001     0.0000 
     33 O5E        -5.5760    5.5200   16.6310 O.3       1 GTG1001     0.0000 
     34 C5E        -4.2690    5.6880   17.1030 C.3       1 GTG1001     0.0000 
     35 C4E        -3.2420    5.6930   15.9770 C.3       1 GTG1001     0.0000 
     36 O4E        -2.8010    4.1780   15.6220 O.3       1 GTG1001     0.0000 
     37 C3E        -3.7000    6.1990   14.8590 C.3       1 GTG1001     0.0000 
     38 O3E        -3.4780    7.6770   14.8310 O.3       1 GTG1001     0.0000 
     39 C2E        -2.8550    5.5160   13.7700 C.3       1 GTG1001     0.0000 
     40 O2E        -1.7280    6.2340   13.5280 O.3       1 GTG1001     0.0000 
     41 C1E        -2.4940    4.1340   14.3520 C.3       1 GTG1001     0.0000 
     42 N9B        -3.3130    3.0850   13.7050 N.pl3     1 GTG1001     0.0000 
     43 C8B        -4.5710    2.7160   13.4130 C.2       1 GTG1001     0.0000 
     44 N7B        -4.4990    1.5370   12.7670 N.2       1 GTG1001     0.0000 
     45 C5B        -3.2190    1.1870   12.6680 C.2       1 GTG1001     0.0000 
     46 C6B        -2.5570   -0.0460   12.0360 C.2       1 GTG1001     0.0000 
     47 O6B        -3.2240   -0.8810   11.5260 O.2       1 GTG1001     0.0000 
     48 N1B        -1.1350   -0.1880   12.0620 N.am      1 GTG1001     0.0000 
     49 C2B        -0.3330    0.8320   12.6850 C.2       1 GTG1001     0.0000 
     50 N2B         1.1120    0.7010   12.7200 N.pl3     1 GTG1001     0.0000 
     51 N3B        -0.9720    2.0010   13.2840 N.2       1 GTG1001     0.0000 
     52 C4B        -2.4580    2.1570   13.2600 C.2       1 GTG1001     0.0000 
     53 H8        -12.6160    0.2090   21.5910 H         1 GTG1001     0.0000 
     54 HC71      -15.8040    1.2960   20.3940 H         1 GTG1001     0.0000 
     55 HC72      -14.8160    0.0620   20.3050 H         1 GTG1001     0.0000 
     56 HC73      -14.4090    1.4500   19.6600 H         1 GTG1001     0.0000 
     57 HN1       -16.6900    4.6350   23.8330 H         1 GTG1001     0.0000 
     58 HN21      -15.8590    5.5130   26.0250 H         1 GTG1001     0.0000 
     59 HN22      -14.5880    4.9900   26.6010 H         1 GTG1001     0.0000 
     60 H5'1       -9.8220   -0.7010   22.1630 H         1 GTG1001     0.0000 
     61 H5'2      -10.3740    0.7130   21.7020 H         1 GTG1001     0.0000 
     62 H4'        -8.7800    0.9690   23.7770 H         1 GTG1001     0.0000 
     63 H3'        -9.9930   -1.3270   24.1780 H         1 GTG1001     0.0000 
     64 HO3'       -8.7720   -0.2380   25.8280 H         1 GTG1001     0.0000 
     65 H2'       -11.8630   -0.8550   23.8910 H         1 GTG1001     0.0000 
     66 HO2'      -11.4700   -0.1720   26.4790 H         1 GTG1001     0.0000 
     67 H1'       -11.9720    1.8000   24.9890 H         1 GTG1001     0.0000 
     68 H5B1       -4.0600    4.9650   17.7140 H         1 GTG1001     0.0000 
     69 H5B2       -4.2140    6.5300   17.5810 H         1 GTG1001     0.0000 
     70 H4B        -2.4590    6.1950   16.2550 H         1 GTG1001     0.0000 
     71 H3B        -4.6390    5.9850   14.7480 H         1 GTG1001     0.0000 
     72 H3BO       -3.6380    7.9730   14.0500 H         1 GTG1001     0.0000 
     73 H2B        -3.3750    5.4120   12.9580 H         1 GTG1001     0.0000 
     74 H2BO       -1.7020    6.4510   12.7060 H         1 GTG1001     0.0000 
     75 H1B        -1.5480    3.9540   14.2380 H         1 GTG1001     0.0000 
     76 H8B        -5.3460    3.1880   13.6160 H         1 GTG1001     0.0000 
     77 H1BN       -0.7620   -0.8770   11.7090 H         1 GTG1001     0.0000 
     78 H2B1        1.4900    0.0140   12.3680 H         1 GTG1001     0.0000 
     79 H2B2        1.5900    1.3110   13.0930 H         1 GTG1001     0.0000 
@<TRIPOS>BOND
     1    1    2 ar   
     2    1    3 ar   
     3    1    4 1    
     4    1   21 1    
     5    4    5 1    
     6    5    6 ar   
     7    5    7 ar   
     8    5    8 1    
     9    8   30 1    
    10    9   10 1    
    11    9   20 1    
    12    9   29 1    
    13   10   11 2    
    14   11   12 1    
    15   10   53 1    
    16   11   13 1    
    17   12   54 1    
    18   12   55 1    
    19   12   56 1    
    20   13   14 1    
    21   13   20 2    
    22   14   15 2    
    23   14   16 am   
    24   16   17 1    
    25   17   18 1    
    26   16   57 1    
    27   17   19 2    
    28   19   20 1    
    29   18   58 1    
    30   18   59 1    
    31   21   22 1    
    32   22   23 1    
    33   22   60 1    
    34   22   61 1    
    35   23   24 1    
    36   23   25 1    
    37   23   62 1    
    38   24   29 1    
    39   25   26 1    
    40   25   27 1    
    41   25   63 1    
    42   27   65 1    
    43   27   28 1    
    44   26   64 1    
    45   27   29 1    
    46   29   67 1    
    47   28   66 1    
    48   30   31 ar   
    49   30   32 ar   
    50   30   33 1    
    51   33   34 1    
    52   34   35 1    
    53   34   68 1    
    54   34   69 1    
    55   35   36 1    
    56   35   37 1    
    57   35   70 1    
    58   37   71 1    
    59   36   41 1    
    60   37   38 1    
    61   37   39 1    
    62   39   40 1    
    63   38   72 1    
    64   39   41 1    
    65   39   73 1    
    66   40   74 1    
    67   41   42 1    
    68   41   75 1    
    69   42   43 1    
    70   42   52 1    
    71   43   44 2    
    72   44   45 1    
    73   43   76 1    
    74   45   46 1    
    75   45   52 2    
    76   46   47 2    
    77   46   48 am   
    78   48   49 1    
    79   49   50 1    
    80   48   77 1    
    81   49   51 2    
    82   51   52 1    
    83   50   78 1    
    84   50   79 1    
@<TRIPOS>SUBSTRUCTURE
     1 GTG1001     1 GROUP   
@<TRIPOS>SET

