#    Name: 6jb1_7_AGS
#    Modification time : Fri May 22 19:27:11 2020

@<TRIPOS>MOLECULE
6jb1_7_AGS
   31    33     1     0     0
SMALL
NO_CHARGES


@<TRIPOS>ATOM
      1 PG        193.0010  146.3320  181.9890 P.3       1 AGS401      0.0000 
      2 S1G       193.0820  146.5880  179.9300 S.2       1 AGS401      0.0000 
      3 O2G       191.4630  146.4360  182.4570 O.3       1 AGS401      0.0000 
      4 O3G       193.5490  145.0050  182.3620 O.3       1 AGS401      0.0000 
      5 PB        193.6380  147.8000  184.2740 P.3       1 AGS401      0.0000 
      6 O1B       192.1550  147.9410  184.5320 O.co2     1 AGS401      0.0000 
      7 O2B       194.2110  146.6640  185.0920 O.co2     1 AGS401      0.0000 
      8 O3B       193.8610  147.4880  182.7110 O.3       1 AGS401      0.0000 
      9 PA        193.8550  150.1850  185.7770 P.3       1 AGS401      0.0000 
     10 O1A       193.2470  149.4180  186.9300 O.co2     1 AGS401      0.0000 
     11 O2A       195.0130  151.0300  186.2630 O.co2     1 AGS401      0.0000 
     12 O3A       194.4090  149.1630  184.6570 O.3       1 AGS401      0.0000 
     13 O5'       192.7240  151.1370  185.1250 O.3       1 AGS401      0.0000 
     14 C5'       191.3860  150.6800  184.9220 C.3       1 AGS401      0.0000 
     15 C4'       190.8160  151.2870  183.6440 C.3       1 AGS401      0.0000 
     16 O4'       191.5300  152.4840  183.3310 O.3       1 AGS401      0.0000 
     17 C3'       190.9310  150.3500  182.4470 C.3       1 AGS401      0.0000 
     18 O3'       189.6320  150.0810  181.9090 O.3       1 AGS401      0.0000 
     19 C2'       191.7650  151.0860  181.4180 C.3       1 AGS401      0.0000 
     20 O2'       191.0900  151.1170  180.1550 O.3       1 AGS401      0.0000 
     21 C1'       191.9250  152.4970  181.9590 C.3       1 AGS401      0.0000 
     22 N9        193.3430  152.9050  181.8910 N.pl3     1 AGS401      0.0000 
     23 C8        194.3230  152.4900  182.7160 C.2       1 AGS401      0.0000 
     24 N7        195.5100  153.0550  182.3880 N.2       1 AGS401      0.0000 
     25 C5        195.2870  153.8570  181.3320 C.ar      1 AGS401      0.0000 
     26 C6        196.1040  154.7510  180.4870 C.ar      1 AGS401      0.0000 
     27 N6        197.4330  154.9040  180.7110 N.pl3     1 AGS401      0.0000 
     28 N1        195.4730  155.4060  179.4860 N.ar      1 AGS401      0.0000 
     29 C2        194.1570  155.2600  179.2490 C.ar      1 AGS401      0.0000 
     30 N3        193.3580  154.4640  179.9740 N.ar      1 AGS401      0.0000 
     31 C4        193.8570  153.7540  181.0090 C.ar      1 AGS401      0.0000 
@<TRIPOS>BOND
     1    1    2 2    
     2    1    3 1    
     3    1    4 1    
     4    1    8 1    
     5    5    6 ar   
     6    5    7 ar   
     7    5    8 1    
     8    5   12 1    
     9    9   10 ar   
    10    9   11 ar   
    11    9   12 1    
    12    9   13 1    
    13   13   14 1    
    14   14   15 1    
    15   15   16 1    
    16   15   17 1    
    17   16   21 1    
    18   17   18 1    
    19   17   19 1    
    20   19   20 1    
    21   19   21 1    
    22   21   22 1    
    23   22   23 1    
    24   22   31 1    
    25   23   24 2    
    26   24   25 1    
    27   25   26 ar   
    28   25   31 ar   
    29   26   27 1    
    30   26   28 ar   
    31   28   29 ar   
    32   29   30 ar   
    33   30   31 ar   
@<TRIPOS>SUBSTRUCTURE
     1 AGS401      1 GROUP   
@<TRIPOS>SET

