#    Name: 6jb1_5_AGS
#    Modification time : Fri May 22 19:26:46 2020

@<TRIPOS>MOLECULE
6jb1_5_AGS
   31    33     1     0     0
SMALL
NO_CHARGES


@<TRIPOS>ATOM
      1 PG        146.3320  145.9430  181.9890 P.3       1 AGS401      0.0000 
      2 S1G       146.5880  145.8620  179.9300 S.2       1 AGS401      0.0000 
      3 O2G       146.4360  147.4810  182.4570 O.3       1 AGS401      0.0000 
      4 O3G       145.0050  145.3950  182.3620 O.3       1 AGS401      0.0000 
      5 PB        147.8000  145.3060  184.2740 P.3       1 AGS401      0.0000 
      6 O1B       147.9410  146.7890  184.5320 O.co2     1 AGS401      0.0000 
      7 O2B       146.6640  144.7330  185.0920 O.co2     1 AGS401      0.0000 
      8 O3B       147.4880  145.0830  182.7110 O.3       1 AGS401      0.0000 
      9 PA        150.1850  145.0890  185.7770 P.3       1 AGS401      0.0000 
     10 O1A       149.4180  145.6970  186.9300 O.co2     1 AGS401      0.0000 
     11 O2A       151.0300  143.9310  186.2630 O.co2     1 AGS401      0.0000 
     12 O3A       149.1630  144.5350  184.6570 O.3       1 AGS401      0.0000 
     13 O5'       151.1370  146.2200  185.1250 O.3       1 AGS401      0.0000 
     14 C5'       150.6800  147.5580  184.9220 C.3       1 AGS401      0.0000 
     15 C4'       151.2870  148.1280  183.6440 C.3       1 AGS401      0.0000 
     16 O4'       152.4840  147.4140  183.3310 O.3       1 AGS401      0.0000 
     17 C3'       150.3500  148.0130  182.4470 C.3       1 AGS401      0.0000 
     18 O3'       150.0810  149.3120  181.9090 O.3       1 AGS401      0.0000 
     19 C2'       151.0860  147.1790  181.4180 C.3       1 AGS401      0.0000 
     20 O2'       151.1170  147.8540  180.1550 O.3       1 AGS401      0.0000 
     21 C1'       152.4970  147.0190  181.9590 C.3       1 AGS401      0.0000 
     22 N9        152.9050  145.6010  181.8910 N.pl3     1 AGS401      0.0000 
     23 C8        152.4900  144.6210  182.7160 C.2       1 AGS401      0.0000 
     24 N7        153.0550  143.4340  182.3880 N.2       1 AGS401      0.0000 
     25 C5        153.8570  143.6570  181.3320 C.ar      1 AGS401      0.0000 
     26 C6        154.7510  142.8400  180.4870 C.ar      1 AGS401      0.0000 
     27 N6        154.9040  141.5110  180.7110 N.pl3     1 AGS401      0.0000 
     28 N1        155.4060  143.4710  179.4860 N.ar      1 AGS401      0.0000 
     29 C2        155.2600  144.7870  179.2490 C.ar      1 AGS401      0.0000 
     30 N3        154.4640  145.5860  179.9740 N.ar      1 AGS401      0.0000 
     31 C4        153.7540  145.0870  181.0090 C.ar      1 AGS401      0.0000 
@<TRIPOS>BOND
     1    1    2 2    
     2    1    3 1    
     3    1    4 1    
     4    1    8 1    
     5    5    6 ar   
     6    5    7 ar   
     7    5    8 1    
     8    5   12 1    
     9    9   10 ar   
    10    9   11 ar   
    11    9   12 1    
    12    9   13 1    
    13   13   14 1    
    14   14   15 1    
    15   15   16 1    
    16   15   17 1    
    17   16   21 1    
    18   17   18 1    
    19   17   19 1    
    20   19   20 1    
    21   19   21 1    
    22   21   22 1    
    23   22   23 1    
    24   22   31 1    
    25   23   24 2    
    26   24   25 1    
    27   25   26 ar   
    28   25   31 ar   
    29   26   27 1    
    30   26   28 ar   
    31   28   29 ar   
    32   29   30 ar   
    33   30   31 ar   
@<TRIPOS>SUBSTRUCTURE
     1 AGS401      1 GROUP   
@<TRIPOS>SET

