#    Name: 6jb1_3_AGS
#    Modification time : Fri May 22 19:26:23 2020

@<TRIPOS>MOLECULE
6jb1_3_AGS
   31    33     1     0     0
SMALL
NO_CHARGES


@<TRIPOS>ATOM
      1 PG        145.9430  192.6120  181.9890 P.3       1 AGS401      0.0000 
      2 S1G       145.8620  192.3560  179.9300 S.2       1 AGS401      0.0000 
      3 O2G       147.4810  192.5080  182.4570 O.3       1 AGS401      0.0000 
      4 O3G       145.3950  193.9390  182.3620 O.3       1 AGS401      0.0000 
      5 PB        145.3060  191.1440  184.2740 P.3       1 AGS401      0.0000 
      6 O1B       146.7890  191.0030  184.5320 O.co2     1 AGS401      0.0000 
      7 O2B       144.7330  192.2800  185.0920 O.co2     1 AGS401      0.0000 
      8 O3B       145.0830  191.4560  182.7110 O.3       1 AGS401      0.0000 
      9 PA        145.0890  188.7590  185.7770 P.3       1 AGS401      0.0000 
     10 O1A       145.6970  189.5260  186.9300 O.co2     1 AGS401      0.0000 
     11 O2A       143.9310  187.9140  186.2630 O.co2     1 AGS401      0.0000 
     12 O3A       144.5350  189.7810  184.6570 O.3       1 AGS401      0.0000 
     13 O5'       146.2200  187.8070  185.1250 O.3       1 AGS401      0.0000 
     14 C5'       147.5580  188.2640  184.9220 C.3       1 AGS401      0.0000 
     15 C4'       148.1280  187.6570  183.6440 C.3       1 AGS401      0.0000 
     16 O4'       147.4140  186.4600  183.3310 O.3       1 AGS401      0.0000 
     17 C3'       148.0130  188.5940  182.4470 C.3       1 AGS401      0.0000 
     18 O3'       149.3120  188.8630  181.9090 O.3       1 AGS401      0.0000 
     19 C2'       147.1790  187.8580  181.4180 C.3       1 AGS401      0.0000 
     20 O2'       147.8540  187.8270  180.1550 O.3       1 AGS401      0.0000 
     21 C1'       147.0190  186.4470  181.9590 C.3       1 AGS401      0.0000 
     22 N9        145.6010  186.0390  181.8910 N.pl3     1 AGS401      0.0000 
     23 C8        144.6210  186.4540  182.7160 C.2       1 AGS401      0.0000 
     24 N7        143.4340  185.8890  182.3880 N.2       1 AGS401      0.0000 
     25 C5        143.6570  185.0870  181.3320 C.ar      1 AGS401      0.0000 
     26 C6        142.8400  184.1930  180.4870 C.ar      1 AGS401      0.0000 
     27 N6        141.5110  184.0400  180.7110 N.pl3     1 AGS401      0.0000 
     28 N1        143.4710  183.5380  179.4860 N.ar      1 AGS401      0.0000 
     29 C2        144.7870  183.6840  179.2490 C.ar      1 AGS401      0.0000 
     30 N3        145.5860  184.4800  179.9740 N.ar      1 AGS401      0.0000 
     31 C4        145.0870  185.1900  181.0090 C.ar      1 AGS401      0.0000 
@<TRIPOS>BOND
     1    1    2 2    
     2    1    3 1    
     3    1    4 1    
     4    1    8 1    
     5    5    6 ar   
     6    5    7 ar   
     7    5    8 1    
     8    5   12 1    
     9    9   10 ar   
    10    9   11 ar   
    11    9   12 1    
    12    9   13 1    
    13   13   14 1    
    14   14   15 1    
    15   15   16 1    
    16   15   17 1    
    17   16   21 1    
    18   17   18 1    
    19   17   19 1    
    20   19   20 1    
    21   19   21 1    
    22   21   22 1    
    23   22   23 1    
    24   22   31 1    
    25   23   24 2    
    26   24   25 1    
    27   25   26 ar   
    28   25   31 ar   
    29   26   27 1    
    30   26   28 ar   
    31   28   29 ar   
    32   29   30 ar   
    33   30   31 ar   
@<TRIPOS>SUBSTRUCTURE
     1 AGS401      1 GROUP   
@<TRIPOS>SET

