#    Name: 6jb1_1_AGS
#    Modification time : Fri May 22 19:25:58 2020

@<TRIPOS>MOLECULE
6jb1_1_AGS
   31    33     1     0     0
SMALL
NO_CHARGES


@<TRIPOS>ATOM
      1 PG        192.6120  193.0010  181.9890 P.3       1 AGS402      0.0000 
      2 S1G       192.3560  193.0820  179.9300 S.2       1 AGS402      0.0000 
      3 O2G       192.5080  191.4630  182.4570 O.3       1 AGS402      0.0000 
      4 O3G       193.9390  193.5490  182.3620 O.3       1 AGS402      0.0000 
      5 PB        191.1440  193.6380  184.2740 P.3       1 AGS402      0.0000 
      6 O1B       191.0030  192.1550  184.5320 O.co2     1 AGS402      0.0000 
      7 O2B       192.2800  194.2110  185.0920 O.co2     1 AGS402      0.0000 
      8 O3B       191.4560  193.8610  182.7110 O.3       1 AGS402      0.0000 
      9 PA        188.7590  193.8550  185.7770 P.3       1 AGS402      0.0000 
     10 O1A       189.5260  193.2470  186.9300 O.co2     1 AGS402      0.0000 
     11 O2A       187.9140  195.0130  186.2630 O.co2     1 AGS402      0.0000 
     12 O3A       189.7810  194.4090  184.6570 O.3       1 AGS402      0.0000 
     13 O5'       187.8070  192.7240  185.1250 O.3       1 AGS402      0.0000 
     14 C5'       188.2640  191.3860  184.9220 C.3       1 AGS402      0.0000 
     15 C4'       187.6570  190.8160  183.6440 C.3       1 AGS402      0.0000 
     16 O4'       186.4600  191.5300  183.3310 O.3       1 AGS402      0.0000 
     17 C3'       188.5940  190.9310  182.4470 C.3       1 AGS402      0.0000 
     18 O3'       188.8630  189.6320  181.9090 O.3       1 AGS402      0.0000 
     19 C2'       187.8580  191.7650  181.4180 C.3       1 AGS402      0.0000 
     20 O2'       187.8270  191.0900  180.1550 O.3       1 AGS402      0.0000 
     21 C1'       186.4470  191.9250  181.9590 C.3       1 AGS402      0.0000 
     22 N9        186.0390  193.3430  181.8910 N.pl3     1 AGS402      0.0000 
     23 C8        186.4540  194.3230  182.7160 C.2       1 AGS402      0.0000 
     24 N7        185.8890  195.5100  182.3880 N.2       1 AGS402      0.0000 
     25 C5        185.0870  195.2870  181.3320 C.ar      1 AGS402      0.0000 
     26 C6        184.1930  196.1040  180.4870 C.ar      1 AGS402      0.0000 
     27 N6        184.0400  197.4330  180.7110 N.pl3     1 AGS402      0.0000 
     28 N1        183.5380  195.4730  179.4860 N.ar      1 AGS402      0.0000 
     29 C2        183.6840  194.1570  179.2490 C.ar      1 AGS402      0.0000 
     30 N3        184.4800  193.3580  179.9740 N.ar      1 AGS402      0.0000 
     31 C4        185.1900  193.8570  181.0090 C.ar      1 AGS402      0.0000 
@<TRIPOS>BOND
     1    1    2 2    
     2    1    3 1    
     3    1    4 1    
     4    1    8 1    
     5    5    6 ar   
     6    5    7 ar   
     7    5    8 1    
     8    5   12 1    
     9    9   10 ar   
    10    9   11 ar   
    11    9   12 1    
    12    9   13 1    
    13   13   14 1    
    14   14   15 1    
    15   15   16 1    
    16   15   17 1    
    17   16   21 1    
    18   17   18 1    
    19   17   19 1    
    20   19   20 1    
    21   19   21 1    
    22   21   22 1    
    23   22   23 1    
    24   22   31 1    
    25   23   24 2    
    26   24   25 1    
    27   25   26 ar   
    28   25   31 ar   
    29   26   27 1    
    30   26   28 ar   
    31   28   29 ar   
    32   29   30 ar   
    33   30   31 ar   
@<TRIPOS>SUBSTRUCTURE
     1 AGS402      1 GROUP   
@<TRIPOS>SET

