#    Name: 6ayl_1_FLU
#    Modification time : Fri May 22 19:28:36 2020

@<TRIPOS>MOLECULE
6ayl_1_FLU
   25    28     1     0     0
SMALL
NO_CHARGES


@<TRIPOS>ATOM
      1 C1          1.7540    4.4150   17.1970 C.2       1 FLU201      0.0000 
      2 O1          0.7100    3.5420   17.3000 O.2       1 FLU201      0.0000 
      3 C2          1.5520    5.6690   16.6310 C.2       1 FLU201      0.0000 
      4 C3          2.6340    6.5230   16.4990 C.2       1 FLU201      0.0000 
      5 O2          2.3690    7.7710   15.9490 O.3       1 FLU201      0.0000 
      6 C4          3.3620    8.7110   15.8300 C.ar      1 FLU201      0.0000 
      7 C5          3.0230    9.9100   15.2710 C.ar      1 FLU201      0.0000 
      8 C6          4.0100   10.9680   15.1380 C.ar      1 FLU201      0.0000 
      9 O3          3.7610   12.0100   14.5300 O.3       1 FLU201      0.0000 
     10 C7          5.3390   10.6990   15.6780 C.ar      1 FLU201      0.0000 
     11 C8          5.6480    9.4950   16.2060 C.ar      1 FLU201      0.0000 
     12 C9          4.7010    8.4190   16.2930 C.ar      1 FLU201      0.0000 
     13 C10         4.9860    7.1590   16.8020 C.2       1 FLU201      0.0000 
     14 C11         3.9160    6.1610   16.9240 C.2       1 FLU201      0.0000 
     15 C12         4.0900    4.8940   17.4860 C.2       1 FLU201      0.0000 
     16 C13         3.0190    4.0290   17.6270 C.2       1 FLU201      0.0000 
     17 C14         6.3760    6.7830   17.1730 C.ar      1 FLU201      0.0000 
     18 C15         6.8430    7.1610   18.4370 C.ar      1 FLU201      0.0000 
     19 C16         8.1370    6.8490   18.8220 C.ar      1 FLU201      0.0000 
     20 C17         8.9750    6.1720   17.9600 C.ar      1 FLU201      0.0000 
     21 C18         8.5270    5.7860   16.7030 C.ar      1 FLU201      0.0000 
     22 C19         7.2240    6.0820   16.2980 C.ar      1 FLU201      0.0000 
     23 C20         6.7800    5.6550   14.9370 C.2       1 FLU201      0.0000 
     24 O4          6.4650    6.4620   14.0750 O.co2     1 FLU201      0.0000 
     25 O5          6.7500    4.3740   14.7390 O.co2     1 FLU201      0.0000 
@<TRIPOS>BOND
     1    1    2 2    
     2    1    3 1    
     3    1   16 1    
     4    3    4 2    
     5    4    5 1    
     6    4   14 1    
     7    5    6 1    
     8    6    7 ar   
     9    6   12 ar   
    10    7    8 ar   
    11    8    9 1    
    12    8   10 ar   
    13   10   11 ar   
    14   11   12 ar   
    15   12   13 1    
    16   13   14 2    
    17   13   17 1    
    18   14   15 1    
    19   15   16 2    
    20   17   18 ar   
    21   17   22 ar   
    22   18   19 ar   
    23   19   20 ar   
    24   20   21 ar   
    25   21   22 ar   
    26   22   23 1    
    27   23   24 ar   
    28   23   25 ar   
@<TRIPOS>SUBSTRUCTURE
     1 FLU201      1 GROUP   
@<TRIPOS>SET

