#    Name: 6ayl_2_FLU
#    Modification time : Fri May 22 19:28:38 2020

@<TRIPOS>MOLECULE
6ayl_2_FLU
   25    28     1     0     0
SMALL
NO_CHARGES


@<TRIPOS>ATOM
      1 C1          3.1550   11.3920   18.5450 C.2       1 FLU202      0.0000 
      2 O1          3.1180   12.5250   17.7870 O.2       1 FLU202      0.0000 
      3 C2          4.3040   11.0810   19.2620 C.2       1 FLU202      0.0000 
      4 C3          4.3230    9.9190   20.0120 C.2       1 FLU202      0.0000 
      5 O2          5.5110    9.6380   20.6620 O.3       1 FLU202      0.0000 
      6 C4          5.6470    8.5020   21.4200 C.ar      1 FLU202      0.0000 
      7 C5          6.8430    8.3180   22.0340 C.ar      1 FLU202      0.0000 
      8 C6          7.0640    7.1690   22.8960 C.ar      1 FLU202      0.0000 
      9 O3          8.1590    6.9710   23.4480 O.3       1 FLU202      0.0000 
     10 C7          5.9460    6.2410   23.0520 C.ar      1 FLU202      0.0000 
     11 C8          4.7710    6.4460   22.4120 C.ar      1 FLU202      0.0000 
     12 C9          4.5390    7.5740   21.5640 C.ar      1 FLU202      0.0000 
     13 C10         3.3350    7.8380   20.9140 C.2       1 FLU202      0.0000 
     14 C11         3.2180    9.0600   20.0860 C.2       1 FLU202      0.0000 
     15 C12         2.0780    9.4020   19.3590 C.2       1 FLU202      0.0000 
     16 C13         2.0460   10.5560   18.5940 C.2       1 FLU202      0.0000 
     17 C14         2.1280    6.9790   21.1370 C.ar      1 FLU202      0.0000 
     18 C15         1.9830    5.8240   20.3670 C.ar      1 FLU202      0.0000 
     19 C16         0.8880    4.9930   20.5520 C.ar      1 FLU202      0.0000 
     20 C17        -0.0590    5.2890   21.5160 C.ar      1 FLU202      0.0000 
     21 C18         0.0680    6.4300   22.2950 C.ar      1 FLU202      0.0000 
     22 C19         1.1460    7.2980   22.0940 C.ar      1 FLU202      0.0000 
     23 C20         1.1880    8.6030   22.8240 C.2       1 FLU202      0.0000 
     24 O4          0.1100    9.3430   22.6950 O.co2     1 FLU202      0.0000 
     25 O5          2.1840    8.9640   23.4470 O.co2     1 FLU202      0.0000 
@<TRIPOS>BOND
     1    1    2 2    
     2    1    3 1    
     3    1   16 1    
     4    3    4 2    
     5    4    5 1    
     6    4   14 1    
     7    5    6 1    
     8    6    7 ar   
     9    6   12 ar   
    10    7    8 ar   
    11    8    9 1    
    12    8   10 ar   
    13   10   11 ar   
    14   11   12 ar   
    15   12   13 1    
    16   13   14 2    
    17   13   17 1    
    18   14   15 1    
    19   15   16 2    
    20   17   18 ar   
    21   17   22 ar   
    22   18   19 ar   
    23   19   20 ar   
    24   20   21 ar   
    25   21   22 ar   
    26   22   23 1    
    27   23   24 ar   
    28   23   25 ar   
@<TRIPOS>SUBSTRUCTURE
     1 FLU202      1 GROUP   
@<TRIPOS>SET

