#    Name: 5zbl_2_AMP
#    Modification time : Fri May 22 19:23:52 2020

@<TRIPOS>MOLECULE
5zbl_2_AMP
   23    25     1     0     1
SMALL
NO_CHARGES


@<TRIPOS>ATOM
      1 P          11.5600  -20.0560  -30.7440 P.3       1 AMP301      0.0000 
      2 O1P        12.8770  -19.8290  -31.4630 O.co2     1 AMP301      0.0000 
      3 O2P        11.4250  -21.4040  -30.1170 O.co2     1 AMP301      0.0000 
      4 O3P        11.1000  -19.0150  -29.7530 O.co2     1 AMP301      0.0000 
      5 O5'        10.4810  -19.9790  -31.9200 O.3       1 AMP301      0.0000 
      6 C5'        10.5160  -18.8460  -32.8200 C.3       1 AMP301      0.0000 
      7 C4'         9.5330  -18.8760  -34.0090 C.3       1 AMP301      0.0000 
      8 O4'         9.5590  -20.1570  -34.6400 O.3       1 AMP301      0.0000 
      9 C3'         8.0580  -18.5770  -33.6680 C.3       1 AMP301      0.0000 
     10 O3'         7.5040  -17.6480  -34.6270 O.3       1 AMP301      0.0000 
     11 C2'         7.3600  -19.9360  -33.7320 C.3       1 AMP301      0.0000 
     12 O2'         5.9670  -19.8630  -34.0960 O.3       1 AMP301      0.0000 
     13 C1'         8.1970  -20.5860  -34.8260 C.3       1 AMP301      0.0000 
     14 N9          8.1380  -22.0640  -34.9080 N.pl3     1 AMP301      0.0000 
     15 C8          8.3440  -22.9680  -33.9370 C.2       1 AMP301      0.0000 
     16 N7          8.2180  -24.2290  -34.4420 N.2       1 AMP301      0.0000 
     17 C5          7.9340  -24.1360  -35.7650 C.ar      1 AMP301      0.0000 
     18 C6          7.6550  -25.0560  -36.9150 C.ar      1 AMP301      0.0000 
     19 N6          7.6680  -26.4020  -36.7700 N.pl3     1 AMP301      0.0000 
     20 N1          7.3770  -24.4950  -38.1310 N.ar      1 AMP301      0.0000 
     21 C2          7.3530  -23.1480  -38.3170 C.ar      1 AMP301      0.0000 
     22 N3          7.5980  -22.2710  -37.3200 N.ar      1 AMP301      0.0000 
     23 C4          7.8850  -22.6920  -36.0550 C.ar      1 AMP301      0.0000 
@<TRIPOS>BOND
     1    1    2 ar   
     2    1    3 ar   
     3    1    4 ar   
     4    1    5 1    
     5    5    6 1    
     6    6    7 1    
     7    7    8 1    
     8    7    9 1    
     9    8   13 1    
    10    9   10 1    
    11    9   11 1    
    12   11   12 1    
    13   11   13 1    
    14   13   14 1    
    15   14   15 1    
    16   14   23 1    
    17   15   16 2    
    18   16   17 1    
    19   17   18 ar   
    20   17   23 ar   
    21   18   19 1    
    22   18   20 ar   
    23   20   21 ar   
    24   21   22 ar   
    25   22   23 ar   
@<TRIPOS>SUBSTRUCTURE
     1 AMP301      1 GROUP   
@<TRIPOS>SET
ATOM$ORANGE STATIC     ATOMS   COLORGROUP SYSTEM 
20 6 6 7 7 9 9 11 11 13 13 15 15 17 17 18 18 21 \
21 23 23 

