#    Name: 5zbl_1_AMP
#    Modification time : Fri May 22 19:23:49 2020

@<TRIPOS>MOLECULE
5zbl_1_AMP
   23    25     1     0     1
SMALL
NO_CHARGES


@<TRIPOS>ATOM
      1 P          20.4020  -35.7450  -45.0200 P.3       1 AMP301      0.0000 
      2 O1P        21.2350  -36.7880  -45.6970 O.co2     1 AMP301      0.0000 
      3 O2P        20.7550  -34.3440  -45.4370 O.co2     1 AMP301      0.0000 
      4 O3P        20.2740  -35.9380  -43.5290 O.co2     1 AMP301      0.0000 
      5 O5'        18.9170  -35.9690  -45.6250 O.3       1 AMP301      0.0000 
      6 C5'        18.0080  -36.9350  -45.0590 C.3       1 AMP301      0.0000 
      7 C4'        16.5480  -36.8580  -45.5380 C.3       1 AMP301      0.0000 
      8 O4'        15.9700  -35.6230  -45.1440 O.3       1 AMP301      0.0000 
      9 C3'        16.2770  -36.9910  -47.0520 C.3       1 AMP301      0.0000 
     10 O3'        15.3330  -38.0660  -47.2580 O.3       1 AMP301      0.0000 
     11 C2'        15.7010  -35.6460  -47.4780 C.3       1 AMP301      0.0000 
     12 O2'        14.6520  -35.6600  -48.4510 O.3       1 AMP301      0.0000 
     13 C1'        15.0760  -35.1910  -46.1730 C.3       1 AMP301      0.0000 
     14 N9         14.8420  -33.7300  -46.1620 N.pl3     1 AMP301      0.0000 
     15 C8         15.7530  -32.7760  -46.3940 C.2       1 AMP301      0.0000 
     16 N7         15.1900  -31.5560  -46.2930 N.2       1 AMP301      0.0000 
     17 C5         13.9120  -31.7060  -46.0110 C.ar      1 AMP301      0.0000 
     18 C6         12.7910  -30.7850  -45.7830 C.ar      1 AMP301      0.0000 
     19 N6         13.0140  -29.4520  -45.8640 N.pl3     1 AMP301      0.0000 
     20 N1         11.5880  -31.3500  -45.4940 N.ar      1 AMP301      0.0000 
     21 C2         11.4470  -32.7010  -45.4230 C.ar      1 AMP301      0.0000 
     22 N3         12.4400  -33.5890  -45.6240 N.ar      1 AMP301      0.0000 
     23 C4         13.6780  -33.1490  -45.9140 C.ar      1 AMP301      0.0000 
@<TRIPOS>BOND
     1    1    2 ar   
     2    1    3 ar   
     3    1    4 ar   
     4    1    5 1    
     5    5    6 1    
     6    6    7 1    
     7    7    8 1    
     8    7    9 1    
     9    8   13 1    
    10    9   10 1    
    11    9   11 1    
    12   11   12 1    
    13   11   13 1    
    14   13   14 1    
    15   14   15 1    
    16   14   23 1    
    17   15   16 2    
    18   16   17 1    
    19   17   18 ar   
    20   17   23 ar   
    21   18   19 1    
    22   18   20 ar   
    23   20   21 ar   
    24   21   22 ar   
    25   22   23 ar   
@<TRIPOS>SUBSTRUCTURE
     1 AMP301      1 GROUP   
@<TRIPOS>SET
ATOM$ORANGE STATIC     ATOMS   COLORGROUP SYSTEM 
20 6 6 7 7 9 9 11 11 13 13 15 15 17 17 18 18 21 \
21 23 23 

