#    Name: 6r2e_8_FFO
#    Modification time : Fri May 22 19:27:05 2020

@<TRIPOS>MOLECULE
6r2e_8_FFO
   34    36     1     0     0
SMALL
NO_CHARGES


@<TRIPOS>ATOM
      1 N1         97.1490   -0.2050  -30.9120 N.2       1 FFO403      0.0000 
      2 C2         96.8330   -0.6480  -29.6590 C.2       1 FFO403      0.0000 
      3 NA2        97.0930    0.1500  -28.6220 N.pl3     1 FFO403      0.0000 
      4 N3         96.2900   -1.8460  -29.4460 N.am      1 FFO403      0.0000 
      5 C4         96.0320   -2.6610  -30.5010 C.2       1 FFO403      0.0000 
      6 O4         95.5020   -3.7520  -30.2390 O.2       1 FFO403      0.0000 
      7 C4A        96.3360   -2.2590  -31.8060 C.2       1 FFO403      0.0000 
      8 N5         96.0560   -3.0690  -32.9460 N.am      1 FFO403      0.0000 
      9 C6         95.6940   -2.2800  -34.1510 C.3       1 FFO403      0.0000 
     10 C7         96.8010   -1.2560  -34.4680 C.3       1 FFO403      0.0000 
     11 N8         97.2110   -0.5380  -33.2700 N.pl3     1 FFO403      0.0000 
     12 C8A        96.9050   -0.9880  -32.0040 C.2       1 FFO403      0.0000 
     13 C9         94.2860   -1.6520  -33.9930 C.3       1 FFO403      0.0000 
     14 N10        93.3480   -2.4040  -33.1670 N.pl3     1 FFO403      0.0000 
     15 C11        90.4180   -0.6340  -30.7430 C.ar      1 FFO403      0.0000 
     16 C12        90.2550   -1.9430  -31.1940 C.ar      1 FFO403      0.0000 
     17 C13        91.2140   -2.5390  -31.9940 C.ar      1 FFO403      0.0000 
     18 C14        92.3700   -1.8240  -32.3620 C.ar      1 FFO403      0.0000 
     19 C15        92.5350   -0.5130  -31.8930 C.ar      1 FFO403      0.0000 
     20 C16        91.5660    0.0680  -31.1000 C.ar      1 FFO403      0.0000 
     21 C          89.3890    0.0600  -29.8970 C.2       1 FFO403      0.0000 
     22 O          89.5960    1.1810  -29.4270 O.2       1 FFO403      0.0000 
     23 N          88.2380   -0.5790  -29.7090 N.am      1 FFO403      0.0000 
     24 CA         87.2350   -0.0610  -28.7950 C.3       1 FFO403      0.0000 
     25 CB         86.2380    0.8380  -29.5400 C.3       1 FFO403      0.0000 
     26 CG         85.3080    0.0930  -30.4840 C.3       1 FFO403      0.0000 
     27 CD         84.5870    1.0530  -31.4210 C.2       1 FFO403      0.0000 
     28 OE1        85.3160    1.7690  -32.1620 O.co2     1 FFO403      0.0000 
     29 OE2        83.2930    1.1130  -31.3960 O.co2     1 FFO403      0.0000 
     30 CT         86.5890   -1.2390  -28.0400 C.2       1 FFO403      0.0000 
     31 O1         86.9860   -2.3790  -28.3610 O.co2     1 FFO403      0.0000 
     32 O2         85.7150   -0.9780  -27.1690 O.co2     1 FFO403      0.0000 
     33 C5A        96.0810   -4.4440  -32.9010 C.2       1 FFO403      0.0000 
     34 O5B        96.1300   -5.1690  -33.8900 O.2       1 FFO403      0.0000 
@<TRIPOS>BOND
     1    1    2 2    
     2    1   12 1    
     3    2    3 1    
     4    2    4 1    
     5    4    5 am   
     6    5    6 2    
     7    5    7 1    
     8    7    8 1    
     9    7   12 2    
    10    8    9 1    
    11    8   33 am   
    12    9   10 1    
    13    9   13 1    
    14   10   11 1    
    15   11   12 1    
    16   13   14 1    
    17   14   18 1    
    18   15   16 ar   
    19   15   20 ar   
    20   15   21 1    
    21   16   17 ar   
    22   17   18 ar   
    23   18   19 ar   
    24   19   20 ar   
    25   21   22 2    
    26   21   23 am   
    27   23   24 1    
    28   24   25 1    
    29   24   30 1    
    30   25   26 1    
    31   26   27 1    
    32   27   28 ar   
    33   27   29 ar   
    34   30   31 ar   
    35   30   32 ar   
    36   33   34 2    
@<TRIPOS>SUBSTRUCTURE
     1 FFO403      1 GROUP   
@<TRIPOS>SET

