#    Name: 6r2e_4_FFO
#    Modification time : Fri May 22 19:26:44 2020

@<TRIPOS>MOLECULE
6r2e_4_FFO
   34    36     1     0     0
SMALL
NO_CHARGES


@<TRIPOS>ATOM
      1 N1        113.8990  -79.8240  -16.3440 N.2       1 FFO403      0.0000 
      2 C2        113.5580  -78.8520  -15.4460 C.2       1 FFO403      0.0000 
      3 NA2       113.2500  -79.2260  -14.2070 N.pl3     1 FFO403      0.0000 
      4 N3        113.5250  -77.5660  -15.8010 N.am      1 FFO403      0.0000 
      5 C4        113.8610  -77.2050  -17.1170 C.2       1 FFO403      0.0000 
      6 O4        113.7790  -76.0180  -17.4180 O.2       1 FFO403      0.0000 
      7 C4A       114.2340  -78.1510  -18.0590 C.2       1 FFO403      0.0000 
      8 N5        114.5830  -77.8390  -19.4090 N.am      1 FFO403      0.0000 
      9 C6        115.7140  -78.6870  -19.8740 C.3       1 FFO403      0.0000 
     10 C7        115.3480  -80.1700  -19.7850 C.3       1 FFO403      0.0000 
     11 N8        114.6910  -80.4790  -18.5230 N.pl3     1 FFO403      0.0000 
     12 C8A       114.2720  -79.5010  -17.6470 C.2       1 FFO403      0.0000 
     13 C9        117.0210  -78.4310  -19.1020 C.3       1 FFO403      0.0000 
     14 N10       117.2590  -77.0390  -18.7640 N.pl3     1 FFO403      0.0000 
     15 C11       119.2100  -76.0540  -15.2020 C.ar      1 FFO403      0.0000 
     16 C12       119.1140  -75.1000  -16.2200 C.ar      1 FFO403      0.0000 
     17 C13       118.4720  -75.4020  -17.4080 C.ar      1 FFO403      0.0000 
     18 C14       117.9160  -76.6750  -17.6080 C.ar      1 FFO403      0.0000 
     19 C15       118.0350  -77.6280  -16.6020 C.ar      1 FFO403      0.0000 
     20 C16       118.6810  -77.3240  -15.4210 C.ar      1 FFO403      0.0000 
     21 C         119.9510  -75.7980  -13.9140 C.2       1 FFO403      0.0000 
     22 O         120.2110  -76.7170  -13.1260 O.2       1 FFO403      0.0000 
     23 N         120.4370  -74.5670  -13.7480 N.am      1 FFO403      0.0000 
     24 CA        121.6170  -74.3040  -12.9400 C.3       1 FFO403      0.0000 
     25 CB        122.8900  -74.6980  -13.7050 C.3       1 FFO403      0.0000 
     26 CG        124.1120  -73.8620  -13.3730 C.3       1 FFO403      0.0000 
     27 CD        125.4680  -74.4910  -13.6720 C.2       1 FFO403      0.0000 
     28 OE1       125.4190  -75.6270  -14.2130 O.co2     1 FFO403      0.0000 
     29 OE2       126.5900  -73.8400  -13.3810 O.co2     1 FFO403      0.0000 
     30 CT        121.4770  -72.8290  -12.5140 C.2       1 FFO403      0.0000 
     31 O1        121.0090  -72.0180  -13.3590 O.co2     1 FFO403      0.0000 
     32 O2        121.7330  -72.5610  -11.3200 O.co2     1 FFO403      0.0000 
     33 C5A       113.9610  -76.9380  -20.2890 C.2       1 FFO403      0.0000 
     34 O5B       114.2230  -75.7040  -20.3600 O.2       1 FFO403      0.0000 
@<TRIPOS>BOND
     1    1    2 2    
     2    1   12 1    
     3    2    3 1    
     4    2    4 1    
     5    4    5 am   
     6    5    6 2    
     7    5    7 1    
     8    7    8 1    
     9    7   12 2    
    10    8    9 1    
    11    8   33 am   
    12    9   10 1    
    13    9   13 1    
    14   10   11 1    
    15   11   12 1    
    16   13   14 1    
    17   14   18 1    
    18   15   16 ar   
    19   15   20 ar   
    20   15   21 1    
    21   16   17 ar   
    22   17   18 ar   
    23   18   19 ar   
    24   19   20 ar   
    25   21   22 2    
    26   21   23 am   
    27   23   24 1    
    28   24   25 1    
    29   24   30 1    
    30   25   26 1    
    31   26   27 1    
    32   27   28 ar   
    33   27   29 ar   
    34   30   31 ar   
    35   30   32 ar   
    36   33   34 2    
@<TRIPOS>SUBSTRUCTURE
     1 FFO403      1 GROUP   
@<TRIPOS>SET

