#    Name: 6r2e_7_FFO
#    Modification time : Fri May 22 19:26:58 2020

@<TRIPOS>MOLECULE
6r2e_7_FFO
   34    36     1     0     0
SMALL
NO_CHARGES


@<TRIPOS>ATOM
      1 N1        114.5750  -33.8190  -40.2730 N.2       1 FFO403      0.0000 
      2 C2        113.8410  -34.5000  -39.3400 C.2       1 FFO403      0.0000 
      3 NA2       113.2470  -35.6350  -39.7240 N.pl3     1 FFO403      0.0000 
      4 N3        113.7050  -34.0440  -38.0880 N.am      1 FFO403      0.0000 
      5 C4        114.3310  -32.8520  -37.7150 C.2       1 FFO403      0.0000 
      6 O4        114.1720  -32.4720  -36.5450 O.2       1 FFO403      0.0000 
      7 C4A       115.1030  -32.1200  -38.6530 C.2       1 FFO403      0.0000 
      8 N5        115.7300  -30.8580  -38.3950 N.am      1 FFO403      0.0000 
      9 C6        117.0090  -30.6150  -39.1060 C.3       1 FFO403      0.0000 
     10 C7        116.9120  -30.9390  -40.6030 C.3       1 FFO403      0.0000 
     11 N8        115.9370  -31.9820  -40.9090 N.pl3     1 FFO403      0.0000 
     12 C8A       115.2080  -32.6420  -39.9590 C.2       1 FFO403      0.0000 
     13 C9        118.1720  -31.3720  -38.4590 C.3       1 FFO403      0.0000 
     14 N10       117.7830  -31.8880  -37.1610 N.pl3     1 FFO403      0.0000 
     15 C11       119.1010  -35.5730  -35.8560 C.ar      1 FFO403      0.0000 
     16 C12       118.9710  -34.5340  -34.9360 C.ar      1 FFO403      0.0000 
     17 C13       118.5240  -33.3000  -35.3620 C.ar      1 FFO403      0.0000 
     18 C14       118.2000  -33.1010  -36.7130 C.ar      1 FFO403      0.0000 
     19 C15       118.3440  -34.1390  -37.6310 C.ar      1 FFO403      0.0000 
     20 C16       118.7980  -35.3630  -37.1980 C.ar      1 FFO403      0.0000 
     21 C         119.5810  -36.9330  -35.4540 C.2       1 FFO403      0.0000 
     22 O         119.4960  -37.8820  -36.2240 O.2       1 FFO403      0.0000 
     23 N         120.1010  -37.0580  -34.2390 N.am      1 FFO403      0.0000 
     24 CA        120.4540  -38.3730  -33.7580 C.3       1 FFO403      0.0000 
     25 CB        121.9080  -38.6780  -34.1140 C.3       1 FFO403      0.0000 
     26 CG        122.8680  -38.2350  -33.0470 C.3       1 FFO403      0.0000 
     27 CD        124.3080  -38.3130  -33.5180 C.2       1 FFO403      0.0000 
     28 OE1       124.5990  -37.7130  -34.5840 O.co2     1 FFO403      0.0000 
     29 OE2       125.1440  -38.9650  -32.8190 O.co2     1 FFO403      0.0000 
     30 CT        120.1560  -38.4270  -32.2550 C.2       1 FFO403      0.0000 
     31 O1        119.9730  -37.3300  -31.6660 O.co2     1 FFO403      0.0000 
     32 O2        120.1010  -39.5570  -31.7360 O.co2     1 FFO403      0.0000 
     33 C5A       115.1950  -29.7950  -37.6910 C.2       1 FFO403      0.0000 
     34 O5B       115.3990  -29.5960  -36.4930 O.2       1 FFO403      0.0000 
@<TRIPOS>BOND
     1    1    2 2    
     2    1   12 1    
     3    2    3 1    
     4    2    4 1    
     5    4    5 am   
     6    5    6 2    
     7    5    7 1    
     8    7    8 1    
     9    7   12 2    
    10    8    9 1    
    11    8   33 am   
    12    9   10 1    
    13    9   13 1    
    14   10   11 1    
    15   11   12 1    
    16   13   14 1    
    17   14   18 1    
    18   15   16 ar   
    19   15   20 ar   
    20   15   21 1    
    21   16   17 ar   
    22   17   18 ar   
    23   18   19 ar   
    24   19   20 ar   
    25   21   22 2    
    26   21   23 am   
    27   23   24 1    
    28   24   25 1    
    29   24   30 1    
    30   25   26 1    
    31   26   27 1    
    32   27   28 ar   
    33   27   29 ar   
    34   30   31 ar   
    35   30   32 ar   
    36   33   34 2    
@<TRIPOS>SUBSTRUCTURE
     1 FFO403      1 GROUP   
@<TRIPOS>SET

