#    Name: 6r2e_6_FFO
#    Modification time : Fri May 22 19:26:51 2020

@<TRIPOS>MOLECULE
6r2e_6_FFO
   34    36     1     0     0
SMALL
NO_CHARGES


@<TRIPOS>ATOM
      1 N1         42.5810  -83.3440  -20.5040 N.2       1 FFO403      0.0000 
      2 C2         42.8480  -82.8680  -19.2520 C.2       1 FFO403      0.0000 
      3 NA2        42.5660  -83.6640  -18.2170 N.pl3     1 FFO403      0.0000 
      4 N3         43.3580  -81.6500  -19.0460 N.am      1 FFO403      0.0000 
      5 C4         43.6010  -80.8260  -20.1150 C.2       1 FFO403      0.0000 
      6 O4         44.0660  -79.7050  -19.8470 O.2       1 FFO403      0.0000 
      7 C4A        43.3470  -81.2770  -21.4560 C.2       1 FFO403      0.0000 
      8 N5         43.6120  -80.5160  -22.6460 N.am      1 FFO403      0.0000 
      9 C6         44.0260  -81.3400  -23.8200 C.3       1 FFO403      0.0000 
     10 C7         43.0010  -82.4450  -24.0830 C.3       1 FFO403      0.0000 
     11 N8         42.5770  -83.0880  -22.8470 N.pl3     1 FFO403      0.0000 
     12 C8A        42.8400  -82.5840  -21.6120 C.2       1 FFO403      0.0000 
     13 C9         45.4360  -81.9350  -23.6760 C.3       1 FFO403      0.0000 
     14 N10        46.3100  -81.1420  -22.8280 N.pl3     1 FFO403      0.0000 
     15 C11        49.2810  -82.9230  -20.4760 C.ar      1 FFO403      0.0000 
     16 C12        49.4350  -81.5930  -20.8930 C.ar      1 FFO403      0.0000 
     17 C13        48.4730  -80.9860  -21.6810 C.ar      1 FFO403      0.0000 
     18 C14        47.3140  -81.7100  -22.0540 C.ar      1 FFO403      0.0000 
     19 C15        47.1630  -83.0390  -21.6140 C.ar      1 FFO403      0.0000 
     20 C16        48.1380  -83.6370  -20.8420 C.ar      1 FFO403      0.0000 
     21 C          50.3180  -83.6430  -19.6590 C.2       1 FFO403      0.0000 
     22 O          50.2030  -84.8430  -19.4090 O.2       1 FFO403      0.0000 
     23 N          51.3820  -82.9420  -19.2690 N.am      1 FFO403      0.0000 
     24 CA         52.4340  -83.5380  -18.4590 C.3       1 FFO403      0.0000 
     25 CB         53.3290  -84.4850  -19.2830 C.3       1 FFO403      0.0000 
     26 CG         54.2140  -83.7890  -20.3140 C.3       1 FFO403      0.0000 
     27 CD         55.0910  -84.7000  -21.1660 C.2       1 FFO403      0.0000 
     28 OE1        54.5080  -85.3450  -22.0780 O.co2     1 FFO403      0.0000 
     29 OE2        56.3720  -84.7480  -20.9530 O.co2     1 FFO403      0.0000 
     30 CT         53.2070  -82.4420  -17.7000 C.2       1 FFO403      0.0000 
     31 O1         53.0160  -81.2550  -18.0370 O.co2     1 FFO403      0.0000 
     32 O2         53.9870  -82.8210  -16.8180 O.co2     1 FFO403      0.0000 
     33 C5A        43.5290  -79.1400  -22.8240 C.2       1 FFO403      0.0000 
     34 O5B        44.5110  -78.3730  -22.7130 O.2       1 FFO403      0.0000 
@<TRIPOS>BOND
     1    1    2 2    
     2    1   12 1    
     3    2    3 1    
     4    2    4 1    
     5    4    5 am   
     6    5    6 2    
     7    5    7 1    
     8    7    8 1    
     9    7   12 2    
    10    8    9 1    
    11    8   33 am   
    12    9   10 1    
    13    9   13 1    
    14   10   11 1    
    15   11   12 1    
    16   13   14 1    
    17   14   18 1    
    18   15   16 ar   
    19   15   20 ar   
    20   15   21 1    
    21   16   17 ar   
    22   17   18 ar   
    23   18   19 ar   
    24   19   20 ar   
    25   21   22 2    
    26   21   23 am   
    27   23   24 1    
    28   24   25 1    
    29   24   30 1    
    30   25   26 1    
    31   26   27 1    
    32   27   28 ar   
    33   27   29 ar   
    34   30   31 ar   
    35   30   32 ar   
    36   33   34 2    
@<TRIPOS>SUBSTRUCTURE
     1 FFO403      1 GROUP   
@<TRIPOS>SET

