#    Name: 6gxc_1_GLY_ASP_GLN_ALA_THR_GLY_DAB_PPN
#    Modification time : Fri May 22 19:30:12 2020

@<TRIPOS>MOLECULE
6gxc_1_GLY_ASP_GLN_ALA_THR_GLY_DAB_PPN
   58    58     8     0     0
SMALL
NO_CHARGES


@<TRIPOS>ATOM
      1 N          90.5360   25.9720  191.4080 N.4       1 GLY10       0.0000 
      2 CA         89.3930   26.3990  192.1960 C.3       1 GLY10       0.0000 
      3 C          89.3550   27.8960  192.4750 C.2       1 GLY10       0.0000 
      4 O          88.4430   28.6070  192.0360 O.2       1 GLY10       0.0000 
      5 N          90.3290   28.3710  193.2560 N.am      2 ASP11       0.0000 
      6 CA         90.3870   29.7830  193.6600 C.3       2 ASP11       0.0000 
      7 C          91.2280   30.6110  192.6830 C.2       2 ASP11       0.0000 
      8 O          92.3040   31.1180  193.0040 O.2       2 ASP11       0.0000 
      9 CB         90.9230   29.8830  195.0760 C.3       2 ASP11       0.0000 
     10 CG         90.2190   28.9370  195.9960 C.2       2 ASP11       0.0000 
     11 OD1        89.3150   29.3930  196.7240 O.co2     2 ASP11       0.0000 
     12 OD2        90.5110   27.7110  195.9150 O.co2     2 ASP11       0.0000 
     13 N          90.6750   30.8010  191.4850 N.am      3 GLN12       0.0000 
     14 CA         91.2820   31.6550  190.4750 C.3       3 GLN12       0.0000 
     15 C          90.2480   32.6050  189.8900 C.2       3 GLN12       0.0000 
     16 O          89.1110   32.2170  189.6200 O.2       3 GLN12       0.0000 
     17 CB         91.9380   30.8240  189.3930 C.3       3 GLN12       0.0000 
     18 CG         93.4250   31.0470  189.3530 C.3       3 GLN12       0.0000 
     19 CD         94.1330   30.3000  190.4380 C.2       3 GLN12       0.0000 
     20 OE1        95.1080   30.7990  191.0310 O.2       3 GLN12       0.0000 
     21 NE2        93.6450   29.0910  190.7250 N.am      3 GLN12       0.0000 
     22 N          89.7540   33.3610  186.9810 N.am      4 ALA14       0.0000 
     23 CA         89.9010   32.9380  185.6040 C.3       4 ALA14       0.0000 
     24 C          88.6010   32.2960  185.1290 C.2       4 ALA14       0.0000 
     25 O          87.6240   32.1760  185.8730 O.2       4 ALA14       0.0000 
     26 CB         91.1010   31.9940  185.4590 C.3       4 ALA14       0.0000 
     27 N          88.5920   31.8960  183.8660 N.am      5 THR15       0.0000 
     28 CA         87.4020   31.3520  183.2390 C.3       5 THR15       0.0000 
     29 C          87.3470   29.8260  183.4100 C.2       5 THR15       0.0000 
     30 O          88.3790   29.1510  183.5800 O.2       5 THR15       0.0000 
     31 CB         87.3520   31.7080  181.7400 C.3       5 THR15       0.0000 
     32 OG1        87.0620   33.1020  181.5810 O.3       5 THR15       0.0000 
     33 CG2        86.3280   30.8540  181.0120 C.3       5 THR15       0.0000 
     34 N          84.3570   26.2840  182.5360 N.am      6 GLY17       0.0000 
     35 CA         83.1240   25.8310  181.9180 C.3       6 GLY17       0.0000 
     36 C          83.3350   24.8460  180.7870 C.2       6 GLY17       0.0000 
     37 O          83.1110   25.1680  179.6160 O.2       6 GLY17       0.0000 
     38 N          90.6680   33.8300  189.5920 N.am      7 DAB13       0.0000 
     39 CA         89.7880   34.7930  188.9380 C.3       7 DAB13       0.0000 
     40 C          89.9550   34.6010  187.4230 C.2       7 DAB13       0.0000 
     41 O          90.2610   35.5410  186.6900 O.2       7 DAB13       0.0000 
     42 CB         90.1490   36.2220  189.3400 C.3       7 DAB13       0.0000 
     43 CG         88.9370   37.1270  189.4240 C.3       7 DAB13       0.0000 
     44 ND         89.1540   38.3690  189.8430 N.4       7 DAB13       0.0000 
     45 N          86.1270   29.2940  183.4070 N.am      8 PPN16       0.0000 
     46 CA         85.9130   27.8640  183.3900 C.3       8 PPN16       0.0000 
     47 C          84.5980   27.5790  182.7190 C.2       8 PPN16       0.0000 
     48 O          83.8030   28.4550  182.3790 O.2       8 PPN16       0.0000 
     49 CB         85.8640   27.2060  184.7760 C.3       8 PPN16       0.0000 
     50 CG         84.4970   27.3090  185.3390 C.ar      8 PPN16       0.0000 
     51 CD1        83.5810   26.2490  185.3080 C.ar      8 PPN16       0.0000 
     52 CD2        84.1190   28.5360  185.8880 C.ar      8 PPN16       0.0000 
     53 CE1        82.3040   26.4060  185.8530 C.ar      8 PPN16       0.0000 
     54 CE2        82.8540   28.7170  186.4360 C.ar      8 PPN16       0.0000 
     55 CZ         81.9340   27.6500  186.4060 C.ar      8 PPN16       0.0000 
     56 N1         80.5780   27.8260  187.0040 N.pl3     8 PPN16       0.0000 
     57 O1         80.2910   28.8840  187.5280 O.2       8 PPN16       0.0000 
     58 O2         79.8310   26.8710  186.9850 O.2       8 PPN16       0.0000 
@<TRIPOS>BOND
     1    1    2 1    
     2    2    3 1    
     3    3    4 2    
     4    3    5 am   
     5    5    6 1    
     6    6    7 1    
     7    6    9 1    
     8    7    8 2    
     9    7   13 am   
    10    9   10 1    
    11   10   11 ar   
    12   10   12 ar   
    13   13   14 1    
    14   14   15 1    
    15   14   17 1    
    16   15   16 2    
    17   15   38 du   
    18   17   18 1    
    19   18   19 1    
    20   19   20 2    
    21   19   21 am   
    22   22   23 1    
    23   22   40 am   
    24   23   24 1    
    25   23   26 1    
    26   24   25 2    
    27   24   27 am   
    28   27   28 1    
    29   28   29 1    
    30   28   31 1    
    31   29   30 2    
    32   29   45 du   
    33   31   32 1    
    34   31   33 1    
    35   34   35 1    
    36   34   47 am   
    37   35   36 1    
    38   36   37 2    
    39   38   39 1    
    40   39   40 1    
    41   39   42 1    
    42   40   41 2    
    43   42   43 1    
    44   43   44 1    
    45   45   46 1    
    46   46   47 1    
    47   46   49 1    
    48   47   48 2    
    49   49   50 1    
    50   50   51 ar   
    51   50   52 ar   
    52   51   53 ar   
    53   52   54 ar   
    54   53   55 ar   
    55   54   55 ar   
    56   55   56 1    
    57   56   57 2    
    58   56   58 2    
@<TRIPOS>SUBSTRUCTURE
     1 GLY10       1 RESIDUE 
     2 ASP11       5 RESIDUE 
     3 GLN12      13 RESIDUE 
     4 ALA14      22 RESIDUE 
     5 THR15      27 RESIDUE 
     6 GLY17      34 RESIDUE 
     7 DAB13      38 RESIDUE 
     8 PPN16      45 RESIDUE 
@<TRIPOS>SET

