#    Name: 6oph_1_6QB
#    Modification time : Fri May 22 19:25:44 2020

@<TRIPOS>MOLECULE
6oph_1_6QB
   31    34     1     0     0
SMALL
NO_CHARGES


@<TRIPOS>ATOM
      1 C4         14.2040   21.9600   12.9310           1 6QB401      0.0000 
      2 C5         15.5660   22.1620   13.2130           1 6QB401      0.0000 
      3 C8         11.7100   21.6950   11.0720           1 6QB401      0.0000 
      4 C10         9.5640   21.2670   10.4970           1 6QB401      0.0000 
      5 C15        11.9730   18.6840   13.8960           1 6QB401      0.0000 
      6 C20         9.6810   17.9830   13.4950           1 6QB401      0.0000 
      7 C21        11.0910   15.9810   16.3670           1 6QB401      0.0000 
      8 C26        10.5840   13.5490   16.5910           1 6QB401      0.0000 
      9 C28        11.7430   11.8410   15.3260           1 6QB401      0.0000 
     10 C1         15.6460   23.5770    9.9250           1 6QB401      0.0000 
     11 N2         15.2710   22.9620   11.2010           1 6QB401      0.0000 
     12 C3         14.0540   22.4680   11.6440           1 6QB401      0.0000 
     13 N6         16.1910   22.7590   12.1950           1 6QB401      0.0000 
     14 N7         12.8570   22.4880   10.9290           1 6QB401      0.0000 
     15 N9         10.6410   22.0450   10.3500           1 6QB401      0.0000 
     16 C11         9.5250   20.1510   11.3580           1 6QB401      0.0000 
     17 C12        10.6940   19.8600   12.0870           1 6QB401      0.0000 
     18 N13        11.7410   20.6700   11.9360           1 6QB401      0.0000 
     19 C14        10.7920   18.7850   13.1420           1 6QB401      0.0000 
     20 C16        12.0280   17.7420   14.9330           1 6QB401      0.0000 
     21 N17        10.9370   16.9340   15.2360           1 6QB401      0.0000 
     22 C18         9.7410   17.0330   14.5300           1 6QB401      0.0000 
     23 O19         8.7580   16.3250   14.7630           1 6QB401      0.0000 
     24 C23        12.3530   16.2960   17.2120           1 6QB401      0.0000 
     25 O24        12.1350   17.2290   18.2160           1 6QB401      0.0000 
     26 C25        11.3170   14.5570   15.9440           1 6QB401      0.0000 
     27 C27        10.7750   12.1840   16.2870           1 6QB401      0.0000 
     28 C29        12.4960   12.8650   14.7120           1 6QB401      0.0000 
     29 C30        12.3250   14.2290   15.0200           1 6QB401      0.0000 
     30 F31        13.3990   12.5100   13.8200           1 6QB401      0.0000 
     31 CL1        11.9940   10.1670   14.9520           1 6QB401      0.0000 
@<TRIPOS>BOND
     1    1    2 du   
     2    1   12 du   
     3    2   13 du   
     4    3   14 du   
     5    3   15 du   
     6    3   18 du   
     7    4   15 du   
     8    4   16 du   
     9    5   19 du   
    10    5   20 du   
    11    6   19 du   
    12    6   22 du   
    13    7   21 du   
    14    7   24 du   
    15    7   26 du   
    16    8   26 du   
    17    8   27 du   
    18    9   27 du   
    19    9   28 du   
    20    9   31 du   
    21   10   11 du   
    22   11   12 du   
    23   11   13 du   
    24   12   14 du   
    25   16   17 du   
    26   17   18 du   
    27   17   19 du   
    28   20   21 du   
    29   21   22 du   
    30   22   23 du   
    31   24   25 du   
    32   26   29 du   
    33   28   29 du   
    34   28   30 du   
@<TRIPOS>SUBSTRUCTURE
     1 6QB401      1 GROUP   
@<TRIPOS>SET

