#    Name: 6g1q_1_AR6
#    Modification time : Fri May 22 19:31:11 2020

@<TRIPOS>MOLECULE
6g1q_1_AR6
   36    39     1     0     0
SMALL
NO_CHARGES


@<TRIPOS>ATOM
      1 N1         22.0060   57.4570  107.2020 N.ar      1 AR6402      0.0000 
      2 C2         23.3400   57.6860  107.2790 C.ar      1 AR6402      0.0000 
      3 N3         24.1970   56.8580  107.9180 N.ar      1 AR6402      0.0000 
      4 C4         23.7970   55.7270  108.5250 C.ar      1 AR6402      0.0000 
      5 C5         22.3720   55.4100  108.4760 C.ar      1 AR6402      0.0000 
      6 C6         21.4700   56.3540  107.7630 C.ar      1 AR6402      0.0000 
      7 N6         20.1510   56.0910  107.6900 N.pl3     1 AR6402      0.0000 
      8 N7         22.2080   54.2550  109.1290 N.2       1 AR6402      0.0000 
      9 C8         23.4190   53.8620  109.5680 C.2       1 AR6402      0.0000 
     10 N9         24.3680   54.7430  109.1980 N.pl3     1 AR6402      0.0000 
     11 PA         24.1850   52.8280  114.2330 P.3       1 AR6402      0.0000 
     12 PB         24.4500   49.9590  114.9170 P.3       1 AR6402      0.0000 
     13 C1'        25.8080   54.5530  109.5330 C.3       1 AR6402      0.0000 
     14 O1A        24.9260   53.8580  115.0150 O.co2     1 AR6402      0.0000 
     15 O1B        23.8170   49.5470  113.5900 O.co2     1 AR6402      0.0000 
     16 C1D        29.2680   48.6410  115.8740 C.3       1 AR6402      0.0000 
     17 O1D        30.6110   48.1390  115.6180 O.3       1 AR6402      0.0000 
     18 C2'        26.3590   55.6810  110.3970 C.3       1 AR6402      0.0000 
     19 O2'        27.6160   56.1540  109.8620 O.3       1 AR6402      0.0000 
     20 O2A        22.6280   52.8130  114.1590 O.co2     1 AR6402      0.0000 
     21 O2B        23.8700   49.6520  116.2630 O.co2     1 AR6402      0.0000 
     22 C2D        28.3460   47.4920  116.2550 C.3       1 AR6402      0.0000 
     23 O2D        28.9780   46.4640  117.0640 O.3       1 AR6402      0.0000 
     24 C3'        26.3310   55.0610  111.8130 C.3       1 AR6402      0.0000 
     25 O3'        27.2230   55.6150  112.8460 O.3       1 AR6402      0.0000 
     26 O3A        24.8830   51.5170  114.8810 O.3       1 AR6402      0.0000 
     27 C3D        27.9100   47.0350  114.8610 C.3       1 AR6402      0.0000 
     28 O3D        28.8460   46.0960  114.3800 O.3       1 AR6402      0.0000 
     29 C4'        26.5540   53.6000  111.4830 C.3       1 AR6402      0.0000 
     30 O4'        25.8620   53.3470  110.2900 O.3       1 AR6402      0.0000 
     31 C4D        27.9680   48.2720  113.9400 C.3       1 AR6402      0.0000 
     32 O4D        28.7610   49.2180  114.6550 O.3       1 AR6402      0.0000 
     33 C5'        26.0620   52.6120  112.5150 C.3       1 AR6402      0.0000 
     34 O5'        24.7070   52.8080  112.7230 O.3       1 AR6402      0.0000 
     35 C5D        26.5800   48.8790  113.6440 C.3       1 AR6402      0.0000 
     36 O5D        25.8270   49.0870  114.8600 O.3       1 AR6402      0.0000 
@<TRIPOS>BOND
     1    1    2 ar   
     2    1    6 ar   
     3    2    3 ar   
     4    3    4 ar   
     5    4    5 ar   
     6    4   10 1    
     7    5    6 ar   
     8    5    8 1    
     9    6    7 1    
    10    8    9 2    
    11    9   10 1    
    12   10   13 1    
    13   11   14 ar   
    14   11   20 ar   
    15   11   26 1    
    16   11   34 1    
    17   12   15 ar   
    18   12   21 ar   
    19   12   26 1    
    20   12   36 1    
    21   13   18 1    
    22   13   30 1    
    23   16   17 1    
    24   16   22 1    
    25   16   32 1    
    26   18   19 1    
    27   18   24 1    
    28   22   23 1    
    29   22   27 1    
    30   24   25 1    
    31   24   29 1    
    32   27   28 1    
    33   27   31 1    
    34   29   30 1    
    35   29   33 1    
    36   31   32 1    
    37   31   35 1    
    38   33   34 1    
    39   35   36 1    
@<TRIPOS>SUBSTRUCTURE
     1 AR6402      1 GROUP   
@<TRIPOS>SET

