#    Name: 6g1q_2_AR6
#    Modification time : Fri May 22 19:31:20 2020

@<TRIPOS>MOLECULE
6g1q_2_AR6
   36    39     1     0     0
SMALL
NO_CHARGES


@<TRIPOS>ATOM
      1 N1         50.7370   39.8890  109.4930 N.ar      1 AR6402      0.0000 
      2 C2         49.4020   39.8570  109.5430 C.ar      1 AR6402      0.0000 
      3 N3         48.6610   40.7610  110.2230 N.ar      1 AR6402      0.0000 
      4 C4         49.2260   41.7890  110.9210 C.ar      1 AR6402      0.0000 
      5 C5         50.6960   41.8910  110.8880 C.ar      1 AR6402      0.0000 
      6 C6         51.4160   40.8650  110.1350 C.ar      1 AR6402      0.0000 
      7 N6         52.7400   40.9880  110.1440 N.pl3     1 AR6402      0.0000 
      8 N7         51.0840   42.9450  111.6070 N.2       1 AR6402      0.0000 
      9 C8         49.9420   43.4910  112.0660 C.2       1 AR6402      0.0000 
     10 N9         48.8150   42.8260  111.6670 N.pl3     1 AR6402      0.0000 
     11 PA         49.2460   45.2500  116.7880 P.3       1 AR6402      0.0000 
     12 PB         48.9270   48.1670  117.1650 P.3       1 AR6402      0.0000 
     13 C1'        47.3980   43.1470  112.0150 C.3       1 AR6402      0.0000 
     14 O1A        48.3790   44.0720  116.9780 O.co2     1 AR6402      0.0000 
     15 O1B        49.5450   48.3940  115.7730 O.co2     1 AR6402      0.0000 
     16 C1D        44.2500   49.4060  117.8190 C.3       1 AR6402      0.0000 
     17 O1D        42.8980   49.8450  117.6020 O.3       1 AR6402      0.0000 
     18 C2'        46.9980   42.1810  113.1210 C.3       1 AR6402      0.0000 
     19 O2'        45.6480   41.8240  112.9490 O.3       1 AR6402      0.0000 
     20 O2A        50.7620   45.2360  117.0880 O.co2     1 AR6402      0.0000 
     21 O2B        49.6480   48.6070  118.4240 O.co2     1 AR6402      0.0000 
     22 C2D        45.0370   50.6760  118.0240 C.3       1 AR6402      0.0000 
     23 O2D        44.2690   51.6860  118.7710 O.3       1 AR6402      0.0000 
     24 C3'        47.1530   42.8870  114.4500 C.3       1 AR6402      0.0000 
     25 O3'        46.1580   42.5600  115.4440 O.3       1 AR6402      0.0000 
     26 O3A        48.6150   46.5960  117.4690 O.3       1 AR6402      0.0000 
     27 C3D        45.4420   51.0140  116.5780 C.3       1 AR6402      0.0000 
     28 O3D        44.5690   51.8890  115.8670 O.3       1 AR6402      0.0000 
     29 C4'        47.2810   44.3610  114.0410 C.3       1 AR6402      0.0000 
     30 O4'        47.1800   44.4340  112.6100 O.3       1 AR6402      0.0000 
     31 C4D        45.5240   49.6720  115.8960 C.3       1 AR6402      0.0000 
     32 O4D        44.7540   48.7580  116.6580 O.3       1 AR6402      0.0000 
     33 C5'        48.6890   44.8590  114.3320 C.3       1 AR6402      0.0000 
     34 O5'        48.7690   45.7540  115.3800 O.3       1 AR6402      0.0000 
     35 C5D        46.9680   49.1580  115.8690 C.3       1 AR6402      0.0000 
     36 O5D        47.5110   48.9090  117.1800 O.3       1 AR6402      0.0000 
@<TRIPOS>BOND
     1    1    2 ar   
     2    1    6 ar   
     3    2    3 ar   
     4    3    4 ar   
     5    4    5 ar   
     6    4   10 1    
     7    5    6 ar   
     8    5    8 1    
     9    6    7 1    
    10    8    9 2    
    11    9   10 1    
    12   10   13 1    
    13   11   14 ar   
    14   11   20 ar   
    15   11   26 1    
    16   11   34 1    
    17   12   15 ar   
    18   12   21 ar   
    19   12   26 1    
    20   12   36 1    
    21   13   18 1    
    22   13   30 1    
    23   16   17 1    
    24   16   22 1    
    25   16   32 1    
    26   18   19 1    
    27   18   24 1    
    28   22   23 1    
    29   22   27 1    
    30   24   25 1    
    31   24   29 1    
    32   27   28 1    
    33   27   31 1    
    34   29   30 1    
    35   29   33 1    
    36   31   32 1    
    37   31   35 1    
    38   33   34 1    
    39   35   36 1    
@<TRIPOS>SUBSTRUCTURE
     1 AR6402      1 GROUP   
@<TRIPOS>SET

