#    Name: 6kkw_1_COD
#    Modification time : Fri May 22 19:31:32 2020

@<TRIPOS>MOLECULE
6kkw_1_COD
   44    46     1     0     0
SMALL
NO_CHARGES


@<TRIPOS>ATOM
      1 N1         36.5230  -16.6770  -14.7200 N.ar      1 COD302      0.0000 
      2 C2         36.6240  -15.9980  -15.8730 C.ar      1 COD302      0.0000 
      3 N3         35.8760  -15.0050  -16.3430 N.ar      1 COD302      0.0000 
      4 C4         34.9290  -14.6990  -15.4510 C.ar      1 COD302      0.0000 
      5 C5         34.6800  -15.2860  -14.2180 C.ar      1 COD302      0.0000 
      6 C6         35.5410  -16.3430  -13.8500 C.ar      1 COD302      0.0000 
      7 N7         35.4360  -17.0310  -12.7180 N.pl3     1 COD302      0.0000 
      8 N8         33.5880  -14.6830  -13.5790 N.2       1 COD302      0.0000 
      9 C9         33.1990  -13.7650  -14.4420 C.2       1 COD302      0.0000 
     10 N10        34.0100  -13.7170  -15.6180 N.pl3     1 COD302      0.0000 
     11 C11        33.9380  -12.9110  -16.8490 C.3       1 COD302      0.0000 
     12 C12        32.6100  -13.0780  -17.5930 C.3       1 COD302      0.0000 
     13 O13        32.5140  -14.2140  -18.4300 O.3       1 COD302      0.0000 
     14 C14        32.5700  -11.7700  -18.3900 C.3       1 COD302      0.0000 
     15 O15        33.2890  -11.8530  -19.6200 O.3       1 COD302      0.0000 
     16 C16        33.1720  -10.7590  -17.3910 C.3       1 COD302      0.0000 
     17 O17        34.0430  -11.5430  -16.5210 O.3       1 COD302      0.0000 
     18 C18        32.1610   -9.9110  -16.6230 C.3       1 COD302      0.0000 
     19 O19        32.0530  -10.2450  -15.1970 O.3       1 COD302      0.0000 
     20 P20        30.6550  -10.4140  -14.3890 P.3       1 COD302      0.0000 
     21 O21        30.3780  -11.8820  -14.1620 O.co2     1 COD302      0.0000 
     22 O22        30.7380   -9.5910  -13.1430 O.co2     1 COD302      0.0000 
     23 O23        29.6200   -9.6590  -15.3950 O.3       1 COD302      0.0000 
     24 P24        28.5550   -9.9080  -16.5960 P.3       1 COD302      0.0000 
     25 O25        28.7970  -11.2720  -17.1620 O.co2     1 COD302      0.0000 
     26 O26        27.1720   -9.5870  -16.1230 O.co2     1 COD302      0.0000 
     27 O27        28.9080   -8.8280  -17.7580 O.3       1 COD302      0.0000 
     28 C28        28.3630   -7.4570  -17.7340 C.3       1 COD302      0.0000 
     29 C29        27.4400   -7.1540  -18.9320 C.3       1 COD302      0.0000 
     30 C30        27.4530   -8.3150  -19.9460 C.3       1 COD302      0.0000 
     31 C31        25.9910   -7.0440  -18.4130 C.3       1 COD302      0.0000 
     32 C32        27.9560   -5.8300  -19.5850 C.3       1 COD302      0.0000 
     33 O33        28.4490   -5.9500  -20.9300 O.3       1 COD302      0.0000 
     34 C34        26.9820   -4.6590  -19.5800 C.2       1 COD302      0.0000 
     35 O35        26.4200   -4.3460  -18.5350 O.2       1 COD302      0.0000 
     36 N36        26.8090   -3.9920  -20.7190 N.am      1 COD302      0.0000 
     37 C37        26.0710   -2.7330  -20.8290 C.3       1 COD302      0.0000 
     38 C38        24.6620   -2.9060  -21.3900 C.3       1 COD302      0.0000 
     39 C39        24.5740   -2.9950  -22.9050 C.2       1 COD302      0.0000 
     40 O40        25.0820   -2.1260  -23.6210 O.2       1 COD302      0.0000 
     41 N41        23.9220   -4.0540  -23.4240 N.am      1 COD302      0.0000 
     42 C42        23.6320   -4.2300  -24.8400 C.3       1 COD302      0.0000 
     43 C43        24.7850   -3.8340  -25.7420 C.3       1 COD302      0.0000 
     44 S44        26.4070   -4.3310  -25.1140 S.3       1 COD302      0.0000 
@<TRIPOS>BOND
     1    1    2 ar   
     2    1    6 ar   
     3    2    3 ar   
     4    3    4 ar   
     5    4    5 ar   
     6    4   10 1    
     7    5    6 ar   
     8    5    8 1    
     9    6    7 1    
    10    8    9 2    
    11    9   10 1    
    12   10   11 1    
    13   11   12 1    
    14   11   17 1    
    15   12   13 1    
    16   12   14 1    
    17   14   15 1    
    18   14   16 1    
    19   16   17 1    
    20   16   18 1    
    21   18   19 1    
    22   19   20 1    
    23   20   21 ar   
    24   20   22 ar   
    25   20   23 1    
    26   23   24 1    
    27   24   25 ar   
    28   24   26 ar   
    29   24   27 1    
    30   27   28 1    
    31   28   29 1    
    32   29   30 1    
    33   29   31 1    
    34   29   32 1    
    35   32   33 1    
    36   32   34 1    
    37   34   35 2    
    38   34   36 am   
    39   36   37 1    
    40   37   38 1    
    41   38   39 1    
    42   39   40 2    
    43   39   41 am   
    44   41   42 1    
    45   42   43 1    
    46   43   44 1    
@<TRIPOS>SUBSTRUCTURE
     1 COD302      1 GROUP   
@<TRIPOS>SET

