#    Name: 6kkw_1_COD_CAVITY_N1_8
#    Modification time : Fri May 22 19:31:34 2020

@<TRIPOS>MOLECULE
6kkw_1_COD_CAVITY_N1_8
   92     0     7     0     0
SMALL
NO_CHARGES


@<TRIPOS>ATOM
      1 OG         35.5900  -13.7500  -16.7000 O.3       1 SER1        0.0000 
      2 OG         34.8400  -12.4800  -16.9900 O.3       1 SER1        0.0000 
      3 OG         32.4800  -13.5300  -15.4600 O.3       1 SER1        0.0000 
      4 OG         31.7300  -12.2600  -15.7400 O.3       1 SER1        0.0000 
      5 OG         29.0500  -10.2600  -15.5400 O.3       1 SER1        0.0000 
      6 OG         28.3000   -8.9900  -15.8200 O.3       1 SER1        0.0000 
      7 OG         28.1900  -13.8500  -13.4500 O.3       1 SER1        0.0000 
      8 OG         36.1300  -13.1400  -15.4400 O.3       1 SER1        0.0000 
      9 OG         33.4500  -11.1300  -15.2400 O.3       1 SER1        0.0000 
     10 OG         32.7000   -9.8700  -15.5200 O.3       1 SER1        0.0000 
     11 OG         33.7800  -14.2000  -13.9200 O.3       1 SER1        0.0000 
     12 OG         31.5300  -10.3900  -14.7600 O.3       1 SER1        0.0000 
     13 OG         31.8500  -13.4600  -13.4400 O.3       1 SER1        0.0000 
     14 OG         31.1000  -12.1900  -13.7200 O.3       1 SER1        0.0000 
     15 OG         30.3500  -10.9200  -14.0000 O.3       1 SER1        0.0000 
     16 OG         29.6000   -9.6500  -14.2800 O.3       1 SER1        0.0000 
     17 OG         29.9200  -12.7200  -12.9500 O.3       1 SER1        0.0000 
     18 OG         29.1700  -11.4500  -13.2300 O.3       1 SER1        0.0000 
     19 N          33.3200  -15.4800  -18.4600 N.am      2 ALA2        0.0000 
     20 N          32.5700  -14.2100  -18.7400 N.am      2 ALA2        0.0000 
     21 O          34.2900  -13.0800  -18.2500 O.2       2 ALA2        0.0000 
     22 O          33.5400  -11.8100  -18.5300 O.2       2 ALA2        0.0000 
     23 N          33.1100  -13.6100  -17.4800 N.am      2 ALA2        0.0000 
     24 N          31.4100   -9.2000  -17.0700 N.am      2 ALA2        0.0000 
     25 N          36.8800  -14.4100  -15.1600 N.am      2 ALA2        0.0000 
     26 N          35.2800  -16.7400  -13.3600 N.am      2 ALA2        0.0000 
     27 N          34.5300  -15.4700  -13.6400 N.am      2 ALA2        0.0000 
     28 N          32.6000  -14.7300  -13.1600 N.am      2 ALA2        0.0000 
     29 O          30.6700  -13.9900  -12.6700 O.2       2 ALA2        0.0000 
     30 OD1        32.1400  -16.0100  -17.7000 O.co2     3 ASP3        0.0000 
     31 OD1        29.8900  -12.2000  -18.5400 O.co2     3 ASP3        0.0000 
     32 OD1        30.2100  -15.2700  -17.2200 O.co2     3 ASP3        0.0000 
     33 OD1        27.9600  -11.4600  -18.0600 O.co2     3 ASP3        0.0000 
     34 OD1        27.2100  -10.1900  -18.3400 O.co2     3 ASP3        0.0000 
     35 OD1        29.0300  -15.7900  -16.4600 O.co2     3 ASP3        0.0000 
     36 OD1        34.6100  -16.1400  -16.9200 O.co2     3 ASP3        0.0000 
     37 OD1        33.8600  -14.8800  -17.2000 O.co2     3 ASP3        0.0000 
     38 OD1        31.6100  -11.0700  -18.0400 O.co2     3 ASP3        0.0000 
     39 OD1        32.6800  -15.4000  -16.4400 O.co2     3 ASP3        0.0000 
     40 OD1        31.9300  -14.1400  -16.7200 O.co2     3 ASP3        0.0000 
     41 OD1        30.4300  -11.6000  -17.2800 O.co2     3 ASP3        0.0000 
     42 OD1        29.6800  -10.3300  -17.5600 O.co2     3 ASP3        0.0000 
     43 OD1        28.9300   -9.0600  -17.8400 O.co2     3 ASP3        0.0000 
     44 OD1        30.7500  -14.6600  -15.9600 O.co2     3 ASP3        0.0000 
     45 OD1        28.8300  -13.9200  -15.4800 O.co2     3 ASP3        0.0000 
     46 OD1        35.1600  -15.5400  -15.6600 O.co2     3 ASP3        0.0000 
     47 OD1        32.1600  -10.4700  -16.7800 O.co2     3 ASP3        0.0000 
     48 OD1        33.9800  -16.0700  -14.9000 O.co2     3 ASP3        0.0000 
     49 OD1        33.2300  -14.8000  -15.1800 O.co2     3 ASP3        0.0000 
     50 OD1        32.0500  -15.3300  -14.4200 O.co2     3 ASP3        0.0000 
     51 OD1        31.3000  -14.0600  -14.7000 O.co2     3 ASP3        0.0000 
     52 OD1        30.1200  -14.5900  -13.9300 O.co2     3 ASP3        0.0000 
     53 NZ         28.9100  -14.6000  -18.7600 N.4       4 LYS4        0.0000 
     54 NZ         28.1600  -13.3300  -19.0400 N.4       4 LYS4        0.0000 
     55 NZ         28.4800  -16.4000  -17.7200 N.4       4 LYS4        0.0000 
     56 NZ         31.8200  -12.9400  -19.0200 N.4       4 LYS4        0.0000 
     57 NZ         31.3900  -14.7400  -17.9800 N.4       4 LYS4        0.0000 
     58 NZ         30.6400  -13.4700  -18.2600 N.4       4 LYS4        0.0000 
     59 NZ         29.4600  -14.0000  -17.5000 N.4       4 LYS4        0.0000 
     60 CZ         34.9500  -13.6700  -14.6800 C.ar      5 PHE5        0.0000 
     61 CZ         34.2000  -12.4000  -14.9600 C.ar      5 PHE5        0.0000 
     62 CA         35.7900  -15.6200  -17.6800 C.3       6 GLY6        0.0000 
     63 CA         35.0400  -14.3500  -17.9700 C.3       6 GLY6        0.0000 
     64 CA         37.0900  -16.2800  -16.1400 C.3       6 GLY6        0.0000 
     65 CA         36.3400  -15.0100  -16.4200 C.3       6 GLY6        0.0000 
     66 CA         35.9100  -16.8100  -15.3800 C.3       6 GLY6        0.0000 
     67 CA         30.2300   -9.7300  -16.3000 C.3       6 GLY6        0.0000 
     68 CA         29.4800   -8.4600  -16.5800 C.3       6 GLY6        0.0000 
     69 CA         28.9400  -15.1200  -13.1700 C.3       6 GLY6        0.0000 
     70 CA         36.4500  -16.2100  -14.1200 C.3       6 GLY6        0.0000 
     71 CA         35.7000  -14.9400  -14.4000 C.3       6 GLY6        0.0000 
     72 CA         30.7800   -9.1300  -15.0400 C.3       6 GLY6        0.0000 
     73 CA         28.7400  -13.2500  -12.1900 C.3       6 GLY6        0.0000 
     74 CA         27.9900  -11.9800  -12.4700 C.3       6 GLY6        0.0000 
     75 DU         28.7100  -12.7300  -17.7800 H         7 CUB7        0.0000 
     76 DU         28.2800  -14.5200  -16.7400 H         7 CUB7        0.0000 
     77 DU         32.3600  -12.3400  -17.7600 H         7 CUB7        0.0000 
     78 DU         31.1800  -12.8700  -17.0000 H         7 CUB7        0.0000 
     79 DU         30.0000  -13.3900  -16.2400 H         7 CUB7        0.0000 
     80 DU         29.2600  -12.1300  -16.5200 H         7 CUB7        0.0000 
     81 DU         28.5100  -10.8600  -16.8000 H         7 CUB7        0.0000 
     82 DU         27.7600   -9.5900  -17.0800 H         7 CUB7        0.0000 
     83 DU         27.0100   -8.3200  -17.3600 H         7 CUB7        0.0000 
     84 DU         27.6500  -14.4500  -14.7100 H         7 CUB7        0.0000 
     85 DU         34.4100  -14.2700  -15.9400 H         7 CUB7        0.0000 
     86 DU         33.6600  -13.0100  -16.2200 H         7 CUB7        0.0000 
     87 DU         32.9100  -11.7400  -16.5000 H         7 CUB7        0.0000 
     88 DU         30.9800  -11.0000  -16.0200 H         7 CUB7        0.0000 
     89 DU         30.5500  -12.7900  -14.9800 H         7 CUB7        0.0000 
     90 DU         29.8000  -11.5200  -15.2600 H         7 CUB7        0.0000 
     91 DU         29.3700  -13.3200  -14.2100 H         7 CUB7        0.0000 
     92 DU         28.6200  -12.0500  -14.5000 H         7 CUB7        0.0000 
@<TRIPOS>BOND
@<TRIPOS>SUBSTRUCTURE
     1 SER1        1 GROUP   
     2 ALA2       19 GROUP   
     3 ASP3       30 GROUP   
     4 LYS4       53 GROUP   
     5 PHE5       60 GROUP   
     6 GLY6       62 GROUP   
     7 CUB7       75 GROUP   
@<TRIPOS>SET

