#    Name: 5wx2_4_FAD
#    Modification time : Fri May 22 19:14:50 2020

@<TRIPOS>MOLECULE
5wx2_4_FAD
   53    58     1     0     1
SMALL
NO_CHARGES


@<TRIPOS>ATOM
      1 PA         43.5030  -50.1370   27.3640 P.3       1 FAD401      0.0000 
      2 O1A        43.0680  -50.1730   25.9090 O.co2     1 FAD401      0.0000 
      3 O2A        43.9310  -51.3870   28.1350 O.co2     1 FAD401      0.0000 
      4 O5B        44.8020  -49.1970   27.4520 O.3       1 FAD401      0.0000 
      5 C5B        45.2840  -48.8650   28.7390 C.3       1 FAD401      0.0000 
      6 C4B        46.5930  -48.1310   28.6400 C.3       1 FAD401      0.0000 
      7 O4B        47.0140  -47.9440   29.9840 O.3       1 FAD401      0.0000 
      8 C3B        47.7230  -48.8930   27.9630 C.3       1 FAD401      0.0000 
      9 O3B        48.4890  -47.9900   27.1430 O.3       1 FAD401      0.0000 
     10 C2B        48.5600  -49.3800   29.1260 C.3       1 FAD401      0.0000 
     11 O2B        49.9030  -49.6750   28.7420 O.3       1 FAD401      0.0000 
     12 C1B        48.4280  -48.1620   30.0210 C.3       1 FAD401      0.0000 
     13 N9A        48.9130  -48.2040   31.4310 N.pl3     1 FAD401      0.0000 
     14 C8A        48.2240  -48.6230   32.5190 C.2       1 FAD401      0.0000 
     15 N7A        48.9030  -48.3710   33.6750 N.2       1 FAD401      0.0000 
     16 C5A        50.0070  -47.6840   33.3340 C.ar      1 FAD401      0.0000 
     17 C6A        51.1440  -47.0570   34.0500 C.ar      1 FAD401      0.0000 
     18 N6A        51.2470  -47.1220   35.3810 N.pl3     1 FAD401      0.0000 
     19 N1A        52.0790  -46.4140   33.3190 N.ar      1 FAD401      0.0000 
     20 C2A        51.9910  -46.3470   31.9670 C.ar      1 FAD401      0.0000 
     21 N3A        50.9630  -46.8670   31.2600 N.ar      1 FAD401      0.0000 
     22 C4A        49.9700  -47.5330   31.8660 C.ar      1 FAD401      0.0000 
     23 N1         34.0950  -52.2350   23.7070 N.2       1 FAD401      0.0000 
     24 C2         33.2020  -51.8890   22.7350 C.2       1 FAD401      0.0000 
     25 O2         32.7860  -50.7120   22.6700 O.2       1 FAD401      0.0000 
     26 N3         32.7740  -52.7910   21.8300 N.am      1 FAD401      0.0000 
     27 C4         33.2200  -54.0610   21.8360 C.2       1 FAD401      0.0000 
     28 O4         32.7900  -54.8590   20.9840 O.2       1 FAD401      0.0000 
     29 C4X        34.1870  -54.4980   22.8690 C.2       1 FAD401      0.0000 
     30 N5         34.6520  -55.7490   22.9490 N.2       1 FAD401      0.0000 
     31 C5X        35.5140  -56.1260   23.9400 C.ar      1 FAD401      0.0000 
     32 C6         35.9510  -57.4530   24.0120 C.ar      1 FAD401      0.0000 
     33 C7         36.8570  -57.8790   24.9750 C.ar      1 FAD401      0.0000 
     34 C7M        37.2990  -59.3170   24.9980 C.3       1 FAD401      0.0000 
     35 C8         37.3690  -56.9130   25.9640 C.ar      1 FAD401      0.0000 
     36 C8M        38.3830  -57.3400   26.9950 C.3       1 FAD401      0.0000 
     37 C9         36.9280  -55.5920   25.9140 C.ar      1 FAD401      0.0000 
     38 C9A        36.0320  -55.1440   24.9320 C.ar      1 FAD401      0.0000 
     39 N10        35.5560  -53.8160   24.8480 N.pl3     1 FAD401      0.0000 
     40 C10        34.6040  -53.4870   23.8520 C.2       1 FAD401      0.0000 
     41 C1'        35.9550  -52.7900   25.8180 C.3       1 FAD401      0.0000 
     42 C2'        37.1950  -52.0250   25.4140 C.3       1 FAD401      0.0000 
     43 O2'        38.1580  -52.9740   24.9530 O.3       1 FAD401      0.0000 
     44 C3'        37.7360  -51.2240   26.6100 C.3       1 FAD401      0.0000 
     45 O3'        36.7380  -50.5610   27.4260 O.3       1 FAD401      0.0000 
     46 C4'        38.6930  -50.1760   26.1200 C.3       1 FAD401      0.0000 
     47 O4'        39.6350  -50.8290   25.2720 O.3       1 FAD401      0.0000 
     48 C5'        39.3730  -49.4820   27.2950 C.3       1 FAD401      0.0000 
     49 O5'        40.4270  -48.6720   26.7780 O.3       1 FAD401      0.0000 
     50 P          41.5060  -48.0470   27.7810 P.3       1 FAD401      0.0000 
     51 O1P        40.6570  -47.6070   28.9600 O.co2     1 FAD401      0.0000 
     52 O2P        42.3390  -46.9520   27.1410 O.co2     1 FAD401      0.0000 
     53 O3P        42.3740  -49.3590   28.2180 O.3       1 FAD401      0.0000 
@<TRIPOS>BOND
     1    1    2 ar   
     2    1    3 ar   
     3    1    4 1    
     4    1   53 1    
     5    4    5 1    
     6    5    6 1    
     7    6    7 1    
     8    6    8 1    
     9    7   12 1    
    10    8    9 1    
    11    8   10 1    
    12   10   11 1    
    13   10   12 1    
    14   12   13 1    
    15   13   14 1    
    16   13   22 1    
    17   14   15 2    
    18   15   16 1    
    19   16   17 ar   
    20   16   22 ar   
    21   17   18 1    
    22   17   19 ar   
    23   19   20 ar   
    24   20   21 ar   
    25   21   22 ar   
    26   23   24 1    
    27   23   40 2    
    28   24   25 2    
    29   24   26 am   
    30   26   27 am   
    31   27   28 2    
    32   27   29 1    
    33   29   30 2    
    34   29   40 1    
    35   30   31 1    
    36   31   32 ar   
    37   31   38 ar   
    38   32   33 ar   
    39   33   34 1    
    40   33   35 ar   
    41   35   36 1    
    42   35   37 ar   
    43   37   38 ar   
    44   38   39 1    
    45   39   40 1    
    46   39   41 1    
    47   41   42 1    
    48   42   43 1    
    49   42   44 1    
    50   44   45 1    
    51   44   46 1    
    52   46   47 1    
    53   46   48 1    
    54   48   49 1    
    55   49   50 1    
    56   50   51 ar   
    57   50   52 ar   
    58   50   53 1    
@<TRIPOS>SUBSTRUCTURE
     1 FAD401      1 GROUP   
@<TRIPOS>SET
ATOM$ORANGE STATIC     ATOMS   COLORGROUP SYSTEM 
54 5 5 6 6 8 8 10 10 12 12 14 14 16 16 17 17 20 \
20 22 22 24 24 27 27 29 29 31 31 32 32 33 33 34 34 35 \
35 36 36 37 37 38 38 40 40 41 41 42 42 44 44 46 46 48 \
48 

