#    Name: 5wx2_7_FAD
#    Modification time : Fri May 22 19:15:16 2020

@<TRIPOS>MOLECULE
5wx2_7_FAD
   53    58     1     0     1
SMALL
NO_CHARGES


@<TRIPOS>ATOM
      1 PA         78.5250  -16.8060    9.4410 P.3       1 FAD401      0.0000 
      2 O1A        78.1760  -16.6090   10.9150 O.co2     1 FAD401      0.0000 
      3 O2A        79.0060  -15.6700    8.5510 O.co2     1 FAD401      0.0000 
      4 O5B        79.6250  -17.9950    9.3330 O.3       1 FAD401      0.0000 
      5 C5B        79.8250  -18.7240    8.1020 C.3       1 FAD401      0.0000 
      6 C4B        80.7910  -19.8960    8.2550 C.3       1 FAD401      0.0000 
      7 O4B        81.0430  -20.5040    6.9800 O.3       1 FAD401      0.0000 
      8 C3B        82.1590  -19.4980    8.7770 C.3       1 FAD401      0.0000 
      9 O3B        82.6100  -20.4500    9.7380 O.3       1 FAD401      0.0000 
     10 C2B        83.0610  -19.5830    7.5810 C.3       1 FAD401      0.0000 
     11 O2B        84.3970  -19.8460    7.9860 O.3       1 FAD401      0.0000 
     12 C1B        82.4460  -20.7470    6.8430 C.3       1 FAD401      0.0000 
     13 N9A        82.8940  -20.8470    5.4350 N.pl3     1 FAD401      0.0000 
     14 C8A        82.4830  -20.1280    4.3660 C.2       1 FAD401      0.0000 
     15 N7A        83.1060  -20.5100    3.2140 N.2       1 FAD401      0.0000 
     16 C5A        83.9570  -21.4860    3.5740 C.ar      1 FAD401      0.0000 
     17 C6A        84.9180  -22.3570    2.8790 C.ar      1 FAD401      0.0000 
     18 N6A        85.1250  -22.2380    1.5490 N.pl3     1 FAD401      0.0000 
     19 N1A        85.5960  -23.2530    3.6240 N.ar      1 FAD401      0.0000 
     20 C2A        85.4030  -23.3920    4.9560 C.ar      1 FAD401      0.0000 
     21 N3A        84.5580  -22.6240    5.6550 N.ar      1 FAD401      0.0000 
     22 C4A        83.8090  -21.6980    5.0270 C.ar      1 FAD401      0.0000 
     23 N1         70.6710  -11.4380   12.9910 N.2       1 FAD401      0.0000 
     24 C2         69.7440  -11.5740   13.9710 C.2       1 FAD401      0.0000 
     25 O2         68.9160  -12.5170   13.9080 O.2       1 FAD401      0.0000 
     26 N3         69.7190  -10.7300   15.0230 N.am      1 FAD401      0.0000 
     27 C4         70.5850   -9.7120   15.1460 C.2       1 FAD401      0.0000 
     28 O4         70.4990   -8.9610   16.1190 O.2       1 FAD401      0.0000 
     29 C4X        71.6500   -9.5190   14.1410 C.2       1 FAD401      0.0000 
     30 N5         72.5640   -8.5300   14.2050 N.2       1 FAD401      0.0000 
     31 C5X        73.4370   -8.3300   13.1850 C.ar      1 FAD401      0.0000 
     32 C6         74.3580   -7.2760   13.2500 C.ar      1 FAD401      0.0000 
     33 C7         75.3410   -7.0970   12.2590 C.ar      1 FAD401      0.0000 
     34 C7M        76.3030   -5.9430   12.3470 C.3       1 FAD401      0.0000 
     35 C8         75.4240   -8.0410   11.1130 C.ar      1 FAD401      0.0000 
     36 C8M        76.4580   -7.8690   10.0200 C.3       1 FAD401      0.0000 
     37 C9         74.4980   -9.0810   11.0430 C.ar      1 FAD401      0.0000 
     38 C9A        73.5020   -9.2750   12.0250 C.ar      1 FAD401      0.0000 
     39 N10        72.5680  -10.3460   11.9800 N.pl3     1 FAD401      0.0000 
     40 C10        71.6330  -10.4790   13.0190 C.2       1 FAD401      0.0000 
     41 C1'        72.5380  -11.3470   10.8970 C.3       1 FAD401      0.0000 
     42 C2'        73.2030  -12.6610   11.3260 C.3       1 FAD401      0.0000 
     43 O2'        74.3310  -12.3940   12.1810 O.3       1 FAD401      0.0000 
     44 C3'        73.5770  -13.4900   10.0830 C.3       1 FAD401      0.0000 
     45 O3'        72.3810  -13.8250    9.3540 O.3       1 FAD401      0.0000 
     46 C4'        74.3770  -14.7360   10.4720 C.3       1 FAD401      0.0000 
     47 O4'        75.6730  -14.2850   10.8650 O.3       1 FAD401      0.0000 
     48 C5'        74.5810  -15.7880    9.3780 C.3       1 FAD401      0.0000 
     49 O5'        75.2550  -16.9090    9.9600 O.3       1 FAD401      0.0000 
     50 P          75.9030  -18.0800    9.0790 P.3       1 FAD401      0.0000 
     51 O1P        75.0890  -18.3030    7.8270 O.co2     1 FAD401      0.0000 
     52 O2P        76.1770  -19.2450    9.9920 O.co2     1 FAD401      0.0000 
     53 O3P        77.2720  -17.3820    8.5790 O.3       1 FAD401      0.0000 
@<TRIPOS>BOND
     1    1    2 ar   
     2    1    3 ar   
     3    1    4 1    
     4    1   53 1    
     5    4    5 1    
     6    5    6 1    
     7    6    7 1    
     8    6    8 1    
     9    7   12 1    
    10    8    9 1    
    11    8   10 1    
    12   10   11 1    
    13   10   12 1    
    14   12   13 1    
    15   13   14 1    
    16   13   22 1    
    17   14   15 2    
    18   15   16 1    
    19   16   17 ar   
    20   16   22 ar   
    21   17   18 1    
    22   17   19 ar   
    23   19   20 ar   
    24   20   21 ar   
    25   21   22 ar   
    26   23   24 1    
    27   23   40 2    
    28   24   25 2    
    29   24   26 am   
    30   26   27 am   
    31   27   28 2    
    32   27   29 1    
    33   29   30 2    
    34   29   40 1    
    35   30   31 1    
    36   31   32 ar   
    37   31   38 ar   
    38   32   33 ar   
    39   33   34 1    
    40   33   35 ar   
    41   35   36 1    
    42   35   37 ar   
    43   37   38 ar   
    44   38   39 1    
    45   39   40 1    
    46   39   41 1    
    47   41   42 1    
    48   42   43 1    
    49   42   44 1    
    50   44   45 1    
    51   44   46 1    
    52   46   47 1    
    53   46   48 1    
    54   48   49 1    
    55   49   50 1    
    56   50   51 ar   
    57   50   52 ar   
    58   50   53 1    
@<TRIPOS>SUBSTRUCTURE
     1 FAD401      1 GROUP   
@<TRIPOS>SET
ATOM$ORANGE STATIC     ATOMS   COLORGROUP SYSTEM 
54 5 5 6 6 8 8 10 10 12 12 14 14 16 16 17 17 20 \
20 22 22 24 24 27 27 29 29 31 31 32 32 33 33 34 34 35 \
35 36 36 37 37 38 38 40 40 41 41 42 42 44 44 46 46 48 \
48 

