#    Name: 5wx2_1_FAD
#    Modification time : Fri May 22 19:14:25 2020

@<TRIPOS>MOLECULE
5wx2_1_FAD
   53    58     1     0     1
SMALL
NO_CHARGES


@<TRIPOS>ATOM
      1 PA         -8.9470  -17.6210   19.1010 P.3       1 FAD401      0.0000 
      2 O1A        -8.5730  -16.8990   17.8350 O.co2     1 FAD401      0.0000 
      3 O2A        -7.8680  -17.6630   20.1630 O.co2     1 FAD401      0.0000 
      4 O5B       -10.3230  -17.0200   19.6830 O.3       1 FAD401      0.0000 
      5 C5B       -10.5960  -17.2460   21.0570 C.3       1 FAD401      0.0000 
      6 C4B       -11.6570  -16.2740   21.4910 C.3       1 FAD401      0.0000 
      7 O4B       -12.2170  -16.6430   22.7420 O.3       1 FAD401      0.0000 
      8 C3B       -11.0860  -14.8880   21.6920 C.3       1 FAD401      0.0000 
      9 O3B       -12.0470  -13.9000   21.2300 O.3       1 FAD401      0.0000 
     10 C2B       -10.8870  -14.8570   23.1880 C.3       1 FAD401      0.0000 
     11 O2B       -10.8040  -13.5110   23.6120 O.3       1 FAD401      0.0000 
     12 C1B       -12.1550  -15.5360   23.6500 C.3       1 FAD401      0.0000 
     13 N9A       -12.2810  -15.9800   25.0790 N.pl3     1 FAD401      0.0000 
     14 C8A       -11.7670  -17.1080   25.6400 C.2       1 FAD401      0.0000 
     15 N7A       -12.1580  -17.2380   26.9320 N.2       1 FAD401      0.0000 
     16 C5A       -12.9950  -16.2130   27.1910 C.ar      1 FAD401      0.0000 
     17 C6A       -13.8520  -15.7800   28.3240 C.ar      1 FAD401      0.0000 
     18 N6A       -13.8510  -16.5120   29.4450 N.pl3     1 FAD401      0.0000 
     19 N1A       -14.6100  -14.6630   28.2310 N.ar      1 FAD401      0.0000 
     20 C2A       -14.6090  -13.9630   27.0960 C.ar      1 FAD401      0.0000 
     21 N3A       -13.9130  -14.3430   25.9850 N.ar      1 FAD401      0.0000 
     22 C4A       -13.1190  -15.4380   25.9570 C.ar      1 FAD401      0.0000 
     23 N1         -4.4860  -22.5080   11.2970 N.2       1 FAD401      0.0000 
     24 C2         -4.5620  -22.6940    9.9520 C.2       1 FAD401      0.0000 
     25 O2         -5.6080  -23.1500    9.4550 O.2       1 FAD401      0.0000 
     26 N3         -3.5870  -22.3220    9.1100 N.am      1 FAD401      0.0000 
     27 C4         -2.4420  -21.7690    9.5280 C.2       1 FAD401      0.0000 
     28 O4         -1.5810  -21.3970    8.6970 O.2       1 FAD401      0.0000 
     29 C4X        -2.2550  -21.5950   10.9900 C.2       1 FAD401      0.0000 
     30 N5         -1.1250  -21.1040   11.5010 N.2       1 FAD401      0.0000 
     31 C5X        -0.9660  -20.9230   12.8300 C.ar      1 FAD401      0.0000 
     32 C6          0.2210  -20.3360   13.2770 C.ar      1 FAD401      0.0000 
     33 C7          0.4200  -20.0650   14.6250 C.ar      1 FAD401      0.0000 
     34 C7M         1.7390  -19.5280   15.1060 C.3       1 FAD401      0.0000 
     35 C8         -0.6420  -20.3910   15.6050 C.ar      1 FAD401      0.0000 
     36 C8M        -0.3620  -20.1750   17.0740 C.3       1 FAD401      0.0000 
     37 C9         -1.8550  -20.9530   15.1630 C.ar      1 FAD401      0.0000 
     38 C9A        -2.0640  -21.2500   13.7970 C.ar      1 FAD401      0.0000 
     39 N10        -3.2800  -21.7680   13.2640 N.pl3     1 FAD401      0.0000 
     40 C10        -3.3810  -21.9760   11.8740 C.2       1 FAD401      0.0000 
     41 C1'        -4.3730  -22.2400   14.1070 C.3       1 FAD401      0.0000 
     42 C2'        -5.3900  -21.1690   14.4210 C.3       1 FAD401      0.0000 
     43 O2'        -4.7220  -19.9720   14.8700 O.3       1 FAD401      0.0000 
     44 C3'        -6.3290  -21.6720   15.5160 C.3       1 FAD401      0.0000 
     45 O3'        -6.7690  -23.0010   15.2450 O.3       1 FAD401      0.0000 
     46 C4'        -7.5670  -20.8140   15.5760 C.3       1 FAD401      0.0000 
     47 O4'        -7.1990  -19.4370   15.7260 O.3       1 FAD401      0.0000 
     48 C5'        -8.4900  -21.2260   16.7180 C.3       1 FAD401      0.0000 
     49 O5'        -9.5750  -20.3060   16.6810 O.3       1 FAD401      0.0000 
     50 P         -10.4100  -19.9030   17.9670 P.3       1 FAD401      0.0000 
     51 O1P       -10.7360  -21.2570   18.5370 O.co2     1 FAD401      0.0000 
     52 O2P       -11.5040  -18.9400   17.5300 O.co2     1 FAD401      0.0000 
     53 O3P        -9.2760  -19.1850   18.8670 O.3       1 FAD401      0.0000 
@<TRIPOS>BOND
     1    1    2 ar   
     2    1    3 ar   
     3    1    4 1    
     4    1   53 1    
     5    4    5 1    
     6    5    6 1    
     7    6    7 1    
     8    6    8 1    
     9    7   12 1    
    10    8    9 1    
    11    8   10 1    
    12   10   11 1    
    13   10   12 1    
    14   12   13 1    
    15   13   14 1    
    16   13   22 1    
    17   14   15 2    
    18   15   16 1    
    19   16   17 ar   
    20   16   22 ar   
    21   17   18 1    
    22   17   19 ar   
    23   19   20 ar   
    24   20   21 ar   
    25   21   22 ar   
    26   23   24 1    
    27   23   40 2    
    28   24   25 2    
    29   24   26 am   
    30   26   27 am   
    31   27   28 2    
    32   27   29 1    
    33   29   30 2    
    34   29   40 1    
    35   30   31 1    
    36   31   32 ar   
    37   31   38 ar   
    38   32   33 ar   
    39   33   34 1    
    40   33   35 ar   
    41   35   36 1    
    42   35   37 ar   
    43   37   38 ar   
    44   38   39 1    
    45   39   40 1    
    46   39   41 1    
    47   41   42 1    
    48   42   43 1    
    49   42   44 1    
    50   44   45 1    
    51   44   46 1    
    52   46   47 1    
    53   46   48 1    
    54   48   49 1    
    55   49   50 1    
    56   50   51 ar   
    57   50   52 ar   
    58   50   53 1    
@<TRIPOS>SUBSTRUCTURE
     1 FAD401      1 GROUP   
@<TRIPOS>SET
ATOM$ORANGE STATIC     ATOMS   COLORGROUP SYSTEM 
54 5 5 6 6 8 8 10 10 12 12 14 14 16 16 17 17 20 \
20 22 22 24 24 27 27 29 29 31 31 32 32 33 33 34 34 35 \
35 36 36 37 37 38 38 40 40 41 41 42 42 44 44 46 46 48 \
48 

