#    Name: 5wx2_8_FAD
#    Modification time : Fri May 22 19:15:24 2020

@<TRIPOS>MOLECULE
5wx2_8_FAD
   53    58     1     0     1
SMALL
NO_CHARGES


@<TRIPOS>ATOM
      1 PA         69.0160    8.2390   55.1610 P.3       1 FAD401      0.0000 
      2 O1A        69.3830    7.8930   53.7400 O.co2     1 FAD401      0.0000 
      3 O2A        69.3510    7.2830   56.2720 O.co2     1 FAD401      0.0000 
      4 O5B        69.5770    9.7110   55.5080 O.3       1 FAD401      0.0000 
      5 C5B        69.4910   10.2680   56.8200 C.3       1 FAD401      0.0000 
      6 C4B        70.6470   11.2430   56.9860 C.3       1 FAD401      0.0000 
      7 O4B        70.5200   11.9250   58.2260 O.3       1 FAD401      0.0000 
      8 C3B        72.0250   10.5730   57.0130 C.3       1 FAD401      0.0000 
      9 O3B        72.9800   11.2670   56.1890 O.3       1 FAD401      0.0000 
     10 C2B        72.4320   10.6400   58.4690 C.3       1 FAD401      0.0000 
     11 O2B        73.8550   10.6290   58.6200 O.3       1 FAD401      0.0000 
     12 C1B        71.7710   11.9340   58.8970 C.3       1 FAD401      0.0000 
     13 N9A        71.5010   11.9850   60.3350 N.pl3     1 FAD401      0.0000 
     14 C8A        70.5610   11.2710   60.9640 C.2       1 FAD401      0.0000 
     15 N7A        70.5370   11.5900   62.2800 N.2       1 FAD401      0.0000 
     16 C5A        71.4600   12.5270   62.4900 C.ar      1 FAD401      0.0000 
     17 C6A        71.9030   13.3160   63.6420 C.ar      1 FAD401      0.0000 
     18 N6A        71.3430   13.0830   64.8450 N.pl3     1 FAD401      0.0000 
     19 N1A        72.8630   14.2420   63.4560 N.ar      1 FAD401      0.0000 
     20 C2A        73.3850   14.4800   62.2340 C.ar      1 FAD401      0.0000 
     21 N3A        73.0110   13.7940   61.1360 N.ar      1 FAD401      0.0000 
     22 C4A        72.0460   12.8390   61.1930 C.ar      1 FAD401      0.0000 
     23 N1         63.2060    3.4090   48.4780 N.2       1 FAD401      0.0000 
     24 C2         62.8420    3.4970   47.1850 C.2       1 FAD401      0.0000 
     25 O2         62.2650    4.5440   46.8400 O.2       1 FAD401      0.0000 
     26 N3         63.1530    2.5630   46.2540 N.am      1 FAD401      0.0000 
     27 C4         63.7900    1.4240   46.5750 C.2       1 FAD401      0.0000 
     28 O4         64.0970    0.5400   45.7330 O.2       1 FAD401      0.0000 
     29 C4X        64.1400    1.2390   47.9890 C.2       1 FAD401      0.0000 
     30 N5         64.7730    0.1390   48.3870 N.2       1 FAD401      0.0000 
     31 C5X        65.1480   -0.0340   49.6660 C.ar      1 FAD401      0.0000 
     32 C6         65.8260   -1.1890   49.9820 C.ar      1 FAD401      0.0000 
     33 C7         66.2380   -1.4200   51.2750 C.ar      1 FAD401      0.0000 
     34 C7M        66.9440   -2.7210   51.6000 C.3       1 FAD401      0.0000 
     35 C8         65.9960   -0.3920   52.3130 C.ar      1 FAD401      0.0000 
     36 C8M        66.4420   -0.6120   53.7360 C.3       1 FAD401      0.0000 
     37 C9         65.3370    0.7720   51.9880 C.ar      1 FAD401      0.0000 
     38 C9A        64.9170    1.0210   50.6820 C.ar      1 FAD401      0.0000 
     39 N10        64.2810    2.2300   50.2620 N.pl3     1 FAD401      0.0000 
     40 C10        63.8850    2.3460   48.9220 C.2       1 FAD401      0.0000 
     41 C1'        63.8800    3.2940   51.1950 C.3       1 FAD401      0.0000 
     42 C2'        64.9040    4.4060   51.2400 C.3       1 FAD401      0.0000 
     43 O2'        66.1780    3.8090   51.4920 O.3       1 FAD401      0.0000 
     44 C3'        64.5820    5.4060   52.3490 C.3       1 FAD401      0.0000 
     45 O3'        63.2000    5.7840   52.2880 O.3       1 FAD401      0.0000 
     46 C4'        65.4230    6.6810   52.2540 C.3       1 FAD401      0.0000 
     47 O4'        66.8060    6.4040   52.0360 O.3       1 FAD401      0.0000 
     48 C5'        65.3240    7.5050   53.5290 C.3       1 FAD401      0.0000 
     49 O5'        65.8590    8.8110   53.2940 O.3       1 FAD401      0.0000 
     50 P          66.6480    9.5880   54.4580 P.3       1 FAD401      0.0000 
     51 O1P        65.7100   10.1540   55.5020 O.co2     1 FAD401      0.0000 
     52 O2P        67.5580   10.5010   53.6760 O.co2     1 FAD401      0.0000 
     53 O3P        67.4290    8.4390   55.2720 O.3       1 FAD401      0.0000 
@<TRIPOS>BOND
     1    1    2 ar   
     2    1    3 ar   
     3    1    4 1    
     4    1   53 1    
     5    4    5 1    
     6    5    6 1    
     7    6    7 1    
     8    6    8 1    
     9    7   12 1    
    10    8    9 1    
    11    8   10 1    
    12   10   11 1    
    13   10   12 1    
    14   12   13 1    
    15   13   14 1    
    16   13   22 1    
    17   14   15 2    
    18   15   16 1    
    19   16   17 ar   
    20   16   22 ar   
    21   17   18 1    
    22   17   19 ar   
    23   19   20 ar   
    24   20   21 ar   
    25   21   22 ar   
    26   23   24 1    
    27   23   40 2    
    28   24   25 2    
    29   24   26 am   
    30   26   27 am   
    31   27   28 2    
    32   27   29 1    
    33   29   30 2    
    34   29   40 1    
    35   30   31 1    
    36   31   32 ar   
    37   31   38 ar   
    38   32   33 ar   
    39   33   34 1    
    40   33   35 ar   
    41   35   36 1    
    42   35   37 ar   
    43   37   38 ar   
    44   38   39 1    
    45   39   40 1    
    46   39   41 1    
    47   41   42 1    
    48   42   43 1    
    49   42   44 1    
    50   44   45 1    
    51   44   46 1    
    52   46   47 1    
    53   46   48 1    
    54   48   49 1    
    55   49   50 1    
    56   50   51 ar   
    57   50   52 ar   
    58   50   53 1    
@<TRIPOS>SUBSTRUCTURE
     1 FAD401      1 GROUP   
@<TRIPOS>SET
ATOM$ORANGE STATIC     ATOMS   COLORGROUP SYSTEM 
54 5 5 6 6 8 8 10 10 12 12 14 14 16 16 17 17 20 \
20 22 22 24 24 27 27 29 29 31 31 32 32 33 33 34 34 35 \
35 36 36 37 37 38 38 40 40 41 41 42 42 44 44 46 46 48 \
48 

