#    Name: 5wx2_4_FAD_CAVITY_N1_4
#    Modification time : Fri May 22 19:14:53 2020

@<TRIPOS>MOLECULE
5wx2_4_FAD_CAVITY_N1_4
   65     0     5     0     0
SMALL
NO_CHARGES


@<TRIPOS>ATOM
      1 O          45.8400  -48.6400   27.1700 O.2       1 ALA2        0.0000 
      2 O          47.2000  -49.0700   26.7200 O.2       1 ALA2        0.0000 
      3 N          45.0900  -47.3500   28.6800 N.am      1 ALA2        0.0000 
      4 O          46.4600  -47.7900   28.2300 O.2       1 ALA2        0.0000 
      5 N          46.4000  -48.9400   29.1900 N.am      1 ALA2        0.0000 
      6 O          47.8200  -48.2200   27.7900 O.2       1 ALA2        0.0000 
      7 N          49.1300  -49.8200   28.3000 N.am      1 ALA2        0.0000 
      8 N          47.0200  -48.0900   30.2600 N.am      1 ALA2        0.0000 
      9 N          46.9600  -49.2500   31.2100 N.am      1 ALA2        0.0000 
     10 N          47.5800  -48.4000   32.2800 N.am      1 ALA2        0.0000 
     11 N          47.5200  -49.5500   33.2300 N.am      1 ALA2        0.0000 
     12 O          50.9900  -47.2700   31.5000 O.2       1 ALA2        0.0000 
     13 N          48.7700  -47.8500   35.3700 N.am      1 ALA2        0.0000 
     14 N          50.0700  -49.4500   35.8800 N.am      1 ALA2        0.0000 
     15 NZ         49.0700  -50.9700   29.2500 N.4       2 LYS4        0.0000 
     16 NZ         49.0100  -52.1300   30.2100 N.4       2 LYS4        0.0000 
     17 NZ         49.7500  -48.9700   29.3600 N.4       2 LYS4        0.0000 
     18 NZ         48.9500  -48.8300   31.8300 N.4       2 LYS4        0.0000 
     19 NZ         50.3700  -48.1200   30.4300 N.4       2 LYS4        0.0000 
     20 NZ         50.1900  -51.5800   33.3000 N.4       2 LYS4        0.0000 
     21 NZ         49.5100  -49.1400   33.8500 N.4       2 LYS4        0.0000 
     22 NZ         50.9300  -48.4200   32.4600 N.4       2 LYS4        0.0000 
     23 NZ         50.8100  -50.7300   34.3600 N.4       2 LYS4        0.0000 
     24 NZ         51.5500  -47.5700   33.5200 N.4       2 LYS4        0.0000 
     25 NZ         51.4900  -48.7300   34.4800 N.4       2 LYS4        0.0000 
     26 NZ         51.4400  -49.8800   35.4300 N.4       2 LYS4        0.0000 
     27 CZ         45.1000  -51.8000   28.0100 C.ar      3 PHE5        0.0000 
     28 CZ         45.7800  -49.7900   28.1200 C.ar      3 PHE5        0.0000 
     29 CZ         47.0800  -51.3900   28.6300 C.ar      3 PHE5        0.0000 
     30 CZ         48.3900  -52.9800   29.1400 C.ar      3 PHE5        0.0000 
     31 CZ         46.3400  -50.1000   30.1400 C.ar      3 PHE5        0.0000 
     32 CZ         47.7000  -50.5400   29.7000 C.ar      3 PHE5        0.0000 
     33 CZ         48.3200  -49.6900   30.7600 C.ar      3 PHE5        0.0000 
     34 CZ         48.8900  -49.9900   32.7900 C.ar      3 PHE5        0.0000 
     35 CA         45.2100  -49.4900   26.1000 C.3       4 GLY6        0.0000 
     36 CA         45.1500  -50.6400   27.0500 C.3       4 GLY6        0.0000 
     37 CA         46.4600  -52.2400   27.5600 C.3       4 GLY6        0.0000 
     38 CA         47.8200  -52.6700   27.1100 C.3       4 GLY6        0.0000 
     39 CA         44.4700  -48.2000   27.6100 C.3       4 GLY6        0.0000 
     40 CA         47.1400  -50.2300   27.6700 C.3       4 GLY6        0.0000 
     41 CA         48.5000  -50.6700   27.2300 C.3       4 GLY6        0.0000 
     42 CA         48.4500  -51.8200   28.1800 C.3       4 GLY6        0.0000 
     43 CA         47.0800  -46.9400   29.3000 C.3       4 GLY6        0.0000 
     44 CA         48.4400  -47.3700   28.8600 C.3       4 GLY6        0.0000 
     45 CA         49.8100  -47.8100   28.4100 C.3       4 GLY6        0.0000 
     46 CA         47.6400  -47.2400   31.3200 C.3       4 GLY6        0.0000 
     47 CA         49.0600  -46.5200   29.9200 C.3       4 GLY6        0.0000 
     48 CA         49.0000  -47.6800   30.8800 C.3       4 GLY6        0.0000 
     49 CA         48.8300  -51.1500   33.7400 C.3       4 GLY6        0.0000 
     50 CA         50.4300  -46.9600   29.4800 C.3       4 GLY6        0.0000 
     51 CA         48.1400  -48.7000   34.3000 C.3       4 GLY6        0.0000 
     52 CA         49.6900  -45.6700   30.9900 C.3       4 GLY6        0.0000 
     53 CA         49.6300  -46.8300   31.9500 C.3       4 GLY6        0.0000 
     54 CA         49.5700  -47.9800   32.9000 C.3       4 GLY6        0.0000 
     55 CA         49.4500  -50.3000   34.8100 C.3       4 GLY6        0.0000 
     56 CA         49.3900  -51.4500   35.7600 C.3       4 GLY6        0.0000 
     57 CA         51.0500  -46.1100   30.5500 C.3       4 GLY6        0.0000 
     58 CA         50.2500  -45.9800   33.0100 C.3       4 GLY6        0.0000 
     59 CA         50.1900  -47.1300   33.9700 C.3       4 GLY6        0.0000 
     60 CA         50.0100  -50.6000   36.8300 C.3       4 GLY6        0.0000 
     61 CA         51.6100  -46.4200   32.5700 C.3       4 GLY6        0.0000 
     62 DU         44.4100  -49.3600   28.5600 H         5 CUB7        0.0000 
     63 DU         47.7600  -49.3800   28.7400 H         5 CUB7        0.0000 
     64 DU         48.3800  -48.5300   29.8100 H         5 CUB7        0.0000 
     65 DU         50.1300  -48.2900   34.9200 H         5 CUB7        0.0000 
@<TRIPOS>BOND
@<TRIPOS>SUBSTRUCTURE
     1 ALA2        1 GROUP   
     2 LYS4       15 GROUP   
     3 PHE5       27 GROUP   
     4 GLY6       35 GROUP   
     5 CUB7       62 GROUP   
@<TRIPOS>SET

