#    Name: 5wx2_6_FAD
#    Modification time : Fri May 22 19:15:07 2020

@<TRIPOS>MOLECULE
5wx2_6_FAD
   53    58     1     0     1
SMALL
NO_CHARGES


@<TRIPOS>ATOM
      1 PA         31.0010  -54.0980   92.3210 P.3       1 FAD401      0.0000 
      2 O1A        31.2260  -54.3540   90.8440 O.co2     1 FAD401      0.0000 
      3 O2A        30.9510  -55.2820   93.2580 O.co2     1 FAD401      0.0000 
      4 O5B        32.1470  -53.1300   92.8560 O.3       1 FAD401      0.0000 
      5 C5B        32.1160  -52.6760   94.1930 C.3       1 FAD401      0.0000 
      6 C4B        33.4760  -52.0580   94.4220 C.3       1 FAD401      0.0000 
      7 O4B        33.5280  -51.3720   95.6770 O.3       1 FAD401      0.0000 
      8 C3B        34.5400  -53.1340   94.4700 C.3       1 FAD401      0.0000 
      9 O3B        35.7300  -52.6350   93.8700 O.3       1 FAD401      0.0000 
     10 C2B        34.7360  -53.3030   95.9480 C.3       1 FAD401      0.0000 
     11 O2B        35.9880  -53.8820   96.2580 O.3       1 FAD401      0.0000 
     12 C1B        34.6580  -51.8650   96.3970 C.3       1 FAD401      0.0000 
     13 N9A        34.5000  -51.7050   97.8580 N.pl3     1 FAD401      0.0000 
     14 C8A        33.3840  -51.9400   98.5870 C.2       1 FAD401      0.0000 
     15 N7A        33.5960  -51.6390   99.9010 N.2       1 FAD401      0.0000 
     16 C5A        34.8490  -51.1640   99.9890 C.ar      1 FAD401      0.0000 
     17 C6A        35.6990  -50.6250  101.0590 C.ar      1 FAD401      0.0000 
     18 N6A        35.2060  -50.5550  102.3120 N.pl3     1 FAD401      0.0000 
     19 N1A        36.9720  -50.2660  100.7470 N.ar      1 FAD401      0.0000 
     20 C2A        37.4340  -50.3300   99.4730 C.ar      1 FAD401      0.0000 
     21 N3A        36.6960  -50.7880   98.4420 N.ar      1 FAD401      0.0000 
     22 C4A        35.4340  -51.1990   98.6430 C.ar      1 FAD401      0.0000 
     23 N1         23.6740  -56.5160   85.7140 N.2       1 FAD401      0.0000 
     24 C2         23.3310  -56.2750   84.4140 C.2       1 FAD401      0.0000 
     25 O2         23.1890  -55.0810   84.0500 O.2       1 FAD401      0.0000 
     26 N3         23.2000  -57.2660   83.5030 N.am      1 FAD401      0.0000 
     27 C4         23.3690  -58.5550   83.8390 C.2       1 FAD401      0.0000 
     28 O4         23.1970  -59.4860   83.0180 O.2       1 FAD401      0.0000 
     29 C4X        23.7190  -58.8760   85.2400 C.2       1 FAD401      0.0000 
     30 N5         23.8910  -60.1470   85.6150 N.2       1 FAD401      0.0000 
     31 C5X        24.1640  -60.4450   86.8970 C.ar      1 FAD401      0.0000 
     32 C6         24.3160  -61.7880   87.2220 C.ar      1 FAD401      0.0000 
     33 C7         24.6580  -62.1600   88.5140 C.ar      1 FAD401      0.0000 
     34 C7M        24.8250  -63.6110   88.8550 C.3       1 FAD401      0.0000 
     35 C8         24.8490  -61.1180   89.5500 C.ar      1 FAD401      0.0000 
     36 C8M        25.2040  -61.5220   90.9510 C.3       1 FAD401      0.0000 
     37 C9         24.6980  -59.7730   89.2340 C.ar      1 FAD401      0.0000 
     38 C9A        24.3490  -59.3760   87.9370 C.ar      1 FAD401      0.0000 
     39 N10        24.2050  -58.0180   87.5480 N.pl3     1 FAD401      0.0000 
     40 C10        23.8700  -57.7600   86.1960 C.2       1 FAD401      0.0000 
     41 C1'        24.2660  -56.9130   88.5310 C.3       1 FAD401      0.0000 
     42 C2'        25.6160  -56.2280   88.5730 C.3       1 FAD401      0.0000 
     43 O2'        26.6280  -57.2320   88.7150 O.3       1 FAD401      0.0000 
     44 C3'        25.7710  -55.2470   89.7330 C.3       1 FAD401      0.0000 
     45 O3'        24.5800  -54.5030   89.9720 O.3       1 FAD401      0.0000 
     46 C4'        26.8770  -54.2460   89.4550 C.3       1 FAD401      0.0000 
     47 O4'        28.0430  -54.9120   88.9630 O.3       1 FAD401      0.0000 
     48 C5'        27.2350  -53.4710   90.7020 C.3       1 FAD401      0.0000 
     49 O5'        28.4010  -52.7110   90.4420 O.3       1 FAD401      0.0000 
     50 P          29.0860  -51.9920   91.6910 P.3       1 FAD401      0.0000 
     51 O1P        27.9880  -51.2870   92.5040 O.co2     1 FAD401      0.0000 
     52 O2P        30.2340  -51.1630   91.1720 O.co2     1 FAD401      0.0000 
     53 O3P        29.6610  -53.2110   92.5950 O.3       1 FAD401      0.0000 
@<TRIPOS>BOND
     1    1    2 ar   
     2    1    3 ar   
     3    1    4 1    
     4    1   53 1    
     5    4    5 1    
     6    5    6 1    
     7    6    7 1    
     8    6    8 1    
     9    7   12 1    
    10    8    9 1    
    11    8   10 1    
    12   10   11 1    
    13   10   12 1    
    14   12   13 1    
    15   13   14 1    
    16   13   22 1    
    17   14   15 2    
    18   15   16 1    
    19   16   17 ar   
    20   16   22 ar   
    21   17   18 1    
    22   17   19 ar   
    23   19   20 ar   
    24   20   21 ar   
    25   21   22 ar   
    26   23   24 1    
    27   23   40 2    
    28   24   25 2    
    29   24   26 am   
    30   26   27 am   
    31   27   28 2    
    32   27   29 1    
    33   29   30 2    
    34   29   40 1    
    35   30   31 1    
    36   31   32 ar   
    37   31   38 ar   
    38   32   33 ar   
    39   33   34 1    
    40   33   35 ar   
    41   35   36 1    
    42   35   37 ar   
    43   37   38 ar   
    44   38   39 1    
    45   39   40 1    
    46   39   41 1    
    47   41   42 1    
    48   42   43 1    
    49   42   44 1    
    50   44   45 1    
    51   44   46 1    
    52   46   47 1    
    53   46   48 1    
    54   48   49 1    
    55   49   50 1    
    56   50   51 ar   
    57   50   52 ar   
    58   50   53 1    
@<TRIPOS>SUBSTRUCTURE
     1 FAD401      1 GROUP   
@<TRIPOS>SET
ATOM$ORANGE STATIC     ATOMS   COLORGROUP SYSTEM 
54 5 5 6 6 8 8 10 10 12 12 14 14 16 16 17 17 20 \
20 22 22 24 24 27 27 29 29 31 31 32 32 33 33 34 34 35 \
35 36 36 37 37 38 38 40 40 41 41 42 42 44 44 46 46 48 \
48 

