#    Name: 5wx2_5_FAD
#    Modification time : Fri May 22 19:14:59 2020

@<TRIPOS>MOLECULE
5wx2_5_FAD
   53    58     1     0     1
SMALL
NO_CHARGES


@<TRIPOS>ATOM
      1 PA         30.2890  -81.2440   46.6150 P.3       1 FAD401      0.0000 
      2 O1A        30.0680  -80.8830   48.0610 O.co2     1 FAD401      0.0000 
      3 O2A        31.4570  -80.6400   45.8670 O.co2     1 FAD401      0.0000 
      4 O5B        30.3980  -82.8510   46.5300 O.3       1 FAD401      0.0000 
      5 C5B        30.5560  -83.4660   45.2560 C.3       1 FAD401      0.0000 
      6 C4B        30.9870  -84.9130   45.4020 C.3       1 FAD401      0.0000 
      7 O4B        31.1090  -85.5030   44.1050 O.3       1 FAD401      0.0000 
      8 C3B        32.3540  -85.0690   46.0560 C.3       1 FAD401      0.0000 
      9 O3B        32.3040  -86.1860   46.9570 O.3       1 FAD401      0.0000 
     10 C2B        33.2800  -85.2990   44.8690 C.3       1 FAD401      0.0000 
     11 O2B        34.5190  -85.9450   45.1940 O.3       1 FAD401      0.0000 
     12 C1B        32.3700  -86.1690   44.0290 C.3       1 FAD401      0.0000 
     13 N9A        32.7730  -86.4090   42.6170 N.pl3     1 FAD401      0.0000 
     14 C8A        32.6040  -85.6080   41.5480 C.2       1 FAD401      0.0000 
     15 N7A        33.0100  -86.2330   40.4200 N.2       1 FAD401      0.0000 
     16 C5A        33.3540  -87.4890   40.7630 C.ar      1 FAD401      0.0000 
     17 C6A        33.8470  -88.7110   40.0830 C.ar      1 FAD401      0.0000 
     18 N6A        34.0410  -88.7240   38.7490 N.pl3     1 FAD401      0.0000 
     19 N1A        34.1280  -89.8030   40.8220 N.ar      1 FAD401      0.0000 
     20 C2A        33.9690  -89.8180   42.1610 C.ar      1 FAD401      0.0000 
     21 N3A        33.5130  -88.7500   42.8350 N.ar      1 FAD401      0.0000 
     22 C4A        33.1990  -87.5910   42.2050 C.ar      1 FAD401      0.0000 
     23 N1         24.9920  -73.3400   50.2800 N.2       1 FAD401      0.0000 
     24 C2         24.0910  -72.9750   51.2460 C.2       1 FAD401      0.0000 
     25 O2         22.9890  -73.5720   51.2520 O.2       1 FAD401      0.0000 
     26 N3         24.3980  -72.0650   52.2090 N.am      1 FAD401      0.0000 
     27 C4         25.6170  -71.4750   52.2520 C.2       1 FAD401      0.0000 
     28 O4         25.9170  -70.6050   53.0930 O.2       1 FAD401      0.0000 
     29 C4X        26.5930  -71.7710   51.1880 C.2       1 FAD401      0.0000 
     30 N5         27.7840  -71.1590   51.1400 N.2       1 FAD401      0.0000 
     31 C5X        28.6830  -71.4500   50.1730 C.ar      1 FAD401      0.0000 
     32 C6         29.9070  -70.7890   50.2020 C.ar      1 FAD401      0.0000 
     33 C7         30.8930  -71.0280   49.2460 C.ar      1 FAD401      0.0000 
     34 C7M        32.1870  -70.2490   49.3370 C.3       1 FAD401      0.0000 
     35 C8         30.6060  -72.0030   48.1560 C.ar      1 FAD401      0.0000 
     36 C8M        31.6650  -72.3180   47.1220 C.3       1 FAD401      0.0000 
     37 C9         29.3960  -72.7140   48.1700 C.ar      1 FAD401      0.0000 
     38 C9A        28.4030  -72.4810   49.1360 C.ar      1 FAD401      0.0000 
     39 N10        27.1360  -73.1330   49.1720 N.pl3     1 FAD401      0.0000 
     40 C10        26.2250  -72.7850   50.1830 C.2       1 FAD401      0.0000 
     41 C1'        26.6850  -74.0860   48.1560 C.3       1 FAD401      0.0000 
     42 C2'        26.9470  -75.4970   48.6120 C.3       1 FAD401      0.0000 
     43 O2'        28.1990  -75.5420   49.2820 O.3       1 FAD401      0.0000 
     44 C3'        27.0090  -76.4360   47.4170 C.3       1 FAD401      0.0000 
     45 O3'        25.9190  -76.1440   46.5320 O.3       1 FAD401      0.0000 
     46 C4'        26.9480  -77.8920   47.8770 C.3       1 FAD401      0.0000 
     47 O4'        28.0620  -78.1390   48.7370 O.3       1 FAD401      0.0000 
     48 C5'        26.9630  -78.8820   46.7090 C.3       1 FAD401      0.0000 
     49 O5'        27.0300  -80.2290   47.1910 O.3       1 FAD401      0.0000 
     50 P          27.4550  -81.4230   46.2120 P.3       1 FAD401      0.0000 
     51 O1P        26.5720  -81.3650   44.9730 O.co2     1 FAD401      0.0000 
     52 O2P        27.4690  -82.7270   46.9940 O.co2     1 FAD401      0.0000 
     53 O3P        28.9470  -80.9600   45.7640 O.3       1 FAD401      0.0000 
@<TRIPOS>BOND
     1    1    2 ar   
     2    1    3 ar   
     3    1    4 1    
     4    1   53 1    
     5    4    5 1    
     6    5    6 1    
     7    6    7 1    
     8    6    8 1    
     9    7   12 1    
    10    8    9 1    
    11    8   10 1    
    12   10   11 1    
    13   10   12 1    
    14   12   13 1    
    15   13   14 1    
    16   13   22 1    
    17   14   15 2    
    18   15   16 1    
    19   16   17 ar   
    20   16   22 ar   
    21   17   18 1    
    22   17   19 ar   
    23   19   20 ar   
    24   20   21 ar   
    25   21   22 ar   
    26   23   24 1    
    27   23   40 2    
    28   24   25 2    
    29   24   26 am   
    30   26   27 am   
    31   27   28 2    
    32   27   29 1    
    33   29   30 2    
    34   29   40 1    
    35   30   31 1    
    36   31   32 ar   
    37   31   38 ar   
    38   32   33 ar   
    39   33   34 1    
    40   33   35 ar   
    41   35   36 1    
    42   35   37 ar   
    43   37   38 ar   
    44   38   39 1    
    45   39   40 1    
    46   39   41 1    
    47   41   42 1    
    48   42   43 1    
    49   42   44 1    
    50   44   45 1    
    51   44   46 1    
    52   46   47 1    
    53   46   48 1    
    54   48   49 1    
    55   49   50 1    
    56   50   51 ar   
    57   50   52 ar   
    58   50   53 1    
@<TRIPOS>SUBSTRUCTURE
     1 FAD401      1 GROUP   
@<TRIPOS>SET
ATOM$ORANGE STATIC     ATOMS   COLORGROUP SYSTEM 
54 5 5 6 6 8 8 10 10 12 12 14 14 16 16 17 17 20 \
20 22 22 24 24 27 27 29 29 31 31 32 32 33 33 34 34 35 \
35 36 36 37 37 38 38 40 40 41 41 42 42 44 44 46 46 48 \
48 

