#    Name: 5wx2_2_FAD
#    Modification time : Fri May 22 19:14:34 2020

@<TRIPOS>MOLECULE
5wx2_2_FAD
   53    58     1     0     1
SMALL
NO_CHARGES


@<TRIPOS>ATOM
      1 PA         16.8710   -1.9280  -24.8400 P.3       1 FAD401      0.0000 
      2 O1A        16.4020   -2.5130  -23.5150 O.co2     1 FAD401      0.0000 
      3 O2A        15.9170   -0.9160  -25.4560 O.co2     1 FAD401      0.0000 
      4 O5B        18.2790   -1.1620  -24.6780 O.3       1 FAD401      0.0000 
      5 C5B        18.7150   -0.3430  -25.7590 C.3       1 FAD401      0.0000 
      6 C4B        19.8580    0.5620  -25.3300 C.3       1 FAD401      0.0000 
      7 O4B        20.6020    1.0060  -26.4800 O.3       1 FAD401      0.0000 
      8 C3B        19.3580    1.8150  -24.6470 C.3       1 FAD401      0.0000 
      9 O3B        20.2580    2.1380  -23.5950 O.3       1 FAD401      0.0000 
     10 C2B        19.4340    2.8760  -25.7190 C.3       1 FAD401      0.0000 
     11 O2B        19.6230    4.1900  -25.2100 O.3       1 FAD401      0.0000 
     12 C1B        20.6670    2.4460  -26.4820 C.3       1 FAD401      0.0000 
     13 N9A        20.7870    3.0690  -27.8470 N.pl3     1 FAD401      0.0000 
     14 C8A        20.0710    2.8230  -28.9590 C.2       1 FAD401      0.0000 
     15 N7A        20.5220    3.5600  -29.9970 N.2       1 FAD401      0.0000 
     16 C5A        21.5670    4.2590  -29.5660 C.ar      1 FAD401      0.0000 
     17 C6A        22.5250    5.2180  -30.1370 C.ar      1 FAD401      0.0000 
     18 N6A        22.4470    5.5670  -31.4230 N.pl3     1 FAD401      0.0000 
     19 N1A        23.4860    5.7260  -29.3410 N.ar      1 FAD401      0.0000 
     20 C2A        23.5850    5.3580  -28.0430 C.ar      1 FAD401      0.0000 
     21 N3A        22.7340    4.4900  -27.4640 N.ar      1 FAD401      0.0000 
     22 C4A        21.7350    3.9250  -28.1600 C.ar      1 FAD401      0.0000 
     23 N1         11.3030  -10.1320  -22.6950 N.2       1 FAD401      0.0000 
     24 C2         11.3370  -11.2200  -21.8770 C.2       1 FAD401      0.0000 
     25 O2         12.2940  -12.0240  -21.9430 O.2       1 FAD401      0.0000 
     26 N3         10.3910  -11.4270  -20.9380 N.am      1 FAD401      0.0000 
     27 C4          9.3820  -10.5610  -20.7540 C.2       1 FAD401      0.0000 
     28 O4          8.5290  -10.7330  -19.8860 O.2       1 FAD401      0.0000 
     29 C4X         9.2640   -9.3950  -21.6230 C.2       1 FAD401      0.0000 
     30 N5          8.1930   -8.5940  -21.5470 N.2       1 FAD401      0.0000 
     31 C5X         8.0070   -7.6090  -22.4490 C.ar      1 FAD401      0.0000 
     32 C6          6.9060   -6.7890  -22.2750 C.ar      1 FAD401      0.0000 
     33 C7          6.7160   -5.6990  -23.0920 C.ar      1 FAD401      0.0000 
     34 C7M         5.5210   -4.8240  -22.8800 C.3       1 FAD401      0.0000 
     35 C8          7.7200   -5.3790  -24.1220 C.ar      1 FAD401      0.0000 
     36 C8M         7.5270   -4.1820  -25.0040 C.3       1 FAD401      0.0000 
     37 C9          8.8470   -6.1710  -24.2690 C.ar      1 FAD401      0.0000 
     38 C9A         9.0490   -7.2950  -23.4630 C.ar      1 FAD401      0.0000 
     39 N10        10.1790   -8.1510  -23.5580 N.pl3     1 FAD401      0.0000 
     40 C10        10.2750   -9.2490  -22.6840 C.2       1 FAD401      0.0000 
     41 C1'        11.2300   -7.9770  -24.5640 C.3       1 FAD401      0.0000 
     42 C2'        12.3650   -7.1360  -24.0060 C.3       1 FAD401      0.0000 
     43 O2'        11.7950   -5.9130  -23.5630 O.3       1 FAD401      0.0000 
     44 C3'        13.4300   -6.8100  -25.0510 C.3       1 FAD401      0.0000 
     45 O3'        13.7870   -7.9610  -25.8150 O.3       1 FAD401      0.0000 
     46 C4'        14.7120   -6.3230  -24.4140 C.3       1 FAD401      0.0000 
     47 O4'        14.4130   -5.4150  -23.3430 O.3       1 FAD401      0.0000 
     48 C5'        15.5790   -5.6720  -25.4820 C.3       1 FAD401      0.0000 
     49 O5'        16.9000   -5.5030  -24.9660 O.3       1 FAD401      0.0000 
     50 P          17.9620   -4.4890  -25.6290 P.3       1 FAD401      0.0000 
     51 O1P        18.2800   -5.0650  -27.0210 O.co2     1 FAD401      0.0000 
     52 O2P        19.0810   -4.3680  -24.6220 O.co2     1 FAD401      0.0000 
     53 O3P        17.2530   -3.0670  -25.9220 O.3       1 FAD401      0.0000 
@<TRIPOS>BOND
     1    1    2 ar   
     2    1    3 ar   
     3    1    4 1    
     4    1   53 1    
     5    4    5 1    
     6    5    6 1    
     7    6    7 1    
     8    6    8 1    
     9    7   12 1    
    10    8    9 1    
    11    8   10 1    
    12   10   11 1    
    13   10   12 1    
    14   12   13 1    
    15   13   14 1    
    16   13   22 1    
    17   14   15 2    
    18   15   16 1    
    19   16   17 ar   
    20   16   22 ar   
    21   17   18 1    
    22   17   19 ar   
    23   19   20 ar   
    24   20   21 ar   
    25   21   22 ar   
    26   23   24 1    
    27   23   40 2    
    28   24   25 2    
    29   24   26 am   
    30   26   27 am   
    31   27   28 2    
    32   27   29 1    
    33   29   30 2    
    34   29   40 1    
    35   30   31 1    
    36   31   32 ar   
    37   31   38 ar   
    38   32   33 ar   
    39   33   34 1    
    40   33   35 ar   
    41   35   36 1    
    42   35   37 ar   
    43   37   38 ar   
    44   38   39 1    
    45   39   40 1    
    46   39   41 1    
    47   41   42 1    
    48   42   43 1    
    49   42   44 1    
    50   44   45 1    
    51   44   46 1    
    52   46   47 1    
    53   46   48 1    
    54   48   49 1    
    55   49   50 1    
    56   50   51 ar   
    57   50   52 ar   
    58   50   53 1    
@<TRIPOS>SUBSTRUCTURE
     1 FAD401      1 GROUP   
@<TRIPOS>SET
ATOM$ORANGE STATIC     ATOMS   COLORGROUP SYSTEM 
54 5 5 6 6 8 8 10 10 12 12 14 14 16 16 17 17 20 \
20 22 22 24 24 27 27 29 29 31 31 32 32 33 33 34 34 35 \
35 36 36 37 37 38 38 40 40 41 41 42 42 44 44 46 46 48 \
48 

