#    Name: 5wx2_3_FAD
#    Modification time : Fri May 22 19:14:42 2020

@<TRIPOS>MOLECULE
5wx2_3_FAD
   53    58     1     0     1
SMALL
NO_CHARGES


@<TRIPOS>ATOM
      1 PA         25.2850  -70.2840  -17.9870 P.3       1 FAD401      0.0000 
      2 O1A        25.5950  -70.2980  -16.5070 O.co2     1 FAD401      0.0000 
      3 O2A        26.1410  -69.4390  -18.9080 O.co2     1 FAD401      0.0000 
      4 O5B        25.2610  -71.7910  -18.5320 O.3       1 FAD401      0.0000 
      5 C5B        25.1450  -72.1390  -19.9200 C.3       1 FAD401      0.0000 
      6 C4B        25.7030  -73.5630  -20.0800 C.3       1 FAD401      0.0000 
      7 O4B        25.3490  -74.2170  -21.3040 O.3       1 FAD401      0.0000 
      8 C3B        27.2270  -73.5710  -20.0520 C.3       1 FAD401      0.0000 
      9 O3B        27.6600  -74.7140  -19.2900 O.3       1 FAD401      0.0000 
     10 C2B        27.6170  -73.6560  -21.5090 C.3       1 FAD401      0.0000 
     11 O2B        28.9560  -74.1220  -21.6530 O.3       1 FAD401      0.0000 
     12 C1B        26.5410  -74.6070  -21.9960 C.3       1 FAD401      0.0000 
     13 N9A        26.2790  -74.5360  -23.4470 N.pl3     1 FAD401      0.0000 
     14 C8A        25.6520  -73.5310  -24.0930 C.2       1 FAD401      0.0000 
     15 N7A        25.4680  -73.8260  -25.4040 N.2       1 FAD401      0.0000 
     16 C5A        25.9970  -75.0490  -25.6060 C.ar      1 FAD401      0.0000 
     17 C6A        26.1260  -75.9750  -26.7630 C.ar      1 FAD401      0.0000 
     18 N6A        25.6770  -75.5920  -27.9920 N.pl3     1 FAD401      0.0000 
     19 N1A        26.6730  -77.1900  -26.5080 N.ar      1 FAD401      0.0000 
     20 C2A        27.0370  -77.5750  -25.2590 C.ar      1 FAD401      0.0000 
     21 N3A        26.9500  -76.7910  -24.1790 N.ar      1 FAD401      0.0000 
     22 C4A        26.4520  -75.5420  -24.2920 C.ar      1 FAD401      0.0000 
     23 N1         21.7210  -63.5010  -11.3040 N.2       1 FAD401      0.0000 
     24 C2         21.3530  -63.4250   -9.9790 C.2       1 FAD401      0.0000 
     25 O2         20.3890  -64.1010   -9.5450 O.2       1 FAD401      0.0000 
     26 N3         22.0350  -62.6880   -9.0840 N.am      1 FAD401      0.0000 
     27 C4         23.0490  -61.9030   -9.4710 C.2       1 FAD401      0.0000 
     28 O4         23.6560  -61.1490   -8.6970 O.2       1 FAD401      0.0000 
     29 C4X        23.4570  -61.8810  -10.8760 C.2       1 FAD401      0.0000 
     30 N5         24.4650  -61.0880  -11.2530 N.2       1 FAD401      0.0000 
     31 C5X        24.9100  -61.0560  -12.5190 C.ar      1 FAD401      0.0000 
     32 C6         26.0130  -60.2370  -12.8100 C.ar      1 FAD401      0.0000 
     33 C7         26.5270  -60.2390  -14.1020 C.ar      1 FAD401      0.0000 
     34 C7M        27.6800  -59.3390  -14.4470 C.3       1 FAD401      0.0000 
     35 C8         25.8730  -61.0790  -15.1640 C.ar      1 FAD401      0.0000 
     36 C8M        26.3930  -61.0520  -16.5830 C.3       1 FAD401      0.0000 
     37 C9         24.7910  -61.9120  -14.8570 C.ar      1 FAD401      0.0000 
     38 C9A        24.2790  -61.9550  -13.5480 C.ar      1 FAD401      0.0000 
     39 N10        23.1960  -62.7970  -13.1480 N.pl3     1 FAD401      0.0000 
     40 C10        22.7600  -62.7780  -11.8030 C.2       1 FAD401      0.0000 
     41 C1'        22.4720  -63.6310  -14.1070 C.3       1 FAD401      0.0000 
     42 C2'        22.9960  -65.0440  -14.0480 C.3       1 FAD401      0.0000 
     43 O2'        24.4170  -64.9970  -14.1370 O.3       1 FAD401      0.0000 
     44 C3'        22.4320  -65.8530  -15.2100 C.3       1 FAD401      0.0000 
     45 O3'        21.0090  -65.6320  -15.3450 O.3       1 FAD401      0.0000 
     46 C4'        22.7450  -67.3380  -15.0390 C.3       1 FAD401      0.0000 
     47 O4'        24.1430  -67.5050  -14.7790 O.3       1 FAD401      0.0000 
     48 C5'        22.3890  -68.0970  -16.3140 C.3       1 FAD401      0.0000 
     49 O5'        22.3950  -69.5070  -16.1050 O.3       1 FAD401      0.0000 
     50 P          22.5590  -70.5350  -17.3310 P.3       1 FAD401      0.0000 
     51 O1P        21.3040  -70.5340  -18.2170 O.co2     1 FAD401      0.0000 
     52 O2P        23.0170  -71.8580  -16.7140 O.co2     1 FAD401      0.0000 
     53 O3P        23.7470  -69.8580  -18.1930 O.3       1 FAD401      0.0000 
@<TRIPOS>BOND
     1    1    2 ar   
     2    1    3 ar   
     3    1    4 1    
     4    1   53 1    
     5    4    5 1    
     6    5    6 1    
     7    6    7 1    
     8    6    8 1    
     9    7   12 1    
    10    8    9 1    
    11    8   10 1    
    12   10   11 1    
    13   10   12 1    
    14   12   13 1    
    15   13   14 1    
    16   13   22 1    
    17   14   15 2    
    18   15   16 1    
    19   16   17 ar   
    20   16   22 ar   
    21   17   18 1    
    22   17   19 ar   
    23   19   20 ar   
    24   20   21 ar   
    25   21   22 ar   
    26   23   24 1    
    27   23   40 2    
    28   24   25 2    
    29   24   26 am   
    30   26   27 am   
    31   27   28 2    
    32   27   29 1    
    33   29   30 2    
    34   29   40 1    
    35   30   31 1    
    36   31   32 ar   
    37   31   38 ar   
    38   32   33 ar   
    39   33   34 1    
    40   33   35 ar   
    41   35   36 1    
    42   35   37 ar   
    43   37   38 ar   
    44   38   39 1    
    45   39   40 1    
    46   39   41 1    
    47   41   42 1    
    48   42   43 1    
    49   42   44 1    
    50   44   45 1    
    51   44   46 1    
    52   46   47 1    
    53   46   48 1    
    54   48   49 1    
    55   49   50 1    
    56   50   51 ar   
    57   50   52 ar   
    58   50   53 1    
@<TRIPOS>SUBSTRUCTURE
     1 FAD401      1 GROUP   
@<TRIPOS>SET
ATOM$ORANGE STATIC     ATOMS   COLORGROUP SYSTEM 
54 5 5 6 6 8 8 10 10 12 12 14 14 16 16 17 17 20 \
20 22 22 24 24 27 27 29 29 31 31 32 32 33 33 34 34 35 \
35 36 36 37 37 38 38 40 40 41 41 42 42 44 44 46 46 48 \
48 

