#    Name: 5qij_1_NAP
#    Modification time : Fri May 22 19:12:50 2020

@<TRIPOS>MOLECULE
5qij_1_NAP
   76    80     1     0     1
SMALL
NO_CHARGES


@<TRIPOS>ATOM
      1 PA         22.3100   15.8430   40.3250 P.3       1 NAP301      0.0000 
      2 O1A        22.7360   14.9260   41.4100 O.co2     1 NAP301      0.0000 
      3 O2A        22.0600   17.2790   40.8030 O.co2     1 NAP301      0.0000 
      4 O5B        23.4360   16.0390   39.2070 O.3       1 NAP301      0.0000 
      5 C5B        23.3820   17.0170   38.1510 C.3       1 NAP301      0.0000 
      6 C4B        24.6900   16.9480   37.4070 C.3       1 NAP301      0.0000 
      7 O4B        24.7640   18.0360   36.4530 O.3       1 NAP301      0.0000 
      8 C3B        25.9440   17.0530   38.2790 C.3       1 NAP301      0.0000 
      9 O3B        27.0010   16.2120   37.8290 O.3       1 NAP301      0.0000 
     10 C2B        26.3210   18.5220   38.1470 C.3       1 NAP301      0.0000 
     11 O2B        27.7190   18.7390   38.4290 O.3       1 NAP301      0.0000 
     12 C1B        25.9220   18.8130   36.7000 C.3       1 NAP301      0.0000 
     13 N9A        25.6180   20.2100   36.4010 N.pl3     1 NAP301      0.0000 
     14 C8A        24.9460   21.0990   37.2000 C.2       1 NAP301      0.0000 
     15 N7A        24.9160   22.3240   36.7330 N.2       1 NAP301      0.0000 
     16 C5A        25.6100   22.2350   35.5360 C.ar      1 NAP301      0.0000 
     17 C6A        25.9640   23.1980   34.5700 C.ar      1 NAP301      0.0000 
     18 N6A        25.6860   24.5010   34.6830 N.pl3     1 NAP301      0.0000 
     19 N1A        26.6780   22.7770   33.4990 N.ar      1 NAP301      0.0000 
     20 C2A        27.0300   21.4890   33.4230 C.ar      1 NAP301      0.0000 
     21 N3A        26.7530   20.4930   34.2680 N.ar      1 NAP301      0.0000 
     22 C4A        26.0400   20.9350   35.3130 C.ar      1 NAP301      0.0000 
     23 O3         21.1290   15.3190   39.3810 O.3       1 NAP301      0.0000 
     24 PN         20.2890   13.9610   39.2950 P.3       1 NAP301      0.0000 
     25 O1N        19.2370   14.0310   40.3340 O.co2     1 NAP301      0.0000 
     26 O2N        21.2150   12.8080   39.2850 O.co2     1 NAP301      0.0000 
     27 O5D        19.5910   14.1360   37.8710 O.3       1 NAP301      0.0000 
     28 C5D        20.1080   13.5440   36.6600 C.3       1 NAP301      0.0000 
     29 C4D        19.0350   13.5970   35.5990 C.3       1 NAP301      0.0000 
     30 O4D        17.8600   12.8820   36.0540 O.3       1 NAP301      0.0000 
     31 C3D        18.5390   14.9900   35.2310 C.3       1 NAP301      0.0000 
     32 O3D        18.3830   15.1270   33.8210 O.3       1 NAP301      0.0000 
     33 C2D        17.2070   15.0560   35.9730 C.3       1 NAP301      0.0000 
     34 O2D        16.2880   15.8660   35.2610 O.3       1 NAP301      0.0000 
     35 C1D        16.6800   13.6120   35.8490 C.3       1 NAP301      0.0000 
     36 N1N        15.6850   13.2710   36.9720 N.pl3     1 NAP301      0.0000 
     37 C2N        16.1350   13.1960   38.2990 C.ar      1 NAP301      0.0000 
     38 C3N        15.2560   12.8660   39.3180 C.ar      1 NAP301      0.0000 
     39 C7N        15.7090   12.5870   40.7360 C.2       1 NAP301      0.0000 
     40 O7N        14.8830   12.3850   41.5960 O.2       1 NAP301      0.0000 
     41 N7N        17.0190   12.5710   40.9950 N.am      1 NAP301      0.0000 
     42 C4N        13.9150   12.6640   39.0000 C.ar      1 NAP301      0.0000 
     43 C5N        13.4850   12.7520   37.6870 C.ar      1 NAP301      0.0000 
     44 C6N        14.3900   13.0440   36.6830 C.ar      1 NAP301      0.0000 
     45 P2B        28.3540   20.1760   38.7210 P.3       1 NAP301      0.0000 
     46 O1X        28.4300   20.9460   37.4890 O.co2     1 NAP301      0.0000 
     47 O2X        27.5240   20.8500   39.8220 O.co2     1 NAP301      0.0000 
     48 O3X        29.7170   19.7960   39.3010 O.co2     1 NAP301      0.0000 
     49 HOA2       21.4890   18.0040   40.4370 H         1 NAP301      0.0000 
     50 H51A       22.5630   16.6840   37.5140 H         1 NAP301      0.0000 
     51 H52A       23.1510   18.0190   38.5100 H         1 NAP301      0.0000 
     52 H4B        24.6990   16.0580   36.7790 H         1 NAP301      0.0000 
     53 H3B        25.7090   16.8230   39.3150 H         1 NAP301      0.0000 
     54 HO3A       26.8060   15.3080   38.1910 H         1 NAP301      0.0000 
     55 H2B        25.7250   19.0720   38.8730 H         1 NAP301      0.0000 
     56 H1B        26.6820   18.4920   35.9890 H         1 NAP301      0.0000 
     57 H8A        24.4620   20.8180   38.1340 H         1 NAP301      0.0000 
     58 H61A       25.1920   24.8570   35.4950 H         1 NAP301      0.0000 
     59 H62A       25.9540   25.1680   33.9670 H         1 NAP301      0.0000 
     60 H2A        27.6770   21.2180   32.5920 H         1 NAP301      0.0000 
     61 H51N       20.4910   12.5310   36.7710 H         1 NAP301      0.0000 
     62 H52N       20.9660   14.1660   36.4070 H         1 NAP301      0.0000 
     63 H4D        19.3720   13.0630   34.7130 H         1 NAP301      0.0000 
     64 H3D        19.1840   15.7830   35.6050 H         1 NAP301      0.0000 
     65 HO3N       17.5480   14.6660   33.5460 H         1 NAP301      0.0000 
     66 H2D        17.3040   15.3990   37.0020 H         1 NAP301      0.0000 
     67 HO2N       16.2450   16.7500   35.7090 H         1 NAP301      0.0000 
     68 H1D        16.2140   13.3300   34.9060 H         1 NAP301      0.0000 
     69 H2N        17.1760   13.4480   38.4920 H         1 NAP301      0.0000 
     70 H71N       17.3450   12.3790   41.9360 H         1 NAP301      0.0000 
     71 H72N       17.7640   12.6940   40.3180 H         1 NAP301      0.0000 
     72 H4N        13.1660   12.4560   39.7620 H         1 NAP301      0.0000 
     73 H5N        12.4350   12.6180   37.4370 H         1 NAP301      0.0000 
     74 H6N        14.0530   13.0940   35.6500 H         1 NAP301      0.0000 
     75 HOP2       27.4670   20.3850   40.6980 H         1 NAP301      0.0000 
     76 HOP3       29.8450   19.2460   40.1170 H         1 NAP301      0.0000 
@<TRIPOS>BOND
     1    1    2 ar   
     2    1    3 ar   
     3    1    4 1    
     4    1   23 1    
     5    3   49 1    
     6    4    5 1    
     7    5    6 1    
     8    5   50 1    
     9    5   51 1    
    10    6    7 1    
    11    6    8 1    
    12    6   52 1    
    13    7   12 1    
    14    8    9 1    
    15    8   10 1    
    16    8   53 1    
    17    9   54 1    
    18   10   11 1    
    19   10   12 1    
    20   10   55 1    
    21   11   45 1    
    22   12   13 1    
    23   12   56 1    
    24   13   14 1    
    25   13   22 1    
    26   14   15 2    
    27   14   57 1    
    28   15   16 1    
    29   16   17 ar   
    30   16   22 ar   
    31   17   18 1    
    32   17   19 ar   
    33   18   58 1    
    34   18   59 1    
    35   19   20 ar   
    36   20   21 ar   
    37   20   60 1    
    38   21   22 ar   
    39   23   24 1    
    40   24   25 ar   
    41   24   26 ar   
    42   24   27 1    
    43   27   28 1    
    44   28   29 1    
    45   28   61 1    
    46   28   62 1    
    47   29   30 1    
    48   29   31 1    
    49   29   63 1    
    50   30   35 1    
    51   31   32 1    
    52   31   33 1    
    53   31   64 1    
    54   32   65 1    
    55   33   66 1    
    56   33   34 1    
    57   33   35 1    
    58   34   67 1    
    59   35   36 1    
    60   35   68 1    
    61   36   37 ar   
    62   36   44 ar   
    63   37   38 ar   
    64   37   69 1    
    65   38   39 1    
    66   38   42 ar   
    67   39   40 2    
    68   39   41 am   
    69   41   70 1    
    70   41   71 1    
    71   42   43 ar   
    72   42   72 1    
    73   43   44 ar   
    74   43   73 1    
    75   44   74 1    
    76   45   46 ar   
    77   45   47 ar   
    78   45   48 ar   
    79   47   75 1    
    80   48   76 1    
@<TRIPOS>SUBSTRUCTURE
     1 NAP301      1 GROUP   
@<TRIPOS>SET
ATOM$ORANGE STATIC     ATOMS   COLORGROUP SYSTEM 
42 5 5 6 6 8 8 10 10 12 12 14 14 16 16 17 17 20 \
20 22 22 28 28 29 29 31 31 33 33 35 35 37 37 38 38 39 \
39 42 42 43 43 44 44 

