#    Name: 5qij_2_NAP
#    Modification time : Fri May 22 19:12:56 2020

@<TRIPOS>MOLECULE
5qij_2_NAP
   76    80     1     0     1
SMALL
NO_CHARGES


@<TRIPOS>ATOM
      1 PA          0.4870   34.9240   12.0030 P.3       1 NAP302      0.0000 
      2 O1A        -0.5240   35.2270   10.9640 O.co2     1 NAP302      0.0000 
      3 O2A         1.9160   34.7790   11.4800 O.co2     1 NAP302      0.0000 
      4 O5B         0.6230   36.1060   13.0700 O.3       1 NAP302      0.0000 
      5 C5B         1.6300   36.1760   14.0980 C.3       1 NAP302      0.0000 
      6 C4B         1.4680   37.5020   14.7950 C.3       1 NAP302      0.0000 
      7 O4B         2.5720   37.7090   15.7120 O.3       1 NAP302      0.0000 
      8 C3B         1.4340   38.7190   13.8680 C.3       1 NAP302      0.0000 
      9 O3B         0.5180   39.7170   14.3040 O.3       1 NAP302      0.0000 
     10 C2B         2.8710   39.2160   13.9360 C.3       1 NAP302      0.0000 
     11 O2B         2.9600   40.6120   13.5890 O.3       1 NAP302      0.0000 
     12 C1B         3.2430   38.9090   15.3880 C.3       1 NAP302      0.0000 
     13 N9A         4.6670   38.7330   15.6510 N.pl3     1 NAP302      0.0000 
     14 C8A         5.5830   38.1080   14.8440 C.2       1 NAP302      0.0000 
     15 N7A         6.8200   38.2030   15.2650 N.2       1 NAP302      0.0000 
     16 C5A         6.7130   38.9330   16.4390 C.ar      1 NAP302      0.0000 
     17 C6A         7.6760   39.4030   17.3570 C.ar      1 NAP302      0.0000 
     18 N6A         8.9950   39.2270   17.2090 N.pl3     1 NAP302      0.0000 
     19 N1A         7.2340   40.1240   18.4130 N.ar      1 NAP302      0.0000 
     20 C2A         5.9240   40.3660   18.5240 C.ar      1 NAP302      0.0000 
     21 N3A         4.9270   39.9690   17.7300 N.ar      1 NAP302      0.0000 
     22 C4A         5.3900   39.2570   16.6940 C.ar      1 NAP302      0.0000 
     23 O3          0.0950   33.7560   13.0210 O.3       1 NAP302      0.0000 
     24 PN         -1.1930   32.8240   13.1880 P.3       1 NAP302      0.0000 
     25 O1N        -1.0690   31.7450   12.1840 O.co2     1 NAP302      0.0000 
     26 O2N        -2.4230   33.6460   13.2080 O.co2     1 NAP302      0.0000 
     27 O5D        -0.9170   32.2000   14.6320 O.3       1 NAP302      0.0000 
     28 C5D        -1.5040   32.7120   15.8430 C.3       1 NAP302      0.0000 
     29 C4D        -1.3180   31.6890   16.9340 C.3       1 NAP302      0.0000 
     30 O4D        -1.9430   30.4440   16.5470 O.3       1 NAP302      0.0000 
     31 C3D         0.1230   31.3240   17.2710 C.3       1 NAP302      0.0000 
     32 O3D         0.3250   31.2340   18.6790 O.3       1 NAP302      0.0000 
     33 C2D         0.2780   29.9780   16.5730 C.3       1 NAP302      0.0000 
     34 O2D         1.1860   29.1590   17.2880 O.3       1 NAP302      0.0000 
     35 C1D        -1.1100   29.3400   16.7660 C.3       1 NAP302      0.0000 
     36 N1N        -1.4040   28.2810   15.6910 N.pl3     1 NAP302      0.0000 
     37 C2N        -1.5540   28.6720   14.3530 C.ar      1 NAP302      0.0000 
     38 C3N        -1.8330   27.7330   13.3740 C.ar      1 NAP302      0.0000 
     39 C7N        -2.1890   28.1090   11.9540 C.2       1 NAP302      0.0000 
     40 O7N        -2.3430   27.2400   11.1320 O.2       1 NAP302      0.0000 
     41 N7N        -2.3310   29.3960   11.6530 N.am      1 NAP302      0.0000 
     42 C4N        -1.9120   26.3940   13.7470 C.ar      1 NAP302      0.0000 
     43 C5N        -1.7530   26.0230   15.0720 C.ar      1 NAP302      0.0000 
     44 C6N        -1.5110   26.9830   16.0330 C.ar      1 NAP302      0.0000 
     45 P2B         4.3290   41.3470   13.2180 P.3       1 NAP302      0.0000 
     46 O1X         5.1240   41.5340   14.4190 O.co2     1 NAP302      0.0000 
     47 O2X         5.0330   40.5350   12.1230 O.co2     1 NAP302      0.0000 
     48 O3X         3.8260   42.6340   12.5970 O.co2     1 NAP302      0.0000 
     49 HOA2        2.6960   34.2830   11.8430 H         1 NAP302      0.0000 
     50 H51A        1.3900   35.3620   14.7800 H         1 NAP302      0.0000 
     51 H52A        2.6340   36.0140   13.7100 H         1 NAP302      0.0000 
     52 H4B         0.6040   37.4650   15.4530 H         1 NAP302      0.0000 
     53 H3B         1.1870   38.4210   12.8510 H         1 NAP302      0.0000 
     54 HO3A       -0.3780   39.4310   13.9860 H         1 NAP302      0.0000 
     55 H2B         3.4460   38.6400   13.2130 H         1 NAP302      0.0000 
     56 H1B         2.8820   39.6700   16.0780 H         1 NAP302      0.0000 
     57 H8A         5.3160   37.5630   13.9400 H         1 NAP302      0.0000 
     58 H61A        9.3640   38.7350   16.4020 H         1 NAP302      0.0000 
     59 H62A        9.6620   39.5770   17.8890 H         1 NAP302      0.0000 
     60 H2A         5.6260   41.0240   19.3380 H         1 NAP302      0.0000 
     61 H51N       -2.5500   33.0040   15.7560 H         1 NAP302      0.0000 
     62 H52N       -0.9470   33.6260   16.0410 H         1 NAP302      0.0000 
     63 H4D        -1.8470   32.0160   17.8270 H         1 NAP302      0.0000 
     64 H3D         0.8450   32.0180   16.8450 H         1 NAP302      0.0000 
     65 HO3N       -0.0590   30.3770   19.0000 H         1 NAP302      0.0000 
     66 H2D         0.5800   30.0650   15.5310 H         1 NAP302      0.0000 
     67 HO2N        2.0550   29.1690   16.8090 H         1 NAP302      0.0000 
     68 H1D        -1.3200   28.8890   17.7340 H         1 NAP302      0.0000 
     69 H2N        -1.3970   29.7210   14.1140 H         1 NAP302      0.0000 
     70 H71N       -2.5760   29.6720   10.7080 H         1 NAP302      0.0000 
     71 H72N       -2.2540   30.1740   12.2990 H         1 NAP302      0.0000 
     72 H4N        -2.0810   25.6030   13.0180 H         1 NAP302      0.0000 
     73 H5N        -1.7910   24.9760   15.3620 H         1 NAP302      0.0000 
     74 H6N        -1.3970   26.6910   17.0730 H         1 NAP302      0.0000 
     75 HOP2        4.5470   40.3910   11.2690 H         1 NAP302      0.0000 
     76 HOP3        3.2330   42.6780   11.8010 H         1 NAP302      0.0000 
@<TRIPOS>BOND
     1    1    2 ar   
     2    1    3 ar   
     3    1    4 1    
     4    1   23 1    
     5    3   49 1    
     6    4    5 1    
     7    5    6 1    
     8    5   50 1    
     9    5   51 1    
    10    6    7 1    
    11    6    8 1    
    12    6   52 1    
    13    7   12 1    
    14    8    9 1    
    15    8   10 1    
    16    8   53 1    
    17    9   54 1    
    18   10   11 1    
    19   10   12 1    
    20   10   55 1    
    21   11   45 1    
    22   12   13 1    
    23   12   56 1    
    24   13   14 1    
    25   13   22 1    
    26   14   15 2    
    27   14   57 1    
    28   15   16 1    
    29   16   17 ar   
    30   16   22 ar   
    31   17   18 1    
    32   17   19 ar   
    33   18   58 1    
    34   18   59 1    
    35   19   20 ar   
    36   20   21 ar   
    37   20   60 1    
    38   21   22 ar   
    39   23   24 1    
    40   24   25 ar   
    41   24   26 ar   
    42   24   27 1    
    43   27   28 1    
    44   28   29 1    
    45   28   61 1    
    46   28   62 1    
    47   29   30 1    
    48   29   31 1    
    49   29   63 1    
    50   30   35 1    
    51   31   32 1    
    52   31   33 1    
    53   31   64 1    
    54   32   65 1    
    55   33   66 1    
    56   33   34 1    
    57   33   35 1    
    58   34   67 1    
    59   35   36 1    
    60   35   68 1    
    61   36   37 ar   
    62   36   44 ar   
    63   37   38 ar   
    64   37   69 1    
    65   38   39 1    
    66   38   42 ar   
    67   39   40 2    
    68   39   41 am   
    69   41   70 1    
    70   41   71 1    
    71   42   43 ar   
    72   42   72 1    
    73   43   44 ar   
    74   43   73 1    
    75   44   74 1    
    76   45   46 ar   
    77   45   47 ar   
    78   45   48 ar   
    79   47   75 1    
    80   48   76 1    
@<TRIPOS>SUBSTRUCTURE
     1 NAP302      1 GROUP   
@<TRIPOS>SET
ATOM$ORANGE STATIC     ATOMS   COLORGROUP SYSTEM 
42 5 5 6 6 8 8 10 10 12 12 14 14 16 16 17 17 20 \
20 22 22 28 28 29 29 31 31 33 33 35 35 37 37 38 38 39 \
39 42 42 43 43 44 44 

