#    Name: 6dh7_1_K13
#    Modification time : Fri May 22 19:23:23 2020

@<TRIPOS>MOLECULE
6dh7_1_K13
   78    81     1     0     0
SMALL
NO_CHARGES


@<TRIPOS>ATOM
      1 N1         65.3440   51.7160   12.5970 N.pl3     1 K13103      0.0000 
      2 C2         66.2580   52.3610   13.5010 C.ar      1 K13103      0.0000 
      3 C3         67.4380   51.6010   14.0740 C.ar      1 K13103      0.0000 
      4 C4         68.3720   52.3060   15.0180 C.ar      1 K13103      0.0000 
      5 C5         68.0990   53.7500   15.3930 C.ar      1 K13103      0.0000 
      6 C6         66.9360   54.5060   14.8300 C.ar      1 K13103      0.0000 
      7 C7         66.0070   53.7890   13.8810 C.ar      1 K13103      0.0000 
      8 S8         69.1940   54.6330   16.4810 S.o2      1 K13103      0.0000 
      9 O9         68.4880   55.7780   17.1050 O.2       1 K13103      0.0000 
     10 O10        69.6690   53.7710   17.5560 O.2       1 K13103      0.0000 
     11 N11        70.4810   55.1920   15.5390 N.pl3     1 K13103      0.0000 
     12 C12        71.2180   54.1330   14.8870 C.3       1 K13103      0.0000 
     13 C13        72.6770   54.5250   14.6640 C.3       1 K13103      0.0000 
     14 C14        73.4310   54.4840   15.9940 C.3       1 K13103      0.0000 
     15 C15        73.3210   53.5750   13.6520 C.3       1 K13103      0.0000 
     16 C16        70.2040   56.4190   14.8070 C.3       1 K13103      0.0000 
     17 C17        71.1350   57.5280   15.2850 C.3       1 K13103      0.0000 
     18 C18        73.4380   52.1580   14.2090 C.3       1 K13103      0.0000 
     19 O18        71.0320   58.6020   14.3960 O.3       1 K13103      0.0000 
     20 C19        70.7600   57.9480   16.7000 C.3       1 K13103      0.0000 
     21 N20        71.7580   58.8810   17.1340 N.am      1 K13103      0.0000 
     22 C21        72.7420   58.5280   18.1080 C.2       1 K13103      0.0000 
     23 O22        72.7150   57.4680   18.6740 O.2       1 K13103      0.0000 
     24 O23        73.7060   59.5270   18.3020 O.3       1 K13103      0.0000 
     25 C24        74.5940   59.4720   19.5000 C.3       1 K13103      0.0000 
     26 C25        75.7460   59.9560   19.1830 C.3       1 K13103      0.0000 
     27 O26        75.5840   61.5690   19.2930 O.3       1 K13103      0.0000 
     28 C27        74.7120   61.7780   20.2260 C.3       1 K13103      0.0000 
     29 O28        73.5370   62.6450   19.6920 O.3       1 K13103      0.0000 
     30 C29        72.4770   61.8730   19.5910 C.3       1 K13103      0.0000 
     31 C30        72.7300   60.6210   20.5660 C.3       1 K13103      0.0000 
     32 C31        74.0650   60.4260   20.5930 C.3       1 K13103      0.0000 
     33 C32        69.4400   58.7110   16.7280 C.3       1 K13103      0.0000 
     34 C33        68.8620   58.2490   19.2710 C.ar      1 K13103      0.0000 
     35 C34        68.6500   58.7780   20.6790 C.ar      1 K13103      0.0000 
     36 C35        68.7700   60.2700   20.9590 C.ar      1 K13103      0.0000 
     37 C36        69.1150   61.2320   19.8360 C.ar      1 K13103      0.0000 
     38 C37        69.3350   60.7030   18.4300 C.ar      1 K13103      0.0000 
     39 C38        69.2210   59.2120   18.1490 C.ar      1 K13103      0.0000 
     40 HN1        65.6410   51.1720   12.0010 H         1 K13103      0.0000 
     41 HN1A       64.5010   51.8750   12.6520 H         1 K13103      0.0000 
     42 H3         67.5880   50.7140   13.8370 H         1 K13103      0.0000 
     43 H4         69.1070   51.8590   15.3730 H         1 K13103      0.0000 
     44 H6         66.7890   55.3950   15.0600 H         1 K13103      0.0000 
     45 H7         65.2760   54.2400   13.5240 H         1 K13103      0.0000 
     46 H12        70.8060   53.9420   14.0300 H         1 K13103      0.0000 
     47 H12A       71.1810   53.3380   15.4410 H         1 K13103      0.0000 
     48 H13        72.7150   55.4240   14.3060 H         1 K13103      0.0000 
     49 H14        73.1470   53.7110   16.5060 H         1 K13103      0.0000 
     50 H14A       74.3840   54.4250   15.8230 H         1 K13103      0.0000 
     51 H14B       73.2420   55.2920   16.4970 H         1 K13103      0.0000 
     52 H15        74.2070   53.9020   13.4300 H         1 K13103      0.0000 
     53 H15A       72.7800   53.5550   12.8470 H         1 K13103      0.0000 
     54 H16        70.3520   56.2650   13.8610 H         1 K13103      0.0000 
     55 H16A       69.2810   56.6780   14.9460 H         1 K13103      0.0000 
     56 H17        72.0490   57.2060   15.2870 H         1 K13103      0.0000 
     57 H18        74.0740   52.1440   14.9410 H         1 K13103      0.0000 
     58 H18A       72.5730   51.8540   14.5250 H         1 K13103      0.0000 
     59 H18B       73.7470   51.5640   13.5070 H         1 K13103      0.0000 
     60 HO18       71.6860   59.1310   14.5140 H         1 K13103      0.0000 
     61 H19        70.7260   57.1790   17.2910 H         1 K13103      0.0000 
     62 HN20       71.7650   59.6730   16.8000 H         1 K13103      0.0000 
     63 H24        74.6780   58.5670   19.8390 H         1 K13103      0.0000 
     64 H25        75.9630   59.7050   18.2720 H         1 K13103      0.0000 
     65 H25A       76.4260   59.6420   19.7990 H         1 K13103      0.0000 
     66 H27        75.1240   62.1880   21.0030 H         1 K13103      0.0000 
     67 H29        72.3750   61.5670   18.6760 H         1 K13103      0.0000 
     68 H29A       71.6870   62.3590   19.8750 H         1 K13103      0.0000 
     69 H30        72.2720   59.8340   20.2390 H         1 K13103      0.0000 
     70 H30A       72.4170   60.8380   21.4580 H         1 K13103      0.0000 
     71 H31        74.3530   60.1350   21.4730 H         1 K13103      0.0000 
     72 H32        68.7100   58.1250   16.4750 H         1 K13103      0.0000 
     73 H32A       69.4820   59.4640   16.1180 H         1 K13103      0.0000 
     74 H33        68.7930   57.3380   19.0990 H         1 K13103      0.0000 
     75 H34        68.4350   58.1920   21.3680 H         1 K13103      0.0000 
     76 H35        68.6350   60.5920   21.8210 H         1 K13103      0.0000 
     77 H36        69.1910   62.1430   20.0090 H         1 K13103      0.0000 
     78 H37        69.5480   61.2900   17.7410 H         1 K13103      0.0000 
@<TRIPOS>BOND
     1    1    2 1    
     2    2    3 ar   
     3    1   40 1    
     4    1   41 1    
     5    2    7 ar   
     6    3    4 ar   
     7    4    5 ar   
     8    3   42 1    
     9    5    6 ar   
    10    4   43 1    
    11    5    8 1    
    12    6    7 ar   
    13    8    9 2    
    14    6   44 1    
    15    7   45 1    
    16    8   10 2    
    17    8   11 1    
    18   11   12 1    
    19   11   16 1    
    20   12   13 1    
    21   12   46 1    
    22   12   47 1    
    23   13   14 1    
    24   13   15 1    
    25   13   48 1    
    26   14   49 1    
    27   14   50 1    
    28   14   51 1    
    29   15   18 1    
    30   15   52 1    
    31   15   53 1    
    32   16   17 1    
    33   16   54 1    
    34   16   55 1    
    35   17   19 1    
    36   17   20 1    
    37   17   56 1    
    38   19   60 1    
    39   18   57 1    
    40   18   58 1    
    41   18   59 1    
    42   20   21 1    
    43   20   33 1    
    44   20   61 1    
    45   21   22 am   
    46   22   23 2    
    47   21   62 1    
    48   22   24 1    
    49   24   25 1    
    50   25   26 1    
    51   25   32 1    
    52   25   63 1    
    53   26   64 1    
    54   26   65 1    
    55   26   27 1    
    56   27   28 1    
    57   28   29 1    
    58   28   32 1    
    59   28   66 1    
    60   29   30 1    
    61   30   31 1    
    62   30   67 1    
    63   30   68 1    
    64   31   32 1    
    65   31   69 1    
    66   31   70 1    
    67   32   71 1    
    68   33   39 1    
    69   33   72 1    
    70   33   73 1    
    71   34   35 ar   
    72   34   39 ar   
    73   35   36 ar   
    74   34   74 1    
    75   36   37 ar   
    76   35   75 1    
    77   37   38 ar   
    78   36   76 1    
    79   38   39 ar   
    80   37   77 1    
    81   38   78 1    
@<TRIPOS>SUBSTRUCTURE
     1 K13103      1 GROUP   
@<TRIPOS>SET

