#    Name: 6k3l_1_3NG
#    Modification time : Fri May 22 19:27:47 2020

@<TRIPOS>MOLECULE
6k3l_1_3NG
   25    28     1     0     0
SMALL
NO_CHARGES


@<TRIPOS>ATOM
      1 C1         12.2540    6.0040  -14.0700 C.ar      1 3NG401      0.0000 
      2 C2         13.2460    5.0930  -13.7200 C.ar      1 3NG401      0.0000 
      3 C3         14.2550    4.7910  -14.6980 C.ar      1 3NG401      0.0000 
      4 C4         14.2440    5.3810  -15.9560 C.ar      1 3NG401      0.0000 
      5 C5         13.2780    6.2690  -16.2610 C.ar      1 3NG401      0.0000 
      6 C6         12.2560    6.6200  -15.2890 C.ar      1 3NG401      0.0000 
      7 C7         12.1660    4.8890  -11.5130 C.ar      1 3NG401      0.0000 
      8 C8         13.2150    4.4930  -12.3990 C.ar      1 3NG401      0.0000 
      9 N9         11.2780    6.3600  -13.1840 N.ar      1 3NG401      0.0000 
     10 C10        11.2220    5.8370  -11.9360 C.ar      1 3NG401      0.0000 
     11 C11        13.0660    3.3790   -9.8530 C.ar      1 3NG401      0.0000 
     12 N12        14.0810    3.0500  -10.7170 N.ar      1 3NG401      0.0000 
     13 C13        14.1490    3.5870  -11.9470 C.ar      1 3NG401      0.0000 
     14 C14        12.1210    4.2880  -10.2200 C.ar      1 3NG401      0.0000 
     15 N15        10.1200    6.2680  -11.0630 N.pl3     1 3NG401      0.0000 
     16 C16         9.1100    7.2880  -11.3570 C.ar      1 3NG401      0.0000 
     17 C17         8.6070    7.4010  -12.5910 C.ar      1 3NG401      0.0000 
     18 C18         7.5890    8.3680  -12.9090 C.ar      1 3NG401      0.0000 
     19 C19         7.0720    9.1920  -11.9050 C.ar      1 3NG401      0.0000 
     20 C20         7.5790    9.0630  -10.6310 C.ar      1 3NG401      0.0000 
     21 C21         8.6100    8.0910  -10.3380 C.ar      1 3NG401      0.0000 
     22 CL22        7.0290    8.4050  -14.5850 Cl        1 3NG401      0.0000 
     23 C23        13.3350    6.9060  -17.6120 C.2       1 3NG401      0.0000 
     24 O24        14.4490    6.6480  -18.2970 O.co2     1 3NG401      0.0000 
     25 O25        12.4330    7.6050  -18.0250 O.co2     1 3NG401      0.0000 
@<TRIPOS>BOND
     1    1    2 ar   
     2    1    6 ar   
     3    1    9 ar   
     4    2    3 ar   
     5    2    8 ar   
     6    3    4 ar   
     7    4    5 ar   
     8    5    6 ar   
     9    5   23 1    
    10    7    8 ar   
    11    7   10 ar   
    12    7   14 ar   
    13    8   13 ar   
    14    9   10 ar   
    15   10   15 1    
    16   11   12 ar   
    17   11   14 ar   
    18   12   13 ar   
    19   15   16 1    
    20   16   17 ar   
    21   16   21 ar   
    22   17   18 ar   
    23   18   19 ar   
    24   18   22 1    
    25   19   20 ar   
    26   20   21 ar   
    27   23   24 ar   
    28   23   25 ar   
@<TRIPOS>SUBSTRUCTURE
     1 3NG401      1 GROUP   
@<TRIPOS>SET

