#    Name: 6v3t_3_ACO
#    Modification time : Fri May 22 19:28:51 2020

@<TRIPOS>MOLECULE
6v3t_3_ACO
   51    53     1     0     1
SMALL
NO_CHARGES


@<TRIPOS>ATOM
      1 N1A       128.1520   13.4390  236.0300 N.ar      1 ACO301      0.0000 
      2 C2A       128.6530   12.1810  236.0670 C.ar      1 ACO301      0.0000 
      3 N3A       127.8580   11.0930  236.1750 N.ar      1 ACO301      0.0000 
      4 C4A       126.4960   11.2130  236.2570 C.ar      1 ACO301      0.0000 
      5 C5A       125.8990   12.5430  236.2310 C.ar      1 ACO301      0.0000 
      6 C6A       126.8160   13.6760  236.1130 C.ar      1 ACO301      0.0000 
      7 N6A       126.2990   14.9170  236.0850 N.pl3     1 ACO301      0.0000 
      8 N7A       124.5760   12.3970  236.3270 N.2       1 ACO301      0.0000 
      9 C8A       124.3230   11.0640  236.4110 C.2       1 ACO301      0.0000 
     10 N9A       125.4720   10.3680  236.3930 N.pl3     1 ACO301      0.0000 
     11 C1B       125.6040    8.9060  236.4220 C.3       1 ACO301      0.0000 
     12 C2B       125.5610    8.2370  237.7760 C.3       1 ACO301      0.0000 
     13 O2B       126.8760    8.0440  238.3000 O.3       1 ACO301      0.0000 
     14 C3B       124.9010    6.9130  237.4390 C.3       1 ACO301      0.0000 
     15 O3B       125.8350    5.9430  236.9850 O.3       1 ACO301      0.0000 
     16 P3B       126.5790    4.8450  237.8790 P.3       1 ACO301      0.0000 
     17 O7A       127.8850    5.5480  238.1730 O.co2     1 ACO301      0.0000 
     18 O8A       125.6430    4.6630  239.0470 O.co2     1 ACO301      0.0000 
     19 O9A       126.6700    3.6490  236.9520 O.co2     1 ACO301      0.0000 
     20 C4B       124.0490    7.2020  236.2180 C.3       1 ACO301      0.0000 
     21 O4B       124.4980    8.4310  235.6880 O.3       1 ACO301      0.0000 
     22 C5B       122.5860    7.3520  236.5090 C.3       1 ACO301      0.0000 
     23 O5B       122.3650    8.6260  237.0750 O.3       1 ACO301      0.0000 
     24 P1A       120.8600    8.8920  237.5530 P.3       1 ACO301      0.0000 
     25 O1A       120.2470    7.5450  237.9130 O.co2     1 ACO301      0.0000 
     26 O2A       120.7580   10.0480  238.5040 O.co2     1 ACO301      0.0000 
     27 O3A       120.2690    9.4630  236.1750 O.3       1 ACO301      0.0000 
     28 P2A       119.5990   10.9110  236.0100 P.3       1 ACO301      0.0000 
     29 O4A       118.4010   10.8410  236.9240 O.co2     1 ACO301      0.0000 
     30 O5A       120.6670   11.9600  236.2810 O.co2     1 ACO301      0.0000 
     31 O6A       119.3370   10.8960  234.3670 O.3       1 ACO301      0.0000 
     32 CBP       119.4560   12.1630  232.0920 C.3       1 ACO301      0.0000 
     33 CCP       118.8750   12.0120  233.5300 C.3       1 ACO301      0.0000 
     34 CDP       120.0110   10.8210  231.6190 C.3       1 ACO301      0.0000 
     35 CEP       120.5710   13.2000  232.1880 C.3       1 ACO301      0.0000 
     36 CAP       118.3900   12.7510  231.0680 C.3       1 ACO301      0.0000 
     37 OAP       118.0440   14.0680  231.5220 O.3       1 ACO301      0.0000 
     38 C9P       118.7060   12.8060  229.5070 C.2       1 ACO301      0.0000 
     39 O9P       119.0430   13.8550  228.9310 O.2       1 ACO301      0.0000 
     40 N8P       118.5770   11.6360  228.7890 N.am      1 ACO301      0.0000 
     41 C7P       118.9300   11.4070  227.3780 C.3       1 ACO301      0.0000 
     42 C6P       119.4090    9.9620  227.0640 C.3       1 ACO301      0.0000 
     43 C5P       118.7750    9.2890  225.8540 C.2       1 ACO301      0.0000 
     44 O5P       117.9050    8.4510  226.0000 O.2       1 ACO301      0.0000 
     45 N4P       119.2180    9.6630  224.6430 N.am      1 ACO301      0.0000 
     46 C3P       118.7260    9.1290  223.3410 C.3       1 ACO301      0.0000 
     47 C2P       117.7440   10.0190  222.5380 C.3       1 ACO301      0.0000 
     48 S1P       118.4420   10.8390  221.1160 S.3       1 ACO301      0.0000 
     49 C         117.2210   11.8830  220.5670 C.2       1 ACO301      0.0000 
     50 O         116.0480   11.5910  220.7370 O.2       1 ACO301      0.0000 
     51 CH3       117.5490   13.1660  219.8550 C.3       1 ACO301      0.0000 
@<TRIPOS>BOND
     1    1    2 ar   
     2    1    6 ar   
     3    2    3 ar   
     4    3    4 ar   
     5    4    5 ar   
     6    4   10 1    
     7    5    6 ar   
     8    5    8 1    
     9    6    7 1    
    10    8    9 2    
    11    9   10 1    
    12   10   11 1    
    13   11   12 1    
    14   11   21 1    
    15   12   13 1    
    16   12   14 1    
    17   14   15 1    
    18   14   20 1    
    19   15   16 1    
    20   16   17 ar   
    21   16   18 ar   
    22   16   19 ar   
    23   20   21 1    
    24   20   22 1    
    25   22   23 1    
    26   23   24 1    
    27   24   25 ar   
    28   24   26 ar   
    29   24   27 1    
    30   27   28 1    
    31   28   29 ar   
    32   28   30 ar   
    33   28   31 1    
    34   31   33 1    
    35   32   33 1    
    36   32   34 1    
    37   32   35 1    
    38   32   36 1    
    39   36   37 1    
    40   36   38 1    
    41   38   39 2    
    42   38   40 am   
    43   40   41 1    
    44   41   42 1    
    45   42   43 1    
    46   43   44 2    
    47   43   45 am   
    48   45   46 1    
    49   46   47 1    
    50   47   48 1    
    51   48   49 1    
    52   49   50 2    
    53   49   51 1    
@<TRIPOS>SUBSTRUCTURE
     1 ACO301      1 GROUP   
@<TRIPOS>SET
ATOM$ORANGE STATIC     ATOMS   COLORGROUP SYSTEM 
46 2 2 4 4 5 5 6 6 9 9 11 11 12 12 14 14 20 \
20 22 22 32 32 33 33 34 34 35 35 36 36 38 38 41 41 42 \
42 43 43 46 46 47 47 49 49 51 51 

