#    Name: 6v3t_6_ACO
#    Modification time : Fri May 22 19:29:06 2020

@<TRIPOS>MOLECULE
6v3t_6_ACO
   51    53     1     0     1
SMALL
NO_CHARGES


@<TRIPOS>ATOM
      1 N1A       138.8370   -5.2530  239.5950 N.ar      1 ACO301      0.0000 
      2 C2A       138.0390   -4.1820  239.5510 C.ar      1 ACO301      0.0000 
      3 N3A       136.7010   -4.2620  239.4480 N.ar      1 ACO301      0.0000 
      4 C4A       136.0940   -5.4490  239.3870 C.ar      1 ACO301      0.0000 
      5 C5A       136.8960   -6.6560  239.4250 C.ar      1 ACO301      0.0000 
      6 C6A       138.3410   -6.4820  239.5290 C.ar      1 ACO301      0.0000 
      7 N6A       139.1510   -7.5420  239.5620 N.pl3     1 ACO301      0.0000 
      8 N7A       136.0510   -7.6850  239.3480 N.2       1 ACO301      0.0000 
      9 C8A       134.8000   -7.1760  239.2690 C.2       1 ACO301      0.0000 
     10 N9A       134.8500   -5.8410  239.2820 N.pl3     1 ACO301      0.0000 
     11 C1B       133.6950   -4.9550  239.2440 C.3       1 ACO301      0.0000 
     12 C2B       133.1900   -4.6970  237.8520 C.3       1 ACO301      0.0000 
     13 O2B       133.8040   -3.5510  237.3020 O.3       1 ACO301      0.0000 
     14 C3B       131.7390   -4.4550  238.1450 C.3       1 ACO301      0.0000 
     15 O3B       131.5880   -3.1340  238.6290 O.3       1 ACO301      0.0000 
     16 P3B       130.8750   -2.0350  237.7180 P.3       1 ACO301      0.0000 
     17 O7A       129.4310   -2.3760  238.0250 O.co2     1 ACO301      0.0000 
     18 O8A       131.3110   -0.7040  238.2820 O.co2     1 ACO301      0.0000 
     19 O9A       131.4590   -2.3770  236.3580 O.co2     1 ACO301      0.0000 
     20 C4B       131.4170   -5.3800  239.2940 C.3       1 ACO301      0.0000 
     21 O4B       132.6450   -5.6190  239.9370 O.3       1 ACO301      0.0000 
     22 C5B       130.7970   -6.6780  238.8450 C.3       1 ACO301      0.0000 
     23 O5B       131.7820   -7.6420  238.5670 O.3       1 ACO301      0.0000 
     24 P1A       131.2470   -9.0630  238.1410 P.3       1 ACO301      0.0000 
     25 O1A       129.8110   -8.8640  237.7050 O.co2     1 ACO301      0.0000 
     26 O2A       132.2380   -9.8070  237.3020 O.co2     1 ACO301      0.0000 
     27 O3A       131.3860   -9.7450  239.5730 O.3       1 ACO301      0.0000 
     28 P2A       132.3210  -11.0220  239.7400 P.3       1 ACO301      0.0000 
     29 O4A       131.7110  -12.1510  238.9350 O.co2     1 ACO301      0.0000 
     30 O5A       133.7310  -10.5950  239.4440 O.co2     1 ACO301      0.0000 
     31 O6A       132.2110  -11.2300  241.3690 O.3       1 ACO301      0.0000 
     32 CBP       133.4190  -11.9500  243.4930 C.3       1 ACO301      0.0000 
     33 CCP       132.9010  -12.2910  242.0740 C.3       1 ACO301      0.0000 
     34 CDP       132.5810  -10.7940  244.0630 C.3       1 ACO301      0.0000 
     35 CEP       134.8790  -11.5080  243.3890 C.3       1 ACO301      0.0000 
     36 CAP       133.3430  -13.2290  244.4300 C.3       1 ACO301      0.0000 
     37 OAP       134.0530  -14.2940  243.8200 O.3       1 ACO301      0.0000 
     38 C9P       133.9130  -13.1230  245.8680 C.2       1 ACO301      0.0000 
     39 O9P       135.1180  -12.8950  245.9900 O.2       1 ACO301      0.0000 
     40 N8P       132.9670  -13.1150  246.8610 N.am      1 ACO301      0.0000 
     41 C7P       132.8200  -12.0080  247.8110 C.3       1 ACO301      0.0000 
     42 C6P       131.2820  -11.7990  248.0440 C.3       1 ACO301      0.0000 
     43 C5P       130.7960  -10.9910  249.2380 C.2       1 ACO301      0.0000 
     44 O5P       131.3140   -9.9400  249.5470 O.2       1 ACO301      0.0000 
     45 N4P       129.8190  -11.5300  249.9590 N.am      1 ACO301      0.0000 
     46 C3P       129.6020  -11.0710  251.3200 C.3       1 ACO301      0.0000 
     47 C2P       129.8980  -12.1640  252.3860 C.3       1 ACO301      0.0000 
     48 S1P       130.9140  -11.7030  253.7860 S.3       1 ACO301      0.0000 
     49 C         131.2710  -13.2050  254.5010 C.2       1 ACO301      0.0000 
     50 O         130.3870  -14.0340  254.6870 O.2       1 ACO301      0.0000 
     51 CH3       132.6670  -13.5600  254.9340 C.3       1 ACO301      0.0000 
@<TRIPOS>BOND
     1    1    2 ar   
     2    1    6 ar   
     3    2    3 ar   
     4    3    4 ar   
     5    4    5 ar   
     6    4   10 1    
     7    5    6 ar   
     8    5    8 1    
     9    6    7 1    
    10    8    9 2    
    11    9   10 1    
    12   10   11 1    
    13   11   12 1    
    14   11   21 1    
    15   12   13 1    
    16   12   14 1    
    17   14   15 1    
    18   14   20 1    
    19   15   16 1    
    20   16   17 ar   
    21   16   18 ar   
    22   16   19 ar   
    23   20   21 1    
    24   20   22 1    
    25   22   23 1    
    26   23   24 1    
    27   24   25 ar   
    28   24   26 ar   
    29   24   27 1    
    30   27   28 1    
    31   28   29 ar   
    32   28   30 ar   
    33   28   31 1    
    34   31   33 1    
    35   32   33 1    
    36   32   34 1    
    37   32   35 1    
    38   32   36 1    
    39   36   37 1    
    40   36   38 1    
    41   38   39 2    
    42   38   40 am   
    43   40   41 1    
    44   41   42 1    
    45   42   43 1    
    46   43   44 2    
    47   43   45 am   
    48   45   46 1    
    49   46   47 1    
    50   47   48 1    
    51   48   49 1    
    52   49   50 2    
    53   49   51 1    
@<TRIPOS>SUBSTRUCTURE
     1 ACO301      1 GROUP   
@<TRIPOS>SET
ATOM$ORANGE STATIC     ATOMS   COLORGROUP SYSTEM 
46 2 2 4 4 5 5 6 6 9 9 11 11 12 12 14 14 20 \
20 22 22 32 32 33 33 34 34 35 35 36 36 38 38 41 41 42 \
42 43 43 46 46 47 47 49 49 51 51 

