#    Name: 6v3t_5_ACO
#    Modification time : Fri May 22 19:29:01 2020

@<TRIPOS>MOLECULE
6v3t_5_ACO
   51    53     1     0     1
SMALL
NO_CHARGES


@<TRIPOS>ATOM
      1 N1A        51.1630   13.0640  239.5960 N.ar      1 ACO301      0.0000 
      2 C2A        51.9640   11.9880  239.5190 C.ar      1 ACO301      0.0000 
      3 N3A        53.3020   12.0770  239.4050 N.ar      1 ACO301      0.0000 
      4 C4A        53.9230   13.2760  239.3550 C.ar      1 ACO301      0.0000 
      5 C5A        53.1070   14.4810  239.4280 C.ar      1 ACO301      0.0000 
      6 C6A        51.6680   14.3040  239.5510 C.ar      1 ACO301      0.0000 
      7 N6A        50.8780   15.3740  239.6200 N.pl3     1 ACO301      0.0000 
      8 N7A        53.9340   15.5170  239.3570 N.2       1 ACO301      0.0000 
      9 C8A        55.1970   15.0250  239.2380 C.2       1 ACO301      0.0000 
     10 N9A        55.1780   13.6840  239.2190 N.pl3     1 ACO301      0.0000 
     11 C1B        56.3740   12.8430  239.1560 C.3       1 ACO301      0.0000 
     12 C2B        56.9150   12.5220  237.7900 C.3       1 ACO301      0.0000 
     13 O2B        56.4450   11.2650  237.3150 O.3       1 ACO301      0.0000 
     14 C3B        58.3900   12.4500  238.1010 C.3       1 ACO301      0.0000 
     15 O3B        58.6800   11.2030  238.7030 O.3       1 ACO301      0.0000 
     16 P3B        59.2370   10.0110  237.8010 P.3       1 ACO301      0.0000 
     17 O7A        60.7040   10.3020  237.9650 O.co2     1 ACO301      0.0000 
     18 O8A        58.7670    8.7320  238.4640 O.co2     1 ACO301      0.0000 
     19 O9A        58.6280   10.3200  236.4450 O.co2     1 ACO301      0.0000 
     20 C4B        58.6270   13.4830  239.1690 C.3       1 ACO301      0.0000 
     21 O4B        57.3700   13.6340  239.7910 O.3       1 ACO301      0.0000 
     22 C5B        59.1720   14.7840  238.6200 C.3       1 ACO301      0.0000 
     23 O5B        58.2610   15.8540  238.7940 O.3       1 ACO301      0.0000 
     24 P1A        58.7000   17.2700  238.2410 P.3       1 ACO301      0.0000 
     25 O1A        60.0910   17.1250  237.7180 O.co2     1 ACO301      0.0000 
     26 O2A        57.6090   17.7090  237.3170 O.co2     1 ACO301      0.0000 
     27 O3A        58.6680   18.1350  239.6200 O.3       1 ACO301      0.0000 
     28 P2A        57.5090   19.2120  239.7630 P.3       1 ACO301      0.0000 
     29 O4A        57.8500   20.1840  238.6620 O.co2     1 ACO301      0.0000 
     30 O5A        56.2420   18.3960  239.7440 O.co2     1 ACO301      0.0000 
     31 O6A        57.5090   19.9760  241.2220 O.3       1 ACO301      0.0000 
     32 CBP        56.6780   19.5980  243.6110 C.3       1 ACO301      0.0000 
     33 CCP        57.8170   19.5020  242.5560 C.3       1 ACO301      0.0000 
     34 CDP        56.7040   18.3000  244.3780 C.3       1 ACO301      0.0000 
     35 CEP        55.3310   19.6420  242.9170 C.3       1 ACO301      0.0000 
     36 CAP        56.7590   20.7940  244.6170 C.3       1 ACO301      0.0000 
     37 OAP        56.0790   21.9020  243.9830 O.3       1 ACO301      0.0000 
     38 C9P        56.1110   20.5710  246.0450 C.2       1 ACO301      0.0000 
     39 O9P        55.0900   21.1570  246.3240 O.2       1 ACO301      0.0000 
     40 N8P        56.5720   19.9740  247.1730 N.am      1 ACO301      0.0000 
     41 C7P        57.9500   20.0060  247.7370 C.3       1 ACO301      0.0000 
     42 C6P        58.3840   18.7890  248.6380 C.3       1 ACO301      0.0000 
     43 C5P        59.4030   19.0920  249.7450 C.2       1 ACO301      0.0000 
     44 O5P        60.5850   19.3630  249.5400 O.2       1 ACO301      0.0000 
     45 N4P        58.8930   19.1730  250.9660 N.am      1 ACO301      0.0000 
     46 C3P        59.5930   19.9560  252.0110 C.3       1 ACO301      0.0000 
     47 C2P        59.4890   19.6160  253.5210 C.3       1 ACO301      0.0000 
     48 S1P        57.9720   20.1020  254.3550 S.3       1 ACO301      0.0000 
     49 C          58.0190   21.7060  254.8480 C.2       1 ACO301      0.0000 
     50 O          59.0780   22.2480  255.1010 O.2       1 ACO301      0.0000 
     51 CH3        56.7250   22.4600  255.0210 C.3       1 ACO301      0.0000 
@<TRIPOS>BOND
     1    1    2 ar   
     2    1    6 ar   
     3    2    3 ar   
     4    3    4 ar   
     5    4    5 ar   
     6    4   10 1    
     7    5    6 ar   
     8    5    8 1    
     9    6    7 1    
    10    8    9 2    
    11    9   10 1    
    12   10   11 1    
    13   11   12 1    
    14   11   21 1    
    15   12   13 1    
    16   12   14 1    
    17   14   15 1    
    18   14   20 1    
    19   15   16 1    
    20   16   17 ar   
    21   16   18 ar   
    22   16   19 ar   
    23   20   21 1    
    24   20   22 1    
    25   22   23 1    
    26   23   24 1    
    27   24   25 ar   
    28   24   26 ar   
    29   24   27 1    
    30   27   28 1    
    31   28   29 ar   
    32   28   30 ar   
    33   28   31 1    
    34   31   33 1    
    35   32   33 1    
    36   32   34 1    
    37   32   35 1    
    38   32   36 1    
    39   36   37 1    
    40   36   38 1    
    41   38   39 2    
    42   38   40 am   
    43   40   41 1    
    44   41   42 1    
    45   42   43 1    
    46   43   44 2    
    47   43   45 am   
    48   45   46 1    
    49   46   47 1    
    50   47   48 1    
    51   48   49 1    
    52   49   50 2    
    53   49   51 1    
@<TRIPOS>SUBSTRUCTURE
     1 ACO301      1 GROUP   
@<TRIPOS>SET
ATOM$ORANGE STATIC     ATOMS   COLORGROUP SYSTEM 
46 2 2 4 4 5 5 6 6 9 9 11 11 12 12 14 14 20 \
20 22 22 32 32 33 33 34 34 35 35 36 36 38 38 41 41 42 \
42 43 43 46 46 47 47 49 49 51 51 

