#    Name: 6v3t_1_ACO
#    Modification time : Fri May 22 19:28:42 2020

@<TRIPOS>MOLECULE
6v3t_1_ACO
   51    53     1     0     1
SMALL
NO_CHARGES


@<TRIPOS>ATOM
      1 N1A        62.1280   -5.7740  236.0140 N.ar      1 ACO301      0.0000 
      2 C2A        61.5510   -4.5650  236.0110 C.ar      1 ACO301      0.0000 
      3 N3A        62.2510   -3.4220  236.1090 N.ar      1 ACO301      0.0000 
      4 C4A        63.5880   -3.4390  236.2170 C.ar      1 ACO301      0.0000 
      5 C5A        64.2710   -4.7170  236.2320 C.ar      1 ACO301      0.0000 
      6 C6A        63.4490   -5.9150  236.1250 C.ar      1 ACO301      0.0000 
      7 N6A        64.0250   -7.1210  236.1350 N.pl3     1 ACO301      0.0000 
      8 N7A        65.5720   -4.4640  236.3480 N.2       1 ACO301      0.0000 
      9 C8A        65.7170   -3.1240  236.4110 C.2       1 ACO301      0.0000 
     10 N9A        64.5270   -2.5290  236.3480 N.pl3     1 ACO301      0.0000 
     11 C1B        64.3410   -1.0850  236.3540 C.3       1 ACO301      0.0000 
     12 C2B        64.3470   -0.4750  237.7270 C.3       1 ACO301      0.0000 
     13 O2B        63.0390   -0.3720  238.2500 O.3       1 ACO301      0.0000 
     14 C3B        64.9390    0.8780  237.4250 C.3       1 ACO301      0.0000 
     15 O3B        63.9330    1.7210  236.9160 O.3       1 ACO301      0.0000 
     16 P3B        63.3200    2.8300  237.8840 P.3       1 ACO301      0.0000 
     17 O7A        61.8950    3.0020  237.3990 O.co2     1 ACO301      0.0000 
     18 O8A        63.4370    2.1080  239.2160 O.co2     1 ACO301      0.0000 
     19 O9A        64.2550    4.0020  237.5960 O.co2     1 ACO301      0.0000 
     20 C4B        65.8970    0.6560  236.2900 C.3       1 ACO301      0.0000 
     21 O4B        65.4910   -0.5530  235.7050 O.3       1 ACO301      0.0000 
     22 C5B        67.3170    0.5420  236.7410 C.3       1 ACO301      0.0000 
     23 O5B        67.6130   -0.7490  237.2280 O.3       1 ACO301      0.0000 
     24 P1A        69.1540   -1.0360  237.4720 P.3       1 ACO301      0.0000 
     25 O1A        69.8360    0.2720  237.7900 O.co2     1 ACO301      0.0000 
     26 O2A        69.3910   -2.2080  238.3660 O.co2     1 ACO301      0.0000 
     27 O3A        69.5420   -1.5590  236.0110 O.3       1 ACO301      0.0000 
     28 P2A        70.3420   -2.9420  235.8810 P.3       1 ACO301      0.0000 
     29 O4A        71.5340   -2.8420  236.8180 O.co2     1 ACO301      0.0000 
     30 O5A        69.3770   -4.0780  236.1050 O.co2     1 ACO301      0.0000 
     31 O6A        70.6320   -2.8780  234.2580 O.3       1 ACO301      0.0000 
     32 CBP        70.5040   -4.1620  232.0780 C.3       1 ACO301      0.0000 
     33 CCP        71.1200   -3.9980  233.4760 C.3       1 ACO301      0.0000 
     34 CDP        70.0860   -2.7920  231.5690 C.3       1 ACO301      0.0000 
     35 CEP        69.3170   -5.0870  232.2570 C.3       1 ACO301      0.0000 
     36 CAP        71.4700   -4.8470  231.0430 C.3       1 ACO301      0.0000 
     37 OAP        71.5770   -6.2400  231.3630 O.3       1 ACO301      0.0000 
     38 C9P        71.1240   -4.7640  229.5110 C.2       1 ACO301      0.0000 
     39 O9P        70.5180   -5.6780  228.9490 O.2       1 ACO301      0.0000 
     40 N8P        71.5280   -3.6630  228.8000 N.am      1 ACO301      0.0000 
     41 C7P        71.2240   -3.4110  227.3880 C.3       1 ACO301      0.0000 
     42 C6P        70.6440   -2.0140  227.0780 C.3       1 ACO301      0.0000 
     43 C5P        71.2570   -1.3100  225.8800 C.2       1 ACO301      0.0000 
     44 O5P        71.8430   -0.2570  226.0010 O.2       1 ACO301      0.0000 
     45 N4P        71.0880   -1.8780  224.6870 N.am      1 ACO301      0.0000 
     46 C3P        71.4650   -1.2400  223.4070 C.3       1 ACO301      0.0000 
     47 C2P        72.4840   -1.9780  222.5140 C.3       1 ACO301      0.0000 
     48 S1P        71.7660   -2.7500  221.0790 S.3       1 ACO301      0.0000 
     49 C          72.8120   -4.0350  220.7240 C.2       1 ACO301      0.0000 
     50 O          74.0190   -3.9230  220.8820 O.2       1 ACO301      0.0000 
     51 CH3        72.2900   -5.3380  220.1930 C.3       1 ACO301      0.0000 
@<TRIPOS>BOND
     1    1    2 ar   
     2    1    6 ar   
     3    2    3 ar   
     4    3    4 ar   
     5    4    5 ar   
     6    4   10 1    
     7    5    6 ar   
     8    5    8 1    
     9    6    7 1    
    10    8    9 2    
    11    9   10 1    
    12   10   11 1    
    13   11   12 1    
    14   11   21 1    
    15   12   13 1    
    16   12   14 1    
    17   14   15 1    
    18   14   20 1    
    19   15   16 1    
    20   16   17 ar   
    21   16   18 ar   
    22   16   19 ar   
    23   20   21 1    
    24   20   22 1    
    25   22   23 1    
    26   23   24 1    
    27   24   25 ar   
    28   24   26 ar   
    29   24   27 1    
    30   27   28 1    
    31   28   29 ar   
    32   28   30 ar   
    33   28   31 1    
    34   31   33 1    
    35   32   33 1    
    36   32   34 1    
    37   32   35 1    
    38   32   36 1    
    39   36   37 1    
    40   36   38 1    
    41   38   39 2    
    42   38   40 am   
    43   40   41 1    
    44   41   42 1    
    45   42   43 1    
    46   43   44 2    
    47   43   45 am   
    48   45   46 1    
    49   46   47 1    
    50   47   48 1    
    51   48   49 1    
    52   49   50 2    
    53   49   51 1    
@<TRIPOS>SUBSTRUCTURE
     1 ACO301      1 GROUP   
@<TRIPOS>SET
ATOM$ORANGE STATIC     ATOMS   COLORGROUP SYSTEM 
46 2 2 4 4 5 5 6 6 9 9 11 11 12 12 14 14 20 \
20 22 22 32 32 33 33 34 34 35 35 36 36 38 38 41 41 42 \
42 43 43 46 46 47 47 49 49 51 51 

