#    Name: 6v3t_2_ACO
#    Modification time : Fri May 22 19:28:45 2020

@<TRIPOS>MOLECULE
6v3t_2_ACO
   51    53     1     0     1
SMALL
NO_CHARGES


@<TRIPOS>ATOM
      1 N1A        87.1080   37.3730  180.1270 N.ar      1 ACO301      0.0000 
      2 C2A        85.7740   37.1980  180.1220 C.ar      1 ACO301      0.0000 
      3 N3A        85.2010   35.9750  180.0500 N.ar      1 ACO301      0.0000 
      4 C4A        85.9550   34.8580  179.9760 C.ar      1 ACO301      0.0000 
      5 C5A        87.4050   34.9710  179.9670 C.ar      1 ACO301      0.0000 
      6 C6A        87.9500   36.3260  180.0490 C.ar      1 ACO301      0.0000 
      7 N6A        89.2830   36.4770  180.0460 N.pl3     1 ACO301      0.0000 
      8 N7A        87.9200   33.7290  179.8860 N.2       1 ACO301      0.0000 
      9 C8A        86.8650   32.8810  179.8450 C.2       1 ACO301      0.0000 
     10 N9A        85.7020   33.5690  179.8870 N.pl3     1 ACO301      0.0000 
     11 C1B        84.3430   33.0080  179.8920 C.3       1 ACO301      0.0000 
     12 C2B        83.7740   32.7400  178.5220 C.3       1 ACO301      0.0000 
     13 O2B        83.0550   33.8770  178.0400 O.3       1 ACO301      0.0000 
     14 C3B        82.8700   31.5650  178.8060 C.3       1 ACO301      0.0000 
     15 O3B        81.6010   32.0580  179.2050 O.3       1 ACO301      0.0000 
     16 P3B        80.3160   31.9440  178.2520 P.3       1 ACO301      0.0000 
     17 O7A        80.9610   32.1490  176.8920 O.co2     1 ACO301      0.0000 
     18 O8A        79.7870   30.5520  178.5810 O.co2     1 ACO301      0.0000 
     19 O9A        79.4110   33.0880  178.7030 O.co2     1 ACO301      0.0000 
     20 C4B        83.4810   30.8590  179.9900 C.3       1 ACO301      0.0000 
     21 O4B        84.3810   31.7620  180.5770 O.3       1 ACO301      0.0000 
     22 C5B        84.2720   29.6530  179.5920 C.3       1 ACO301      0.0000 
     23 O5B        85.4340   30.0070  178.8520 O.3       1 ACO301      0.0000 
     24 P1A        86.4080   28.7420  178.6300 P.3       1 ACO301      0.0000 
     25 O1A        85.5070   27.5220  178.4460 O.co2     1 ACO301      0.0000 
     26 O2A        87.5580   28.9450  177.6850 O.co2     1 ACO301      0.0000 
     27 O3A        87.1090   28.7720  180.0670 O.3       1 ACO301      0.0000 
     28 P2A        88.6980   28.8020  180.2180 P.3       1 ACO301      0.0000 
     29 O4A        89.2460   27.5440  179.5770 O.co2     1 ACO301      0.0000 
     30 O5A        89.2310   30.1080  179.6750 O.co2     1 ACO301      0.0000 
     31 O6A        88.7320   28.8680  181.8770 O.3       1 ACO301      0.0000 
     32 CBP        89.8960   29.2350  184.1240 C.3       1 ACO301      0.0000 
     33 CCP        89.8390   28.4960  182.7650 C.3       1 ACO301      0.0000 
     34 CDP        88.4970   29.1790  184.7320 C.3       1 ACO301      0.0000 
     35 CEP        90.2670   30.6970  183.8920 C.3       1 ACO301      0.0000 
     36 CAP        90.9730   28.5670  185.0770 C.3       1 ACO301      0.0000 
     37 OAP        92.2960   28.7320  184.5460 O.3       1 ACO301      0.0000 
     38 C9P        90.9500   28.9790  186.5990 C.2       1 ACO301      0.0000 
     39 O9P        91.4240   30.0320  187.0190 O.2       1 ACO301      0.0000 
     40 N8P        90.2990   28.1240  187.4410 N.am      1 ACO301      0.0000 
     41 C7P        89.7920   28.4240  188.7750 C.3       1 ACO301      0.0000 
     42 C6P        88.2550   28.2830  188.7810 C.3       1 ACO301      0.0000 
     43 C5P        87.6020   27.4780  189.8970 C.2       1 ACO301      0.0000 
     44 O5P        86.7600   28.0160  190.5830 O.2       1 ACO301      0.0000 
     45 N4P        87.9530   26.2140  190.0990 N.am      1 ACO301      0.0000 
     46 C3P        87.5030   25.5030  191.2870 C.3       1 ACO301      0.0000 
     47 C2P        88.5080   25.7810  192.4410 C.3       1 ACO301      0.0000 
     48 S1P        87.8830   26.3950  194.0050 S.3       1 ACO301      0.0000 
     49 C          89.2590   26.2410  194.9920 C.2       1 ACO301      0.0000 
     50 O          89.6010   25.1240  195.3720 O.2       1 ACO301      0.0000 
     51 CH3        90.0750   27.4410  195.4060 C.3       1 ACO301      0.0000 
@<TRIPOS>BOND
     1    1    2 ar   
     2    1    6 ar   
     3    2    3 ar   
     4    3    4 ar   
     5    4    5 ar   
     6    4   10 1    
     7    5    6 ar   
     8    5    8 1    
     9    6    7 1    
    10    8    9 2    
    11    9   10 1    
    12   10   11 1    
    13   11   12 1    
    14   11   21 1    
    15   12   13 1    
    16   12   14 1    
    17   14   15 1    
    18   14   20 1    
    19   15   16 1    
    20   16   17 ar   
    21   16   18 ar   
    22   16   19 ar   
    23   20   21 1    
    24   20   22 1    
    25   22   23 1    
    26   23   24 1    
    27   24   25 ar   
    28   24   26 ar   
    29   24   27 1    
    30   27   28 1    
    31   28   29 ar   
    32   28   30 ar   
    33   28   31 1    
    34   31   33 1    
    35   32   33 1    
    36   32   34 1    
    37   32   35 1    
    38   32   36 1    
    39   36   37 1    
    40   36   38 1    
    41   38   39 2    
    42   38   40 am   
    43   40   41 1    
    44   41   42 1    
    45   42   43 1    
    46   43   44 2    
    47   43   45 am   
    48   45   46 1    
    49   46   47 1    
    50   47   48 1    
    51   48   49 1    
    52   49   50 2    
    53   49   51 1    
@<TRIPOS>SUBSTRUCTURE
     1 ACO301      1 GROUP   
@<TRIPOS>SET
ATOM$ORANGE STATIC     ATOMS   COLORGROUP SYSTEM 
46 2 2 4 4 5 5 6 6 9 9 11 11 12 12 14 14 20 \
20 22 22 32 32 33 33 34 34 35 35 36 36 38 38 41 41 42 \
42 43 43 46 46 47 47 49 49 51 51 

