#    Name: 6v3t_4_ACO
#    Modification time : Fri May 22 19:28:54 2020

@<TRIPOS>MOLECULE
6v3t_4_ACO
   51    53     1     0     1
SMALL
NO_CHARGES


@<TRIPOS>ATOM
      1 N1A       103.0970  -29.3560  180.0760 N.ar      1 ACO301      0.0000 
      2 C2A       104.4280  -29.1520  180.0520 C.ar      1 ACO301      0.0000 
      3 N3A       104.9640  -27.9160  179.9830 N.ar      1 ACO301      0.0000 
      4 C4A       104.1710  -26.8210  179.9300 C.ar      1 ACO301      0.0000 
      5 C5A       102.7180  -26.9630  179.9450 C.ar      1 ACO301      0.0000 
      6 C6A       102.2210  -28.3380  180.0250 C.ar      1 ACO301      0.0000 
      7 N6A       100.9040  -28.5650  180.0430 N.pl3     1 ACO301      0.0000 
      8 N7A       102.1760  -25.7280  179.8760 N.2       1 ACO301      0.0000 
      9 C8A       103.2250  -24.8580  179.8240 C.2       1 ACO301      0.0000 
     10 N9A       104.4040  -25.5300  179.8440 N.pl3     1 ACO301      0.0000 
     11 C1B       105.7610  -24.9760  179.8260 C.3       1 ACO301      0.0000 
     12 C2B       106.2980  -24.6900  178.4420 C.3       1 ACO301      0.0000 
     13 O2B       107.0460  -25.8020  177.9270 O.3       1 ACO301      0.0000 
     14 C3B       107.1840  -23.4970  178.7140 C.3       1 ACO301      0.0000 
     15 O3B       108.4650  -23.9600  179.1080 O.3       1 ACO301      0.0000 
     16 P3B       109.7850  -23.8060  178.2180 P.3       1 ACO301      0.0000 
     17 O7A       109.2280  -23.5870  176.8280 O.co2     1 ACO301      0.0000 
     18 O8A       110.4940  -22.6220  178.8660 O.co2     1 ACO301      0.0000 
     19 O9A       110.4490  -25.1580  178.4140 O.co2     1 ACO301      0.0000 
     20 C4B       106.5910  -22.8130  179.9250 C.3       1 ACO301      0.0000 
     21 O4B       105.7170  -23.7440  180.5220 O.3       1 ACO301      0.0000 
     22 C5B       105.7890  -21.5910  179.5840 C.3       1 ACO301      0.0000 
     23 O5B       104.5570  -21.9520  178.9840 O.3       1 ACO301      0.0000 
     24 P1A       103.6300  -20.7020  178.6010 P.3       1 ACO301      0.0000 
     25 O1A       104.5970  -19.5610  178.3170 O.co2     1 ACO301      0.0000 
     26 O2A       102.5540  -21.0440  177.6190 O.co2     1 ACO301      0.0000 
     27 O3A       102.8360  -20.4780  179.9710 O.3       1 ACO301      0.0000 
     28 P2A       101.2690  -20.7730  180.1690 P.3       1 ACO301      0.0000 
     29 O4A       100.5320  -19.6030  179.5450 O.co2     1 ACO301      0.0000 
     30 O5A       100.9670  -22.1690  179.6500 O.co2     1 ACO301      0.0000 
     31 O6A       101.2480  -20.8770  181.8300 O.3       1 ACO301      0.0000 
     32 CBP       100.0540  -21.2610  184.0640 C.3       1 ACO301      0.0000 
     33 CCP       100.2410  -20.4110  182.7740 C.3       1 ACO301      0.0000 
     34 CDP       101.4420  -21.4750  184.6570 C.3       1 ACO301      0.0000 
     35 CEP        99.3840  -22.6030  183.7470 C.3       1 ACO301      0.0000 
     36 CAP        99.1150  -20.5080  185.0770 C.3       1 ACO301      0.0000 
     37 OAP        97.8900  -20.1350  184.3760 O.3       1 ACO301      0.0000 
     38 C9P        98.6390  -21.2240  186.3820 C.2       1 ACO301      0.0000 
     39 O9P        97.5890  -21.8400  186.2350 O.2       1 ACO301      0.0000 
     40 N8P        99.2450  -21.2340  187.6480 N.am      1 ACO301      0.0000 
     41 C7P       100.6040  -20.7990  188.0800 C.3       1 ACO301      0.0000 
     42 C6P       100.8680  -19.3880  188.6680 C.3       1 ACO301      0.0000 
     43 C5P       101.9820  -19.2960  189.7510 C.2       1 ACO301      0.0000 
     44 O5P       102.8400  -20.1390  189.9030 O.2       1 ACO301      0.0000 
     45 N4P       101.9640  -18.2600  190.5870 N.am      1 ACO301      0.0000 
     46 C3P       102.7840  -18.2420  191.8080 C.3       1 ACO301      0.0000 
     47 C2P       102.0390  -17.8110  193.1170 C.3       1 ACO301      0.0000 
     48 S1P       101.6330  -19.1110  194.2910 S.3       1 ACO301      0.0000 
     49 C         100.2250  -18.5820  195.0850 C.2       1 ACO301      0.0000 
     50 O         100.0280  -17.3780  195.2210 O.2       1 ACO301      0.0000 
     51 CH3        99.2120  -19.5670  195.6310 C.3       1 ACO301      0.0000 
@<TRIPOS>BOND
     1    1    2 ar   
     2    1    6 ar   
     3    2    3 ar   
     4    3    4 ar   
     5    4    5 ar   
     6    4   10 1    
     7    5    6 ar   
     8    5    8 1    
     9    6    7 1    
    10    8    9 2    
    11    9   10 1    
    12   10   11 1    
    13   11   12 1    
    14   11   21 1    
    15   12   13 1    
    16   12   14 1    
    17   14   15 1    
    18   14   20 1    
    19   15   16 1    
    20   16   17 ar   
    21   16   18 ar   
    22   16   19 ar   
    23   20   21 1    
    24   20   22 1    
    25   22   23 1    
    26   23   24 1    
    27   24   25 ar   
    28   24   26 ar   
    29   24   27 1    
    30   27   28 1    
    31   28   29 ar   
    32   28   30 ar   
    33   28   31 1    
    34   31   33 1    
    35   32   33 1    
    36   32   34 1    
    37   32   35 1    
    38   32   36 1    
    39   36   37 1    
    40   36   38 1    
    41   38   39 2    
    42   38   40 am   
    43   40   41 1    
    44   41   42 1    
    45   42   43 1    
    46   43   44 2    
    47   43   45 am   
    48   45   46 1    
    49   46   47 1    
    50   47   48 1    
    51   48   49 1    
    52   49   50 2    
    53   49   51 1    
@<TRIPOS>SUBSTRUCTURE
     1 ACO301      1 GROUP   
@<TRIPOS>SET
ATOM$ORANGE STATIC     ATOMS   COLORGROUP SYSTEM 
46 2 2 4 4 5 5 6 6 9 9 11 11 12 12 14 14 20 \
20 22 22 32 32 33 33 34 34 35 35 36 36 38 38 41 41 42 \
42 43 43 46 46 47 47 49 49 51 51 

