#    Name: 6bry_4_GDP
#    Modification time : Fri May 22 19:33:26 2020

@<TRIPOS>MOLECULE
6bry_4_GDP
   28    30     1     0     1
SMALL
NO_CHARGES


@<TRIPOS>ATOM
      1 PB         25.4640   10.0260   43.5340 P.3       1 GDP501      0.0000 
      2 O1B        26.3440    9.2750   42.5680 O.co2     1 GDP501      0.0000 
      3 O2B        24.7660    9.0230   44.4250 O.co2     1 GDP501      0.0000 
      4 O3B        26.3570   10.9850   44.3460 O.co2     1 GDP501      0.0000 
      5 O3A        24.3840   10.8350   42.6540 O.3       1 GDP501      0.0000 
      6 PA         22.7650   10.8160   42.8150 P.3       1 GDP501      0.0000 
      7 O1A        22.1660    9.4200   42.6980 O.co2     1 GDP501      0.0000 
      8 O2A        22.2490   11.5560   44.0400 O.co2     1 GDP501      0.0000 
      9 O5'        22.4110   11.6820   41.5120 O.3       1 GDP501      0.0000 
     10 C5'        21.7060   12.9060   41.6350 C.3       1 GDP501      0.0000 
     11 C4'        20.8850   13.0230   40.3680 C.3       1 GDP501      0.0000 
     12 O4'        20.1340   11.8180   40.2840 O.3       1 GDP501      0.0000 
     13 C3'        19.9100   14.1700   40.4290 C.3       1 GDP501      0.0000 
     14 O3'        19.9550   14.8280   39.1590 O.3       1 GDP501      0.0000 
     15 C2'        18.5530   13.5370   40.6950 C.3       1 GDP501      0.0000 
     16 O2'        17.5210   14.1290   39.8960 O.3       1 GDP501      0.0000 
     17 C1'        18.7300   12.0810   40.3050 C.3       1 GDP501      0.0000 
     18 N9         18.1400   11.1500   41.2890 N.pl3     1 GDP501      0.0000 
     19 C8         18.6520   10.9080   42.5120 C.2       1 GDP501      0.0000 
     20 N7         17.9060    9.9850   43.1710 N.2       1 GDP501      0.0000 
     21 C5         16.9040    9.6230   42.3570 C.2       1 GDP501      0.0000 
     22 C6         15.7660    8.6950   42.4490 C.2       1 GDP501      0.0000 
     23 O6         15.5850    8.0240   43.4840 O.2       1 GDP501      0.0000 
     24 N1         14.9520    8.5890   41.3930 N.am      1 GDP501      0.0000 
     25 C2         15.1330    9.3040   40.2700 C.2       1 GDP501      0.0000 
     26 N2         14.2390    9.1300   39.2680 N.pl3     1 GDP501      0.0000 
     27 N3         16.1570   10.1870   40.1150 N.2       1 GDP501      0.0000 
     28 C4         17.0590   10.3820   41.1090 C.2       1 GDP501      0.0000 
@<TRIPOS>BOND
     1    1    2 ar   
     2    1    3 ar   
     3    1    4 ar   
     4    1    5 1    
     5    5    6 1    
     6    6    7 ar   
     7    6    8 ar   
     8    6    9 1    
     9    9   10 1    
    10   10   11 1    
    11   11   12 1    
    12   11   13 1    
    13   12   17 1    
    14   13   14 1    
    15   13   15 1    
    16   15   16 1    
    17   15   17 1    
    18   17   18 1    
    19   18   19 1    
    20   18   28 1    
    21   19   20 2    
    22   20   21 1    
    23   21   22 1    
    24   21   28 2    
    25   22   23 2    
    26   22   24 am   
    27   24   25 1    
    28   25   26 1    
    29   25   27 2    
    30   27   28 1    
@<TRIPOS>SUBSTRUCTURE
     1 GDP501      1 GROUP   
@<TRIPOS>SET
ATOM$ORANGE STATIC     ATOMS   COLORGROUP SYSTEM 
20 10 10 11 11 13 13 15 15 17 17 19 19 21 21 22 22 25 \
25 28 28 

