#    Name: 6bry_5_ACP
#    Modification time : Fri May 22 19:33:31 2020

@<TRIPOS>MOLECULE
6bry_5_ACP
   45    47     1     0     1
SMALL
NO_CHARGES


@<TRIPOS>ATOM
      1 PG          7.9340  -49.8150  -93.9340 P.3       1 ACP402      0.0000 
      2 O1G         7.1170  -50.4950  -95.0180 O.co2     1 ACP402      0.0000 
      3 O2G         6.9890  -49.0310  -93.0480 O.co2     1 ACP402      0.0000 
      4 O3G         8.6320  -50.8490  -93.0820 O.co2     1 ACP402      0.0000 
      5 PB         10.6090  -49.5550  -95.6780 P.3       1 ACP402      0.0000 
      6 O1B        11.8200  -48.6590  -95.5750 O.co2     1 ACP402      0.0000 
      7 O2B        11.0020  -50.8940  -95.1000 O.co2     1 ACP402      0.0000 
      8 C3B         9.2200  -48.7170  -94.7310 C.3       1 ACP402      0.0000 
      9 PA         10.1310  -51.0470  -98.2690 P.3       1 ACP402      0.0000 
     10 O1A        11.4000  -51.8660  -98.2370 O.co2     1 ACP402      0.0000 
     11 O2A         8.9670  -51.9440  -97.9340 O.co2     1 ACP402      0.0000 
     12 O3A        10.2070  -49.7110  -97.2810 O.3       1 ACP402      0.0000 
     13 O5'         9.8320  -50.5070  -99.7950 O.3       1 ACP402      0.0000 
     14 C5'         8.4760  -50.3890 -100.1640 C.3       1 ACP402      0.0000 
     15 C4'         8.2500  -49.0700 -100.9440 C.3       1 ACP402      0.0000 
     16 O4'         9.1190  -49.0690 -101.9330 O.3       1 ACP402      0.0000 
     17 C3'         6.9090  -48.9300 -101.6960 C.3       1 ACP402      0.0000 
     18 O3'         6.7380  -47.6470 -102.0950 O.3       1 ACP402      0.0000 
     19 C2'         7.1140  -49.8920 -102.8840 C.3       1 ACP402      0.0000 
     20 O2'         6.2780  -49.5150 -104.0630 O.3       1 ACP402      0.0000 
     21 C1'         8.3910  -49.8020 -103.1890 C.3       1 ACP402      0.0000 
     22 N9          8.9070  -51.1230 -103.4830 N.pl3     1 ACP402      0.0000 
     23 C8          9.6990  -51.8900 -102.7280 C.2       1 ACP402      0.0000 
     24 N7          9.9290  -53.0350 -103.3780 N.2       1 ACP402      0.0000 
     25 C5          9.2800  -52.9810 -104.5470 C.ar      1 ACP402      0.0000 
     26 C6          9.1900  -53.8820 -105.5830 C.ar      1 ACP402      0.0000 
     27 N6          9.7480  -55.2020 -105.8090 N.pl3     1 ACP402      0.0000 
     28 N1          8.4690  -53.5820 -106.6460 N.ar      1 ACP402      0.0000 
     29 C2          7.8240  -52.3920 -106.7150 C.ar      1 ACP402      0.0000 
     30 N3          7.9140  -51.5010 -105.6960 N.ar      1 ACP402      0.0000 
     31 C4          8.6470  -51.8030 -104.6150 C.ar      1 ACP402      0.0000 
     32 H3B1        8.7580  -48.1320  -95.3510 H         1 ACP402      0.0000 
     33 H3B2        9.6260  -48.1880  -94.0270 H         1 ACP402      0.0000 
     34 H5'1        7.9250  -50.3880  -99.3650 H         1 ACP402      0.0000 
     35 H5'2        8.2300  -51.1410 -100.7250 H         1 ACP402      0.0000 
     36 H4'         8.2990  -48.3370 -100.3110 H         1 ACP402      0.0000 
     37 H3'         6.1390  -49.1900 -101.1660 H         1 ACP402      0.0000 
     38 HO3'        5.9980  -47.3540 -101.7960 H         1 ACP402      0.0000 
     39 H2'         6.8860  -50.7920 -102.6030 H         1 ACP402      0.0000 
     40 HO2'        5.8060  -48.8350 -103.8700 H         1 ACP402      0.0000 
     41 H1'         8.5340  -49.2320 -103.9610 H         1 ACP402      0.0000 
     42 H8         10.0350  -51.6650 -101.8910 H         1 ACP402      0.0000 
     43 HN61        9.8290  -55.7530 -105.1530 H         1 ACP402      0.0000 
     44 HN62        9.9980  -55.4340 -106.5980 H         1 ACP402      0.0000 
     45 H2          7.3160  -52.1850 -107.4660 H         1 ACP402      0.0000 
@<TRIPOS>BOND
     1    1    2 ar   
     2    1    3 ar   
     3    1    4 ar   
     4    1    8 1    
     5    5    6 ar   
     6    5    7 ar   
     7    5    8 1    
     8    5   12 1    
     9    8   32 1    
    10    8   33 1    
    11    9   10 ar   
    12    9   11 ar   
    13    9   12 1    
    14    9   13 1    
    15   13   14 1    
    16   14   15 1    
    17   14   34 1    
    18   14   35 1    
    19   15   16 1    
    20   15   17 1    
    21   15   36 1    
    22   16   21 1    
    23   17   18 1    
    24   17   19 1    
    25   17   37 1    
    26   18   38 1    
    27   19   20 1    
    28   19   21 1    
    29   19   39 1    
    30   21   22 1    
    31   20   40 1    
    32   21   41 1    
    33   22   23 1    
    34   22   31 1    
    35   23   24 2    
    36   24   25 1    
    37   23   42 1    
    38   25   26 ar   
    39   25   31 ar   
    40   26   27 1    
    41   26   28 ar   
    42   28   29 ar   
    43   27   43 1    
    44   27   44 1    
    45   29   30 ar   
    46   30   31 ar   
    47   29   45 1    
@<TRIPOS>SUBSTRUCTURE
     1 ACP402      1 GROUP   
@<TRIPOS>SET
ATOM$ORANGE STATIC     ATOMS   COLORGROUP SYSTEM 
22 8 8 14 14 15 15 17 17 19 19 21 21 23 23 25 25 26 \
26 29 29 31 31 

