#    Name: 6bry_4_GDP_CAVITY_N1_12
#    Modification time : Fri May 22 19:33:27 2020

@<TRIPOS>MOLECULE
6bry_4_GDP_CAVITY_N1_12
   71     0     6     0     0
SMALL
NO_CHARGES


@<TRIPOS>ATOM
      1 OG         20.9300   12.1900   40.9700 O.3       1 SER1        0.0000 
      2 OG         18.8200   12.4000   41.0700 O.3       1 SER1        0.0000 
      3 OG         17.8400   13.4500   40.6300 O.3       1 SER1        0.0000 
      4 OG         22.0400   11.8300   42.7400 O.3       1 SER1        0.0000 
      5 OG         18.9500   13.0900   42.4000 O.3       1 SER1        0.0000 
      6 OG         20.0800   13.9200   41.8600 O.3       1 SER1        0.0000 
      7 OG         19.0800   13.7700   43.7300 O.3       1 SER1        0.0000 
      8 OG         20.2100   14.6000   43.1900 O.3       1 SER1        0.0000 
      9 OG         19.2200   15.6500   42.7500 O.3       1 SER1        0.0000 
     10 OG         19.2100   14.4600   45.0600 O.3       1 SER1        0.0000 
     11 OG         21.4600   16.1200   43.9800 O.3       1 SER1        0.0000 
     12 OG         18.2300   15.5000   44.6200 O.3       1 SER1        0.0000 
     13 OG         19.3600   16.3300   44.0800 O.3       1 SER1        0.0000 
     14 OG         20.4800   17.1600   43.5400 O.3       1 SER1        0.0000 
     15 O          18.7000   12.9100   37.4300 O.2       2 ALA2        0.0000 
     16 O          17.5600   10.8900   40.2800 O.2       2 ALA2        0.0000 
     17 O          18.6900   11.7200   39.7400 O.2       2 ALA2        0.0000 
     18 O          18.8300   13.6000   38.7600 O.2       2 ALA2        0.0000 
     19 O          17.8500   14.6400   38.3200 O.2       2 ALA2        0.0000 
     20 O          22.0500   13.0300   40.4300 O.2       2 ALA2        0.0000 
     21 O          19.7900   10.1700   43.8200 O.2       2 ALA2        0.0000 
     22 N          20.9200   11.0000   43.2800 N.am      2 ALA2        0.0000 
     23 N          18.8100   11.2100   43.3800 N.am      2 ALA2        0.0000 
     24 N          23.3100   14.5400   41.2200 N.am      2 ALA2        0.0000 
     25 N          23.1600   11.4700   44.5100 N.am      2 ALA2        0.0000 
     26 N          24.2800   12.3100   43.9700 N.am      2 ALA2        0.0000 
     27 N          22.1700   12.5200   44.0700 N.am      2 ALA2        0.0000 
     28 N          23.3000   13.3500   43.5300 N.am      2 ALA2        0.0000 
     29 N          17.8200   11.0600   45.2500 N.am      2 ALA2        0.0000 
     30 N          18.9400   11.9000   44.7100 N.am      2 ALA2        0.0000 
     31 N          20.0700   12.7300   44.1700 N.am      2 ALA2        0.0000 
     32 N          22.3200   14.3900   43.0900 N.am      2 ALA2        0.0000 
     33 N          23.2900   12.1600   45.8400 N.am      2 ALA2        0.0000 
     34 N          24.4100   12.9900   45.3000 N.am      2 ALA2        0.0000 
     35 N          22.3100   13.2000   45.4000 N.am      2 ALA2        0.0000 
     36 N          17.9500   11.7500   46.5800 N.am      2 ALA2        0.0000 
     37 N          20.2000   13.4100   45.5000 N.am      2 ALA2        0.0000 
     38 N          21.3200   14.2500   44.9600 N.am      2 ALA2        0.0000 
     39 N          22.4500   15.0800   44.4200 N.am      2 ALA2        0.0000 
     40 N          23.4200   12.8400   47.1700 N.am      2 ALA2        0.0000 
     41 N          24.5400   13.6700   46.6300 N.am      2 ALA2        0.0000 
     42 NZ         20.9400   13.3900   38.6600 N.4       3 LYS4        0.0000 
     43 NZ         19.9600   14.4300   38.2200 N.4       3 LYS4        0.0000 
     44 NZ         21.0700   14.0700   39.9900 N.4       3 LYS4        0.0000 
     45 NZ         20.0900   15.1100   39.5500 N.4       3 LYS4        0.0000 
     46 NZ         21.2000   14.7500   41.3200 N.4       3 LYS4        0.0000 
     47 NZ         21.3300   15.4400   42.6500 N.4       3 LYS4        0.0000 
     48 NZ         22.4600   16.2700   42.1100 N.4       3 LYS4        0.0000 
     49 CZ         17.6900   11.5700   41.6100 C.ar      4 PHE5        0.0000 
     50 CZ         17.6800   10.3800   43.9200 C.ar      4 PHE5        0.0000 
     51 CZ         17.8300   12.2600   42.9400 C.ar      4 PHE5        0.0000 
     52 CZ         17.9600   12.9400   44.2700 C.ar      4 PHE5        0.0000 
     53 CZ         18.0900   13.6200   45.6000 C.ar      4 PHE5        0.0000 
     54 CA         19.6800   11.8700   37.8800 C.3       5 GLY6        0.0000 
     55 CA         19.6700   10.6800   40.1800 C.3       5 GLY6        0.0000 
     56 CA         19.8100   12.5500   39.2000 C.3       5 GLY6        0.0000 
     57 CA         20.7900   10.3200   41.9500 C.3       5 GLY6        0.0000 
     58 CA         17.5500    9.7000   42.5900 C.3       5 GLY6        0.0000 
     59 CA         18.6800   10.5300   42.0500 C.3       5 GLY6        0.0000 
     60 CA         19.8000   11.3600   41.5100 C.3       5 GLY6        0.0000 
     61 CA         18.9600   14.2800   40.0900 C.3       5 GLY6        0.0000 
     62 CA         23.0300   10.7900   43.1800 C.3       5 GLY6        0.0000 
     63 CA         18.6700    9.3400   44.3600 C.3       5 GLY6        0.0000 
     64 CA         23.1700   12.6700   42.2000 C.3       5 GLY6        0.0000 
     65 CA         22.1800   13.7100   41.7600 C.3       5 GLY6        0.0000 
     66 CA         19.0900   14.9600   41.4200 C.3       5 GLY6        0.0000 
     67 DU         19.9400   13.2400   40.5300 H         6 CUB7        0.0000 
     68 DU         19.9300   12.0400   42.8400 H         6 CUB7        0.0000 
     69 DU         21.0600   12.8800   42.3000 H         6 CUB7        0.0000 
     70 DU         21.1900   13.5600   43.6300 H         6 CUB7        0.0000 
     71 DU         20.3400   15.2900   44.5200 H         6 CUB7        0.0000 
@<TRIPOS>BOND
@<TRIPOS>SUBSTRUCTURE
     1 SER1        1 GROUP   
     2 ALA2       15 GROUP   
     3 LYS4       42 GROUP   
     4 PHE5       49 GROUP   
     5 GLY6       54 GROUP   
     6 CUB7       67 GROUP   
@<TRIPOS>SET

