#    Name: 6fpl_1_TAC
#    Modification time : Fri May 22 19:29:45 2020

@<TRIPOS>MOLECULE
6fpl_1_TAC
   32    35     1     0     0
SMALL
NO_CHARGES


@<TRIPOS>ATOM
      1 C1         19.4760   34.0260   33.8170 C.2       1 TAC301      0.0000 
      2 O1         18.7960   34.5580   32.9100 O.2       1 TAC301      0.0000 
      3 C2         18.9580   32.9310   34.6090 C.2       1 TAC301      0.0000 
      4 C21        17.6910   32.2450   34.2110 C.2       1 TAC301      0.0000 
      5 O21        17.1690   31.3700   34.9450 O.2       1 TAC301      0.0000 
      6 N21        17.0980   32.5880   33.0420 N.am      1 TAC301      0.0000 
      7 C3         19.6510   32.5960   35.7310 C.2       1 TAC301      0.0000 
      8 O3         19.4300   31.4400   36.3220 O.co2     1 TAC301      0.0000 
      9 C4         20.5730   33.5340   36.4650 C.3       1 TAC301      0.0000 
     10 N4         21.6160   32.7330   37.1800 N.4       1 TAC301      0.0000 
     11 C42        22.3950   33.5800   38.1290 C.3       1 TAC301      0.0000 
     12 C43        22.6450   32.0540   36.3040 C.3       1 TAC301      0.0000 
     13 C41        21.0780   34.7100   35.5980 C.3       1 TAC301      0.0000 
     14 C5         20.2720   35.9810   35.9770 C.3       1 TAC301      0.0000 
     15 C51        20.8480   37.1540   35.2460 C.3       1 TAC301      0.0000 
     16 C6         19.8420   38.3420   35.3520 C.3       1 TAC301      0.0000 
     17 C62        19.2900   38.6540   36.7670 C.3       1 TAC301      0.0000 
     18 O6         18.6960   37.9930   34.5430 O.3       1 TAC301      0.0000 
     19 C61        20.4620   39.5350   34.7180 C.ar      1 TAC301      0.0000 
     20 C7         20.1200   40.8340   35.1310 C.ar      1 TAC301      0.0000 
     21 C8         20.6710   41.9500   34.4820 C.ar      1 TAC301      0.0000 
     22 C9         21.4910   41.8240   33.4010 C.ar      1 TAC301      0.0000 
     23 C10        21.8770   40.5490   32.9630 C.ar      1 TAC301      0.0000 
     24 O10        22.6600   40.4120   31.8970 O.co2     1 TAC301      0.0000 
     25 C1A        21.3410   39.3580   33.5700 C.ar      1 TAC301      0.0000 
     26 C11        21.6680   38.0090   32.9930 C.2       1 TAC301      0.0000 
     27 O11        22.2220   37.9860   31.8780 O.2       1 TAC301      0.0000 
     28 C1B        21.2520   36.8840   33.7870 C.2       1 TAC301      0.0000 
     29 C12        21.3640   35.5920   33.2970 C.2       1 TAC301      0.0000 
     30 O12        21.8190   35.3550   32.0940 O.co2     1 TAC301      0.0000 
     31 C1C        20.9240   34.4180   34.1030 C.3       1 TAC301      0.0000 
     32 O1C        21.7850   33.3430   33.7120 O.3       1 TAC301      0.0000 
@<TRIPOS>BOND
     1    4    5 2    
     2    4    6 am   
     3    7    8 ar   
     4    7    9 1    
     5    9   10 1    
     6    9   13 1    
     7   10   11 1    
     8   10   12 1    
     9   13   14 1    
    10   13   31 1    
    11   14   15 1    
    12   15   16 1    
    13   15   28 1    
    14   16   17 1    
    15   16   18 1    
    16   16   19 1    
    17   19   20 ar   
    18   19   25 ar   
    19   20   21 ar   
    20   21   22 ar   
    21   22   23 ar   
    22   23   24 ar   
    23   23   25 ar   
    24   25   26 1    
    25   26   27 2    
    26   26   28 1    
    27   28   29 2    
    28   29   30 ar   
    29   29   31 1    
    30   31   32 1    
    31    1    2 2    
    32    1    3 1    
    33    1   31 1    
    34    3    4 1    
    35    3    7 2    
@<TRIPOS>SUBSTRUCTURE
     1 TAC301      1 GROUP   
@<TRIPOS>SET

