#    Name: 5zkp_1_FMN
#    Modification time : Fri May 22 19:27:50 2020

@<TRIPOS>MOLECULE
5zkp_1_FMN
   31    33     1     0     1
SMALL
NO_CHARGES


@<TRIPOS>ATOM
      1 N1         48.8090  -16.5050  -59.4570 N.2       1 FMN1202     0.0000 
      2 C2         48.6140  -15.2670  -58.8250 C.2       1 FMN1202     0.0000 
      3 O2         49.2620  -14.9710  -57.8230 O.2       1 FMN1202     0.0000 
      4 N3         47.6710  -14.3640  -59.3430 N.am      1 FMN1202     0.0000 
      5 C4         46.9280  -14.6880  -60.5000 C.2       1 FMN1202     0.0000 
      6 O4         46.1000  -13.8730  -60.9220 O.2       1 FMN1202     0.0000 
      7 C4A        47.1130  -15.9400  -61.1130 C.2       1 FMN1202     0.0000 
      8 N5         46.4050  -16.2660  -62.2140 N.2       1 FMN1202     0.0000 
      9 C5A        46.7560  -17.3300  -62.9540 C.ar      1 FMN1202     0.0000 
     10 C6         46.1700  -17.5040  -64.2100 C.ar      1 FMN1202     0.0000 
     11 C7         46.5280  -18.5860  -65.0180 C.ar      1 FMN1202     0.0000 
     12 C7M        45.9040  -18.6980  -66.2640 C.3       1 FMN1202     0.0000 
     13 C8         47.4800  -19.5140  -64.5480 C.ar      1 FMN1202     0.0000 
     14 C8M        47.8940  -20.6220  -65.2940 C.3       1 FMN1202     0.0000 
     15 C9         48.0600  -19.3300  -63.2890 C.ar      1 FMN1202     0.0000 
     16 C9A        47.6950  -18.2550  -62.4600 C.ar      1 FMN1202     0.0000 
     17 N10        48.2760  -18.0400  -61.2390 N.pl3     1 FMN1202     0.0000 
     18 C10        48.0430  -16.8650  -60.5900 C.2       1 FMN1202     0.0000 
     19 C1'        49.3630  -18.9480  -60.7260 C.3       1 FMN1202     0.0000 
     20 C2'        48.8930  -20.1260  -59.8620 C.3       1 FMN1202     0.0000 
     21 O2'        48.3020  -19.6110  -58.6680 O.3       1 FMN1202     0.0000 
     22 C3'        50.1310  -21.0160  -59.5940 C.3       1 FMN1202     0.0000 
     23 O3'        50.2910  -21.9490  -60.6680 O.3       1 FMN1202     0.0000 
     24 C4'        50.1310  -21.7310  -58.2210 C.3       1 FMN1202     0.0000 
     25 O4'        51.4430  -21.6550  -57.6450 O.3       1 FMN1202     0.0000 
     26 C5'        49.7150  -23.2020  -58.3310 C.3       1 FMN1202     0.0000 
     27 O5'        48.8140  -23.5360  -57.2740 O.3       1 FMN1202     0.0000 
     28 P          47.9450  -24.8960  -57.3150 P.3       1 FMN1202     0.0000 
     29 O1P        46.6640  -24.7750  -58.0360 O.co2     1 FMN1202     0.0000 
     30 O2P        48.8920  -26.0310  -57.8770 O.co2     1 FMN1202     0.0000 
     31 O3P        47.7310  -25.3440  -55.8130 O.co2     1 FMN1202     0.0000 
@<TRIPOS>BOND
     1    1    2 1    
     2    1   18 2    
     3    2    3 2    
     4    2    4 am   
     5    4    5 am   
     6    5    6 2    
     7    5    7 1    
     8    7    8 2    
     9    7   18 1    
    10    8    9 1    
    11    9   10 ar   
    12    9   16 ar   
    13   10   11 ar   
    14   11   12 1    
    15   11   13 ar   
    16   13   14 1    
    17   13   15 ar   
    18   15   16 ar   
    19   16   17 1    
    20   17   18 1    
    21   17   19 1    
    22   19   20 1    
    23   20   21 1    
    24   20   22 1    
    25   22   23 1    
    26   22   24 1    
    27   24   25 1    
    28   24   26 1    
    29   26   27 1    
    30   27   28 1    
    31   28   29 ar   
    32   28   30 ar   
    33   28   31 ar   
@<TRIPOS>SUBSTRUCTURE
     1 FMN1202     1 GROUP   
@<TRIPOS>SET
ATOM$ORANGE STATIC     ATOMS   COLORGROUP SYSTEM 
34 2 2 5 5 7 7 9 9 10 10 11 11 12 12 13 13 14 \
14 15 15 16 16 18 18 19 19 20 20 22 22 24 24 26 26 

