#    Name: 5zkp_1_FMN_CAVITY_N1_12
#    Modification time : Fri May 22 19:27:52 2020

@<TRIPOS>MOLECULE
5zkp_1_FMN_CAVITY_N1_12
   97     0     6     0     0
SMALL
NO_CHARGES


@<TRIPOS>ATOM
      1 OG         50.2000  -22.9600  -61.1700 O.3       1 SER1        0.0000 
      2 OG         50.5300  -24.4000  -60.9100 O.3       1 SER1        0.0000 
      3 OG         49.2400  -24.3800  -59.2200 O.3       1 SER1        0.0000 
      4 O          45.1600  -17.2700  -66.4300 O.2       2 ALA2        0.0000 
      5 O          45.6600  -18.4000  -64.7000 O.2       2 ALA2        0.0000 
      6 N          45.4800  -10.9100  -66.2700 N.am      2 ALA2        0.0000 
      7 N          44.5200  -12.3300  -64.3200 N.am      2 ALA2        0.0000 
      8 N          45.5000  -16.6500  -63.5100 N.am      2 ALA2        0.0000 
      9 N          45.3300   -9.1600  -65.0800 N.am      2 ALA2        0.0000 
     10 N          45.6500  -10.6000  -64.8100 N.am      2 ALA2        0.0000 
     11 O          47.1100  -10.3200  -65.0400 O.2       2 ALA2        0.0000 
     12 O          49.0600  -18.9500  -63.4400 O.2       2 ALA2        0.0000 
     13 O          48.5600  -10.0300  -65.2700 O.2       2 ALA2        0.0000 
     14 N          44.6900  -12.0200  -62.8600 N.am      2 ALA2        0.0000 
     15 N          45.0200  -13.4600  -62.5900 N.am      2 ALA2        0.0000 
     16 N          45.3400  -14.9000  -62.3200 N.am      2 ALA2        0.0000 
     17 N          47.4500  -17.4900  -62.0200 N.am      2 ALA2        0.0000 
     18 N          47.7700  -18.9300  -61.7500 N.am      2 ALA2        0.0000 
     19 N          48.1000  -20.3700  -61.4800 N.am      2 ALA2        0.0000 
     20 O          47.2800  -10.0100  -63.5900 O.2       2 ALA2        0.0000 
     21 O          49.2300  -18.6500  -61.9800 O.2       2 ALA2        0.0000 
     22 O          51.9800  -24.1200  -61.1400 O.2       2 ALA2        0.0000 
     23 N          45.1900  -13.1500  -61.1300 N.am      2 ALA2        0.0000 
     24 N          47.6200  -17.1800  -60.5600 N.am      2 ALA2        0.0000 
     25 N          48.2700  -20.0600  -60.0200 N.am      2 ALA2        0.0000 
     26 O          49.4000  -18.3400  -60.5200 O.2       2 ALA2        0.0000 
     27 O          50.3700  -22.6500  -59.7200 O.2       2 ALA2        0.0000 
     28 O          50.7000  -24.0900  -59.4500 O.2       2 ALA2        0.0000 
     29 N          51.5000  -20.9300  -60.2100 N.am      2 ALA2        0.0000 
     30 O          51.8300  -22.3700  -59.9500 O.2       2 ALA2        0.0000 
     31 O          53.2800  -22.0800  -60.1700 O.2       2 ALA2        0.0000 
     32 O          53.6100  -23.5200  -59.9100 O.2       2 ALA2        0.0000 
     33 N          47.1300  -13.9900  -59.6400 N.am      2 ALA2        0.0000 
     34 N          47.7800  -16.8700  -59.1000 N.am      2 ALA2        0.0000 
     35 N          48.4400  -19.7500  -58.5700 N.am      2 ALA2        0.0000 
     36 O          49.2400  -16.5900  -59.3300 O.2       2 ALA2        0.0000 
     37 N          50.2200  -20.9100  -58.5300 N.am      2 ALA2        0.0000 
     38 O          50.5400  -22.3500  -58.2600 O.2       2 ALA2        0.0000 
     39 N          51.6700  -20.6200  -58.7600 N.am      2 ALA2        0.0000 
     40 O          52.0000  -22.0600  -58.4900 O.2       2 ALA2        0.0000 
     41 N          53.4500  -21.7700  -58.7200 N.am      2 ALA2        0.0000 
     42 NZ         44.0300  -18.9900  -65.9300 N.4       3 LYS4        0.0000 
     43 NZ         45.4900  -18.7100  -66.1600 N.4       3 LYS4        0.0000 
     44 NZ         52.4600  -19.5100  -62.1700 N.4       3 LYS4        0.0000 
     45 NZ         52.9600  -20.6400  -60.4400 N.4       3 LYS4        0.0000 
     46 CZ         46.9400  -18.4200  -66.3900 C.ar      4 PHE5        0.0000 
     47 CZ         45.9800  -19.8400  -64.4400 C.ar      4 PHE5        0.0000 
     48 CZ         46.7800  -16.6700  -65.2000 C.ar      4 PHE5        0.0000 
     49 CZ         47.1100  -18.1100  -64.9300 C.ar      4 PHE5        0.0000 
     50 CZ         47.4400  -19.5500  -64.6700 C.ar      4 PHE5        0.0000 
     51 CZ         47.7600  -20.9900  -64.4000 C.ar      4 PHE5        0.0000 
     52 CZ         45.9800  -12.0400  -64.5500 C.ar      4 PHE5        0.0000 
     53 CZ         46.3000  -13.4800  -64.2800 C.ar      4 PHE5        0.0000 
     54 CZ         46.9500  -16.3600  -63.7400 C.ar      4 PHE5        0.0000 
     55 CZ         47.2800  -17.8000  -63.4800 C.ar      4 PHE5        0.0000 
     56 CZ         47.6000  -19.2400  -63.2100 C.ar      4 PHE5        0.0000 
     57 CZ         47.9300  -20.6800  -62.9400 C.ar      4 PHE5        0.0000 
     58 CZ         48.2500  -22.1200  -62.6700 C.ar      4 PHE5        0.0000 
     59 CZ         47.4300  -11.7600  -64.7800 C.ar      4 PHE5        0.0000 
     60 CZ         44.3700  -10.5800  -63.1300 C.ar      4 PHE5        0.0000 
     61 CZ         45.8200  -10.2900  -63.3600 C.ar      4 PHE5        0.0000 
     62 CZ         46.8000  -14.6100  -62.5500 C.ar      4 PHE5        0.0000 
     63 CZ         47.1200  -16.0500  -62.2800 C.ar      4 PHE5        0.0000 
     64 CZ         48.4200  -21.8100  -61.2100 C.ar      4 PHE5        0.0000 
     65 CZ         48.7500  -23.2500  -60.9500 C.ar      4 PHE5        0.0000 
     66 CZ         44.8600  -11.7100  -61.4000 C.ar      4 PHE5        0.0000 
     67 CZ         47.1400  -21.7900  -59.5300 C.ar      4 PHE5        0.0000 
     68 CZ         46.3100  -11.4200  -61.6300 C.ar      4 PHE5        0.0000 
     69 CZ         47.2900  -15.7400  -60.8300 C.ar      4 PHE5        0.0000 
     70 CZ         48.5900  -21.5000  -59.7600 C.ar      4 PHE5        0.0000 
     71 CZ         48.9200  -22.9400  -59.4900 C.ar      4 PHE5        0.0000 
     72 CZ         49.0700  -16.9000  -60.7900 C.ar      4 PHE5        0.0000 
     73 CZ         48.9100  -15.1500  -59.6000 C.ar      4 PHE5        0.0000 
     74 CA         45.8200  -18.0900  -63.2500 C.3       5 GLY6        0.0000 
     75 CA         46.7800   -8.8800  -65.3100 C.3       5 GLY6        0.0000 
     76 CA         45.6700  -16.3400  -62.0600 C.3       5 GLY6        0.0000 
     77 CA         46.1500  -11.7300  -63.0900 C.3       5 GLY6        0.0000 
     78 CA         46.4700  -13.1700  -62.8200 C.3       5 GLY6        0.0000 
     79 CA         51.0100  -19.8000  -61.9400 C.3       5 GLY6        0.0000 
     80 CA         45.5100  -14.5900  -60.8700 C.3       5 GLY6        0.0000 
     81 CA         45.8400  -16.0300  -60.6000 C.3       5 GLY6        0.0000 
     82 CA         46.6400  -12.8600  -61.3600 C.3       5 GLY6        0.0000 
     83 CA         46.9700  -14.3000  -61.0900 C.3       5 GLY6        0.0000 
     84 CA         49.7200  -19.7800  -60.2500 C.3       5 GLY6        0.0000 
     85 CA         51.1800  -19.4900  -60.4800 C.3       5 GLY6        0.0000 
     86 CA         47.4600  -15.4300  -59.3700 C.3       5 GLY6        0.0000 
     87 CA         48.7600  -21.1900  -58.3000 C.3       5 GLY6        0.0000 
     88 CA         49.0900  -22.6300  -58.0300 C.3       5 GLY6        0.0000 
     89 CA         49.4100  -24.0700  -57.7600 C.3       5 GLY6        0.0000 
     90 CA         49.8900  -19.4700  -58.7900 C.3       5 GLY6        0.0000 
     91 DU         49.3800  -20.3900  -63.1700 H         6 CUB7        0.0000 
     92 DU         49.7100  -21.8300  -62.9000 H         6 CUB7        0.0000 
     93 DU         49.5500  -20.0800  -61.7100 H         6 CUB7        0.0000 
     94 DU         49.8800  -21.5200  -61.4400 H         6 CUB7        0.0000 
     95 DU         51.3300  -21.2400  -61.6700 H         6 CUB7        0.0000 
     96 DU         51.6600  -22.6800  -61.4000 H         6 CUB7        0.0000 
     97 DU         50.0500  -21.2200  -59.9800 H         6 CUB7        0.0000 
@<TRIPOS>BOND
@<TRIPOS>SUBSTRUCTURE
     1 SER1        1 GROUP   
     2 ALA2        4 GROUP   
     3 LYS4       42 GROUP   
     4 PHE5       46 GROUP   
     5 GLY6       74 GROUP   
     6 CUB7       91 GROUP   
@<TRIPOS>SET

