#    Name: 6nbl_1_CAM
#    Modification time : Fri May 22 19:40:46 2020

@<TRIPOS>MOLECULE
6nbl_1_CAM
   11    12     1     0     0
SMALL
NO_CHARGES


@<TRIPOS>ATOM
      1 C1         45.8800   -8.2790   36.2730 C.3       1 CAM503      0.0000 
      2 C2         45.4110   -7.9920   37.6470 C.2       1 CAM503      0.0000 
      3 O          45.4430   -6.7440   38.2820 O.2       1 CAM503      0.0000 
      4 C3         44.9180   -9.2590   38.2480 C.3       1 CAM503      0.0000 
      5 C4         45.2810  -10.2140   37.1710 C.3       1 CAM503      0.0000 
      6 C5         44.2780   -9.9960   36.0800 C.3       1 CAM503      0.0000 
      7 C6         44.6420   -8.6540   35.5110 C.3       1 CAM503      0.0000 
      8 C7         46.4890   -9.6320   36.4990 C.3       1 CAM503      0.0000 
      9 C8         47.6550   -9.5810   37.4200 C.3       1 CAM503      0.0000 
     10 C9         46.8360  -10.3540   35.2510 C.3       1 CAM503      0.0000 
     11 C10        46.7060   -7.1970   35.6760 C.3       1 CAM503      0.0000 
@<TRIPOS>BOND
     1    1    2 1    
     2    1    7 1    
     3    1    8 1    
     4    1   11 1    
     5    2    3 2    
     6    2    4 1    
     7    4    5 1    
     8    5    6 1    
     9    5    8 1    
    10    6    7 1    
    11    8    9 1    
    12    8   10 1    
@<TRIPOS>SUBSTRUCTURE
     1 CAM503      1 GROUP   
@<TRIPOS>SET

