#    Name: 6nbl_1_CAM_CAVITY_N1_4
#    Modification time : Fri May 22 19:40:46 2020

@<TRIPOS>MOLECULE
6nbl_1_CAM_CAVITY_N1_4
   98     0     4     0     0
SMALL
NO_CHARGES


@<TRIPOS>ATOM
      1 N          44.2500  -11.3700   33.8600 N.am      1 ALA2        0.0000 
      2 N          45.5300  -11.3700   33.0700 N.am      1 ALA2        0.0000 
      3 N          44.9100  -10.5400   34.9200 N.am      1 ALA2        0.0000 
      4 N          46.1900  -10.5400   34.1400 N.am      1 ALA2        0.0000 
      5 N          47.4700  -10.5400   33.3500 N.am      1 ALA2        0.0000 
      6 N          44.4800   -9.2900   34.2100 N.am      1 ALA2        0.0000 
      7 N          45.7600   -9.2900   33.4300 N.am      1 ALA2        0.0000 
      8 N          47.0300   -9.2900   32.6400 N.am      1 ALA2        0.0000 
      9 N          42.7700   -8.0300   34.2900 N.am      1 ALA2        0.0000 
     10 N          46.6000   -8.0400   31.9400 N.am      1 ALA2        0.0000 
     11 N          47.2700  -10.9600   35.9100 N.am      1 ALA2        0.0000 
     12 N          43.0000   -9.7000   37.5500 N.am      1 ALA2        0.0000 
     13 N          44.2800   -9.7000   36.7700 N.am      1 ALA2        0.0000 
     14 N          46.8400   -9.7100   35.2000 N.am      1 ALA2        0.0000 
     15 N          41.2900   -8.4500   37.6300 N.am      1 ALA2        0.0000 
     16 N          42.5700   -8.4500   36.8400 N.am      1 ALA2        0.0000 
     17 N          43.8500   -8.4500   36.0600 N.am      1 ALA2        0.0000 
     18 N          47.6900   -8.4600   33.7100 N.am      1 ALA2        0.0000 
     19 N          42.1400   -7.2000   36.1300 N.am      1 ALA2        0.0000 
     20 N          43.4200   -7.2000   35.3500 N.am      1 ALA2        0.0000 
     21 N          47.9300  -10.1300   36.9800 N.am      1 ALA2        0.0000 
     22 N          47.4900   -8.8800   36.2700 N.am      1 ALA2        0.0000 
     23 N          48.7700   -8.8800   35.4800 N.am      1 ALA2        0.0000 
     24 O          44.7600   -3.8800   40.3900 O.2       1 ALA2        0.0000 
     25 NZ         45.3400  -11.7800   35.6300 N.4       2 LYS4        0.0000 
     26 NZ         45.9900  -10.9500   36.6900 N.4       2 LYS4        0.0000 
     27 NZ         47.2600   -7.2100   33.0000 N.4       2 LYS4        0.0000 
     28 NZ         46.8300   -5.9600   32.2900 N.4       2 LYS4        0.0000 
     29 NZ         47.0800  -11.3700   38.4700 N.4       2 LYS4        0.0000 
     30 NZ         48.3600  -11.3800   37.6800 N.4       2 LYS4        0.0000 
     31 NZ         48.3400   -7.6300   34.7700 N.4       2 LYS4        0.0000 
     32 NZ         47.9100   -6.3800   34.0600 N.4       2 LYS4        0.0000 
     33 NZ         47.4800   -5.1300   33.3600 N.4       2 LYS4        0.0000 
     34 NZ         48.1500   -8.0500   37.3300 N.4       2 LYS4        0.0000 
     35 NZ         47.7200   -6.8000   36.6200 N.4       2 LYS4        0.0000 
     36 NZ         49.8400   -5.5500   34.3500 N.4       2 LYS4        0.0000 
     37 NZ         48.1300   -4.3000   34.4200 N.4       2 LYS4        0.0000 
     38 NZ         47.5200   -7.2100   39.1800 N.4       2 LYS4        0.0000 
     39 NZ         45.8100   -5.9600   39.2500 N.4       2 LYS4        0.0000 
     40 NZ         47.0900   -5.9600   38.4700 N.4       2 LYS4        0.0000 
     41 NZ         47.9400   -4.7200   36.9800 N.4       2 LYS4        0.0000 
     42 NZ         46.4700   -5.1300   40.3200 N.4       2 LYS4        0.0000 
     43 CA         43.8200  -10.1200   33.1500 C.3       3 GLY6        0.0000 
     44 CA         45.1000  -10.1200   32.3600 C.3       3 GLY6        0.0000 
     45 CA         44.6700   -8.8700   31.6500 C.3       3 GLY6        0.0000 
     46 CA         46.6200  -11.7900   34.8500 C.3       3 GLY6        0.0000 
     47 CA         44.0400   -8.0400   33.5000 C.3       3 GLY6        0.0000 
     48 CA         45.3200   -8.0400   32.7200 C.3       3 GLY6        0.0000 
     49 CA         42.3300   -6.7800   33.5800 C.3       3 GLY6        0.0000 
     50 CA         43.6100   -6.7900   32.7900 C.3       3 GLY6        0.0000 
     51 CA         45.5500   -5.9600   33.0700 C.3       3 GLY6        0.0000 
     52 CA         45.3700  -10.1200   38.5400 C.3       3 GLY6        0.0000 
     53 CA         46.6500  -10.1200   37.7600 C.3       3 GLY6        0.0000 
     54 CA         43.6600   -8.8700   38.6200 C.3       3 GLY6        0.0000 
     55 CA         41.9500   -7.6200   38.6900 C.3       3 GLY6        0.0000 
     56 CA         47.7300  -10.5400   39.5300 C.3       3 GLY6        0.0000 
     57 CA         46.0200   -9.2900   39.6100 C.3       3 GLY6        0.0000 
     58 CA         47.3000   -9.2900   38.8200 C.3       3 GLY6        0.0000 
     59 CA         48.5800   -9.3000   38.0400 C.3       3 GLY6        0.0000 
     60 CA         44.3100   -8.0400   39.6800 C.3       3 GLY6        0.0000 
     61 CA         45.5900   -8.0400   38.9000 C.3       3 GLY6        0.0000 
     62 CA         42.6000   -6.7900   39.7600 C.3       3 GLY6        0.0000 
     63 CA         46.2400   -7.2100   39.9600 C.3       3 GLY6        0.0000 
     64 CA         43.2500   -5.9600   40.8200 C.3       3 GLY6        0.0000 
     65 CA         44.5300   -5.9600   40.0400 C.3       3 GLY6        0.0000 
     66 CA         45.1900   -5.1300   41.1000 C.3       3 GLY6        0.0000 
     67 DU         45.5600   -9.7000   35.9900 H         4 CUB7        0.0000 
     68 DU         45.1300   -8.4600   35.2800 H         4 CUB7        0.0000 
     69 DU         46.4100   -8.4600   34.4900 H         4 CUB7        0.0000 
     70 DU         45.9800   -7.2100   33.7800 H         4 CUB7        0.0000 
     71 DU         41.7100   -5.9500   35.4200 H         4 CUB7        0.0000 
     72 DU         42.9900   -5.9500   34.6400 H         4 CUB7        0.0000 
     73 DU         44.2700   -5.9600   33.8600 H         4 CUB7        0.0000 
     74 DU         44.9400   -8.8700   37.8300 H         4 CUB7        0.0000 
     75 DU         46.2200   -8.8700   37.0500 H         4 CUB7        0.0000 
     76 DU         43.2300   -7.6200   37.9100 H         4 CUB7        0.0000 
     77 DU         44.5100   -7.6200   37.1200 H         4 CUB7        0.0000 
     78 DU         47.0600   -7.6300   35.5600 H         4 CUB7        0.0000 
     79 DU         41.5200   -6.3700   37.9800 H         4 CUB7        0.0000 
     80 DU         42.7900   -6.3700   37.2000 H         4 CUB7        0.0000 
     81 DU         46.6300   -6.3800   34.8500 H         4 CUB7        0.0000 
     82 DU         42.3600   -5.1200   36.4900 H         4 CUB7        0.0000 
     83 DU         46.2000   -5.1300   34.1400 H         4 CUB7        0.0000 
     84 DU         46.8700   -8.0400   38.1100 H         4 CUB7        0.0000 
     85 DU         43.8800   -6.7900   38.9700 H         4 CUB7        0.0000 
     86 DU         45.1600   -6.7900   38.1900 H         4 CUB7        0.0000 
     87 DU         46.4400   -6.8000   37.4100 H         4 CUB7        0.0000 
     88 DU         49.0000   -6.8000   35.8400 H         4 CUB7        0.0000 
     89 DU         42.1700   -5.5400   39.0500 H         4 CUB7        0.0000 
     90 DU         46.0100   -5.5500   36.7000 H         4 CUB7        0.0000 
     91 DU         43.0200   -4.2900   37.5500 H         4 CUB7        0.0000 
     92 DU         46.8500   -4.3000   35.2000 H         4 CUB7        0.0000 
     93 DU         42.8200   -4.7100   40.1100 H         4 CUB7        0.0000 
     94 DU         44.1000   -4.7100   39.3300 H         4 CUB7        0.0000 
     95 DU         45.3800   -4.7100   38.5400 H         4 CUB7        0.0000 
     96 DU         43.6700   -3.4600   38.6200 H         4 CUB7        0.0000 
     97 DU         44.9500   -3.4600   37.8300 H         4 CUB7        0.0000 
     98 DU         46.2300   -3.4700   37.0500 H         4 CUB7        0.0000 
@<TRIPOS>BOND
@<TRIPOS>SUBSTRUCTURE
     1 ALA2        1 GROUP   
     2 LYS4       25 GROUP   
     3 GLY6       43 GROUP   
     4 CUB7       67 GROUP   
@<TRIPOS>SET

