#    Name: 6nbl_2_CAM
#    Modification time : Fri May 22 19:40:49 2020

@<TRIPOS>MOLECULE
6nbl_2_CAM
   11    12     1     0     0
SMALL
NO_CHARGES


@<TRIPOS>ATOM
      1 C1         57.3110  -29.3450   -6.6200 C.3       1 CAM503      0.0000 
      2 C2         56.3090  -29.3110   -5.5220 C.2       1 CAM503      0.0000 
      3 O          55.8960  -30.4030   -4.7410 O.2       1 CAM503      0.0000 
      4 C3         55.7820  -27.9250   -5.3890 C.3       1 CAM503      0.0000 
      5 C4         56.5620  -27.2740   -6.4640 C.3       1 CAM503      0.0000 
      6 C5         57.9430  -27.2030   -5.8840 C.3       1 CAM503      0.0000 
      7 C6         58.5010  -28.5750   -6.1320 C.3       1 CAM503      0.0000 
      8 C7         56.7400  -28.3140   -7.5420 C.3       1 CAM503      0.0000 
      9 C8         55.4490  -28.7530   -8.1280 C.3       1 CAM503      0.0000 
     10 C9         57.6500  -27.8870   -8.6400 C.3       1 CAM503      0.0000 
     11 C10        57.5870  -30.7100   -7.1360 C.3       1 CAM503      0.0000 
@<TRIPOS>BOND
     1    1    2 1    
     2    1    7 1    
     3    1    8 1    
     4    1   11 1    
     5    2    3 2    
     6    2    4 1    
     7    4    5 1    
     8    5    6 1    
     9    5    8 1    
    10    6    7 1    
    11    8    9 1    
    12    8   10 1    
@<TRIPOS>SUBSTRUCTURE
     1 CAM503      1 GROUP   
@<TRIPOS>SET

