#    Name: 6r46_1_NAP
#    Modification time : Fri May 22 19:28:09 2020

@<TRIPOS>MOLECULE
6r46_1_NAP
   48    52     1     0     1
SMALL
NO_CHARGES


@<TRIPOS>ATOM
      1 PA        -52.6150  -28.9520   -7.9280 P.3       1 NAP401      0.0000 
      2 O1A       -53.7180  -29.5770   -7.0970 O.co2     1 NAP401      0.0000 
      3 O2A       -52.5350  -27.4410   -7.9940 O.co2     1 NAP401      0.0000 
      4 O5B       -52.7720  -29.5040   -9.4540 O.3       1 NAP401      0.0000 
      5 C5B       -51.8270  -30.3180  -10.1710 C.3       1 NAP401      0.0000 
      6 C4B       -50.6300  -29.5270  -10.7150 C.3       1 NAP401      0.0000 
      7 O4B       -49.9640  -30.2910  -11.7240 O.3       1 NAP401      0.0000 
      8 C3B       -50.9710  -28.1840  -11.3700 C.3       1 NAP401      0.0000 
      9 O3B       -50.0580  -27.1820  -10.8880 O.3       1 NAP401      0.0000 
     10 C2B       -50.8290  -28.3820  -12.8760 C.3       1 NAP401      0.0000 
     11 O2B       -50.4690  -27.1260  -13.5130 O.3       1 NAP401      0.0000 
     12 C1B       -49.7900  -29.5150  -12.9330 C.3       1 NAP401      0.0000 
     13 N9A       -49.8290  -30.4590  -14.0970 N.pl3     1 NAP401      0.0000 
     14 C8A       -50.8170  -31.3600  -14.2740 C.2       1 NAP401      0.0000 
     15 N7A       -50.5860  -32.1140  -15.3830 N.2       1 NAP401      0.0000 
     16 C5A       -49.4180  -31.7130  -15.9310 C.ar      1 NAP401      0.0000 
     17 C6A       -48.6270  -32.1130  -17.1280 C.ar      1 NAP401      0.0000 
     18 N6A       -49.1270  -33.1250  -17.9010 N.pl3     1 NAP401      0.0000 
     19 N1A       -47.4480  -31.4440  -17.3630 N.ar      1 NAP401      0.0000 
     20 C2A       -47.0100  -30.4420  -16.5710 C.ar      1 NAP401      0.0000 
     21 N3A       -47.7080  -30.0350  -15.4900 N.ar      1 NAP401      0.0000 
     22 C4A       -48.8970  -30.6160  -15.0910 C.ar      1 NAP401      0.0000 
     23 O3        -51.1930  -29.5360   -7.3920 O.3       1 NAP401      0.0000 
     24 PN        -50.1780  -28.7310   -6.4120 P.3       1 NAP401      0.0000 
     25 O1N       -51.0000  -28.0660   -5.3330 O.co2     1 NAP401      0.0000 
     26 O2N       -49.2780  -27.8830   -7.2970 O.co2     1 NAP401      0.0000 
     27 O5D       -49.2900  -29.8950   -5.7010 O.3       1 NAP401      0.0000 
     28 C5D       -49.6370  -30.5330   -4.4600 C.3       1 NAP401      0.0000 
     29 C4D       -48.5340  -31.5150   -4.0560 C.3       1 NAP401      0.0000 
     30 O4D       -48.8190  -32.2220   -2.8300 O.3       1 NAP401      0.0000 
     31 C3D       -48.3300  -32.5680   -5.1400 C.3       1 NAP401      0.0000 
     32 O3D       -47.0780  -32.3680   -5.8030 O.3       1 NAP401      0.0000 
     33 C2D       -48.3880  -33.9090   -4.4320 C.3       1 NAP401      0.0000 
     34 O2D       -47.2710  -34.7160   -4.8050 O.3       1 NAP401      0.0000 
     35 C1D       -48.3960  -33.6010   -2.9310 C.3       1 NAP401      0.0000 
     36 N1N       -49.2320  -34.5950   -2.2030 N.pl3     1 NAP401      0.0000 
     37 C2N       -50.3590  -34.2300   -1.5370 C.ar      1 NAP401      0.0000 
     38 C3N       -51.1450  -35.1760   -0.8600 C.ar      1 NAP401      0.0000 
     39 C7N       -52.3910  -34.7380   -0.1270 C.2       1 NAP401      0.0000 
     40 O7N       -52.6230  -35.1970    0.9780 O.2       1 NAP401      0.0000 
     41 N7N       -53.2220  -33.8540   -0.6830 N.am      1 NAP401      0.0000 
     42 C4N       -50.7490  -36.5210   -0.8660 C.ar      1 NAP401      0.0000 
     43 C5N       -49.5860  -36.8870   -1.5470 C.ar      1 NAP401      0.0000 
     44 C6N       -48.8460  -35.9010   -2.2090 C.ar      1 NAP401      0.0000 
     45 P2B       -50.2960  -26.9190  -15.1180 P.3       1 NAP401      0.0000 
     46 O1X       -48.8090  -27.1670  -15.3270 O.co2     1 NAP401      0.0000 
     47 O2X       -50.7040  -25.5110  -15.4880 O.co2     1 NAP401      0.0000 
     48 O3X       -51.2680  -27.9250  -15.7060 O.co2     1 NAP401      0.0000 
@<TRIPOS>BOND
     1    1    2 ar   
     2    1    3 ar   
     3    1    4 1    
     4    1   23 1    
     5    4    5 1    
     6    5    6 1    
     7    6    7 1    
     8    6    8 1    
     9    7   12 1    
    10    8    9 1    
    11    8   10 1    
    12   10   11 1    
    13   10   12 1    
    14   11   45 1    
    15   12   13 1    
    16   13   14 1    
    17   13   22 1    
    18   14   15 2    
    19   15   16 1    
    20   16   17 ar   
    21   16   22 ar   
    22   17   18 1    
    23   17   19 ar   
    24   19   20 ar   
    25   20   21 ar   
    26   21   22 ar   
    27   23   24 1    
    28   24   25 ar   
    29   24   26 ar   
    30   24   27 1    
    31   27   28 1    
    32   28   29 1    
    33   29   30 1    
    34   29   31 1    
    35   30   35 1    
    36   31   32 1    
    37   31   33 1    
    38   33   34 1    
    39   33   35 1    
    40   35   36 1    
    41   36   37 ar   
    42   36   44 ar   
    43   37   38 ar   
    44   38   39 1    
    45   38   42 ar   
    46   39   40 2    
    47   39   41 am   
    48   42   43 ar   
    49   43   44 ar   
    50   45   46 ar   
    51   45   47 ar   
    52   45   48 ar   
@<TRIPOS>SUBSTRUCTURE
     1 NAP401      1 GROUP   
@<TRIPOS>SET
ATOM$ORANGE STATIC     ATOMS   COLORGROUP SYSTEM 
42 5 5 6 6 8 8 10 10 12 12 14 14 16 16 17 17 20 \
20 22 22 28 28 29 29 31 31 33 33 35 35 37 37 38 38 39 \
39 42 42 43 43 44 44 

