#    Name: 6sdd_1_353
#    Modification time : Fri May 22 19:33:13 2020

@<TRIPOS>MOLECULE
6sdd_1_353
   36    39     1     0     0
SMALL
NO_CHARGES


@<TRIPOS>ATOM
      1 C1         -9.5880   -4.7460    7.1810 C.ar      1 3531401     0.0000 
      2 C2        -11.2320   -6.5110    7.0760 C.ar      1 3531401     0.0000 
      3 C3        -14.0200   -6.0400   13.1730 C.ar      1 3531401     0.0000 
      4 C4        -14.4580   -6.5540   14.3830 C.ar      1 3531401     0.0000 
      5 C5         -8.5980   -5.6440    6.8120 C.ar      1 3531401     0.0000 
      6 C6        -10.2480   -7.4120    6.7080 C.ar      1 3531401     0.0000 
      7 C7        -17.1580   -8.3910   15.1180 C.ar      1 3531401     0.0000 
      8 C8        -15.8280   -4.4460   13.1800 C.ar      1 3531401     0.0000 
      9 C9        -17.7320   -9.6420   15.2660 C.ar      1 3531401     0.0000 
     10 C10       -10.9090   -5.1760    7.3180 C.ar      1 3531401     0.0000 
     11 C11       -14.6980   -4.9870   12.5650 C.ar      1 3531401     0.0000 
     12 C12       -15.5840   -6.0200   15.0010 C.ar      1 3531401     0.0000 
     13 C13       -16.6660   -7.7670   16.2590 C.ar      1 3531401     0.0000 
     14 C14        -8.9560   -6.9540    6.5860 C.ar      1 3531401     0.0000 
     15 C15       -16.2420   -4.9770   14.3790 C.ar      1 3531401     0.0000 
     16 C16       -16.7660   -8.4100   17.4970 C.ar      1 3531401     0.0000 
     17 C17       -17.3650   -9.6770   17.5480 C.ar      1 3531401     0.0000 
     18 C18       -13.1850   -2.2840    7.1050 C.2       1 3531401     0.0000 
     19 C19       -12.2340   -3.1940    6.8320 C.2       1 3531401     0.0000 
     20 C20       -13.6570   -3.4660    9.2400 C.2       1 3531401     0.0000 
     21 C21       -13.9300   -2.4020    8.3310 C.2       1 3531401     0.0000 
     22 C22       -12.6180   -4.4460    8.9290 C.2       1 3531401     0.0000 
     23 C23       -14.4480   -3.5370   10.5040 C.2       1 3531401     0.0000 
     24 C24       -16.3450   -0.9920    6.6320 C.3       1 3531401     0.0000 
     25 C25       -15.2390   -0.4600    7.5050 C.3       1 3531401     0.0000 
     26 N26       -17.8430  -10.2850   16.4390 N.ar      1 3531401     0.0000 
     27 N27       -11.9420   -4.2450    7.6980 N.am      1 3531401     0.0000 
     28 N28       -17.4740  -10.3190   18.7140 N.pl3     1 3531401     0.0000 
     29 N29       -14.1340   -4.5740   11.3320 N.am      1 3531401     0.0000 
     30 O30       -12.3140   -5.3950    9.6510 O.2       1 3531401     0.0000 
     31 O31       -15.3140   -2.7040   10.7640 O.2       1 3531401     0.0000 
     32 O32       -16.0680   -6.5060   16.2150 O.3       1 3531401     0.0000 
     33 O33       -14.8840   -1.4440    8.5400 O.3       1 3531401     0.0000 
     34 F34        -7.9890   -7.8360    6.2240 F         1 3531401     0.0000 
     35 F35       -17.3370   -4.4630   14.9860 F         1 3531401     0.0000 
     36 CL36      -16.1530   -7.6340   18.9050 Cl        1 3531401     0.0000 
@<TRIPOS>BOND
     1    1    5 ar   
     2    1   10 ar   
     3    2    6 ar   
     4    2   10 ar   
     5    3    4 ar   
     6    3   11 ar   
     7    4   12 ar   
     8    5   14 ar   
     9    6   14 ar   
    10    7    9 ar   
    11    7   13 ar   
    12    8   11 ar   
    13    8   15 ar   
    14    9   26 ar   
    15   10   27 1    
    16   11   29 1    
    17   12   15 ar   
    18   12   32 1    
    19   13   16 ar   
    20   13   32 1    
    21   14   34 1    
    22   15   35 1    
    23   16   17 ar   
    24   16   36 1    
    25   17   26 ar   
    26   17   28 1    
    27   18   19 2    
    28   18   21 1    
    29   19   27 1    
    30   20   21 2    
    31   20   22 1    
    32   20   23 1    
    33   21   33 1    
    34   22   27 am   
    35   22   30 2    
    36   23   29 am   
    37   23   31 2    
    38   24   25 1    
    39   25   33 1    
@<TRIPOS>SUBSTRUCTURE
     1 3531401     1 GROUP   
@<TRIPOS>SET

