#    Name: 6vvo_1_AGS
#    Modification time : Fri May 22 19:26:40 2020

@<TRIPOS>MOLECULE
6vvo_1_AGS
   31    33     1     0     0
SMALL
NO_CHARGES


@<TRIPOS>ATOM
      1 PG        153.2000  134.2650  124.1050 P.3       1 AGS1202     0.0000 
      2 S1G       152.6130  132.8810  125.3260 S.2       1 AGS1202     0.0000 
      3 O2G       152.3340  135.5240  124.3640 O.3       1 AGS1202     0.0000 
      4 O3G       153.0330  133.7660  122.6440 O.3       1 AGS1202     0.0000 
      5 PB        155.7950  134.1810  123.3310 P.3       1 AGS1202     0.0000 
      6 O1B       155.2050  133.8730  122.0210 O.co2     1 AGS1202     0.0000 
      7 O2B       156.6110  133.1010  124.0230 O.co2     1 AGS1202     0.0000 
      8 O3B       154.6800  134.6580  124.3220 O.3       1 AGS1202     0.0000 
      9 PA        157.6610  135.5490  121.8860 P.3       1 AGS1202     0.0000 
     10 O1A       156.8710  135.9400  120.7290 O.co2     1 AGS1202     0.0000 
     11 O2A       158.5490  134.3190  121.7740 O.co2     1 AGS1202     0.0000 
     12 O3A       156.7630  135.3900  123.1520 O.3       1 AGS1202     0.0000 
     13 O5'       158.4680  136.8200  122.2490 O.3       1 AGS1202     0.0000 
     14 C5'       158.0120  138.0620  121.7240 C.3       1 AGS1202     0.0000 
     15 C4'       159.1810  138.9960  121.6210 C.3       1 AGS1202     0.0000 
     16 O4'       159.8390  139.0590  122.8970 O.3       1 AGS1202     0.0000 
     17 C3'       160.2460  138.6220  120.6010 C.3       1 AGS1202     0.0000 
     18 O3'       160.0230  139.3140  119.3800 O.3       1 AGS1202     0.0000 
     19 C2'       161.5510  139.0730  121.2550 C.3       1 AGS1202     0.0000 
     20 O2'       161.8470  140.4080  120.8760 O.3       1 AGS1202     0.0000 
     21 C1'       161.2400  139.0500  122.7470 C.3       1 AGS1202     0.0000 
     22 N9        161.7480  137.8740  123.4280 N.pl3     1 AGS1202     0.0000 
     23 C8        161.0220  136.9510  124.1280 C.2       1 AGS1202     0.0000 
     24 N7        161.7420  135.9930  124.6520 N.2       1 AGS1202     0.0000 
     25 C5        163.0350  136.3120  124.2760 C.ar      1 AGS1202     0.0000 
     26 C6        164.2690  135.6900  124.5190 C.ar      1 AGS1202     0.0000 
     27 N6        164.4070  134.5690  125.2280 N.pl3     1 AGS1202     0.0000 
     28 N1        165.3720  136.2680  124.0040 N.ar      1 AGS1202     0.0000 
     29 C2        165.2390  137.3910  123.2960 C.ar      1 AGS1202     0.0000 
     30 N3        164.1300  138.0690  123.0030 N.ar      1 AGS1202     0.0000 
     31 C4        163.0540  137.4720  123.5270 C.ar      1 AGS1202     0.0000 
@<TRIPOS>BOND
     1    1    2 2    
     2    1    3 1    
     3    1    4 1    
     4    1    8 1    
     5    5    6 ar   
     6    5    7 ar   
     7    5    8 1    
     8    5   12 1    
     9    9   10 ar   
    10    9   11 ar   
    11    9   12 1    
    12    9   13 1    
    13   13   14 1    
    14   14   15 1    
    15   15   16 1    
    16   15   17 1    
    17   16   21 1    
    18   17   18 1    
    19   17   19 1    
    20   19   20 1    
    21   19   21 1    
    22   21   22 1    
    23   22   23 1    
    24   22   31 1    
    25   23   24 2    
    26   24   25 1    
    27   25   26 ar   
    28   25   31 ar   
    29   26   27 1    
    30   26   28 ar   
    31   28   29 ar   
    32   29   30 ar   
    33   30   31 ar   
@<TRIPOS>SUBSTRUCTURE
     1 AGS1202     1 GROUP   
@<TRIPOS>SET

