#    Name: 6vvo_3_AGS
#    Modification time : Fri May 22 19:26:47 2020

@<TRIPOS>MOLECULE
6vvo_3_AGS
   31    33     1     0     0
SMALL
NO_CHARGES


@<TRIPOS>ATOM
      1 PG        108.3850  150.5170  140.7090 P.3       1 AGS402      0.0000 
      2 S1G       110.1880  151.0770  141.1550 S.2       1 AGS402      0.0000 
      3 O2G       108.1200  149.1160  141.3190 O.3       1 AGS402      0.0000 
      4 O3G       108.1900  150.4610  139.1690 O.3       1 AGS402      0.0000 
      5 PB        106.8900  152.6890  140.3280 P.3       1 AGS402      0.0000 
      6 O1B       106.7400  152.1810  138.9530 O.co2     1 AGS402      0.0000 
      7 O2B       107.9050  153.8190  140.4670 O.co2     1 AGS402      0.0000 
      8 O3B       107.3610  151.5290  141.2720 O.3       1 AGS402      0.0000 
      9 PA        104.2960  153.4790  139.9230 P.3       1 AGS402      0.0000 
     10 O1A       103.9290  152.2690  139.1780 O.co2     1 AGS402      0.0000 
     11 O2A       104.5990  154.7230  139.0910 O.co2     1 AGS402      0.0000 
     12 O3A       105.5170  153.2200  140.8870 O.3       1 AGS402      0.0000 
     13 O5'       103.1140  153.7320  140.9170 O.3       1 AGS402      0.0000 
     14 C5'       102.2400  152.6490  141.2430 C.3       1 AGS402      0.0000 
     15 C4'       100.8660  153.2040  141.5040 C.3       1 AGS402      0.0000 
     16 O4'       100.9140  154.1200  142.6120 O.3       1 AGS402      0.0000 
     17 C3'       100.2390  153.9490  140.3300 C.3       1 AGS402      0.0000 
     18 O3'        99.3270  153.1070  139.6370 O.3       1 AGS402      0.0000 
     19 C2'        99.5170  155.1390  140.9720 C.3       1 AGS402      0.0000 
     20 O2'        98.1320  154.8730  141.1350 O.3       1 AGS402      0.0000 
     21 C1'       100.1750  155.2920  142.3420 C.3       1 AGS402      0.0000 
     22 N9        101.0580  156.4420  142.4550 N.pl3     1 AGS402      0.0000 
     23 C8        102.3830  156.4400  142.7940 C.2       1 AGS402      0.0000 
     24 N7        102.9250  157.6330  142.8390 N.2       1 AGS402      0.0000 
     25 C5        101.8760  158.4780  142.5220 C.ar      1 AGS402      0.0000 
     26 C6        101.7910  159.8790  142.4020 C.ar      1 AGS402      0.0000 
     27 N6        102.8210  160.7040  142.5960 N.pl3     1 AGS402      0.0000 
     28 N1        100.5960  160.4080  142.0730 N.ar      1 AGS402      0.0000 
     29 C2         99.5620  159.5870  141.8790 C.ar      1 AGS402      0.0000 
     30 N3         99.5200  158.2560  141.9630 N.ar      1 AGS402      0.0000 
     31 C4        100.7170  157.7610  142.2870 C.ar      1 AGS402      0.0000 
@<TRIPOS>BOND
     1    1    2 2    
     2    1    3 1    
     3    1    4 1    
     4    1    8 1    
     5    5    6 ar   
     6    5    7 ar   
     7    5    8 1    
     8    5   12 1    
     9    9   10 ar   
    10    9   11 ar   
    11    9   12 1    
    12    9   13 1    
    13   13   14 1    
    14   14   15 1    
    15   15   16 1    
    16   15   17 1    
    17   16   21 1    
    18   17   18 1    
    19   17   19 1    
    20   19   20 1    
    21   19   21 1    
    22   21   22 1    
    23   22   23 1    
    24   22   31 1    
    25   23   24 2    
    26   24   25 1    
    27   25   26 ar   
    28   25   31 ar   
    29   26   27 1    
    30   26   28 ar   
    31   28   29 ar   
    32   29   30 ar   
    33   30   31 ar   
@<TRIPOS>SUBSTRUCTURE
     1 AGS402      1 GROUP   
@<TRIPOS>SET

