#    Name: 6vvo_5_ADP
#    Modification time : Fri May 22 19:27:04 2020

@<TRIPOS>MOLECULE
6vvo_5_ADP
   27    29     1     0     1
SMALL
NO_CHARGES


@<TRIPOS>ATOM
      1 PB        138.2510  107.5470  156.9780 P.3       1 ADP2000     0.0000 
      2 O1B       137.4190  107.5640  155.7300 O.co2     1 ADP2000     0.0000 
      3 O2B       137.6430  108.2290  158.1670 O.co2     1 ADP2000     0.0000 
      4 O3B       139.6950  107.8980  156.7710 O.co2     1 ADP2000     0.0000 
      5 PA        138.9020  104.9400  156.3660 P.3       1 ADP2000     0.0000 
      6 O1A       139.3490  105.6710  155.1340 O.co2     1 ADP2000     0.0000 
      7 O2A       138.0050  103.7420  156.2420 O.co2     1 ADP2000     0.0000 
      8 O3A       138.3000  106.0040  157.3980 O.3       1 ADP2000     0.0000 
      9 O5'       140.2490  104.4540  157.0680 O.3       1 ADP2000     0.0000 
     10 C5'       141.1320  103.8040  156.1740 C.3       1 ADP2000     0.0000 
     11 C4'       141.9260  102.6870  156.8190 C.3       1 ADP2000     0.0000 
     12 O4'       141.4860  102.5050  158.1610 O.3       1 ADP2000     0.0000 
     13 C3'       141.7730  101.3450  156.1430 C.3       1 ADP2000     0.0000 
     14 O3'       142.7060  101.2170  155.0760 O.3       1 ADP2000     0.0000 
     15 C2'       142.1480  100.4290  157.2700 C.3       1 ADP2000     0.0000 
     16 O2'       143.5650  100.3590  157.2750 O.3       1 ADP2000     0.0000 
     17 C1'       141.6420  101.1310  158.5080 C.3       1 ADP2000     0.0000 
     18 N9        140.3830  100.5040  158.9590 N.pl3     1 ADP2000     0.0000 
     19 C8        139.1760  101.0740  159.0150 C.2       1 ADP2000     0.0000 
     20 N7        138.2460  100.1960  159.4620 N.2       1 ADP2000     0.0000 
     21 C5        138.8650   99.0310  159.6830 C.ar      1 ADP2000     0.0000 
     22 C6        138.4750   97.6900  160.1560 C.ar      1 ADP2000     0.0000 
     23 N6        137.1950   97.4230  160.4890 N.pl3     1 ADP2000     0.0000 
     24 N1        139.4260   96.7420  160.2430 N.ar      1 ADP2000     0.0000 
     25 C2        140.6980   97.0020  159.9130 C.ar      1 ADP2000     0.0000 
     26 N3        141.1210   98.1980  159.4760 N.ar      1 ADP2000     0.0000 
     27 C4        140.2660   99.2330  159.3280 C.ar      1 ADP2000     0.0000 
@<TRIPOS>BOND
     1    1    2 ar   
     2    1    3 ar   
     3    1    4 ar   
     4    1    8 1    
     5    5    6 ar   
     6    5    7 ar   
     7    5    8 1    
     8    5    9 1    
     9    9   10 1    
    10   10   11 1    
    11   11   12 1    
    12   11   13 1    
    13   12   17 1    
    14   13   14 1    
    15   13   15 1    
    16   15   16 1    
    17   15   17 1    
    18   17   18 1    
    19   18   19 1    
    20   18   27 1    
    21   19   20 2    
    22   20   21 1    
    23   21   22 ar   
    24   21   27 ar   
    25   22   23 1    
    26   22   24 ar   
    27   24   25 ar   
    28   25   26 ar   
    29   26   27 ar   
@<TRIPOS>SUBSTRUCTURE
     1 ADP2000     1 GROUP   
@<TRIPOS>SET
ATOM$ORANGE STATIC     ATOMS   COLORGROUP SYSTEM 
20 10 10 11 11 13 13 15 15 17 17 19 19 21 21 22 22 25 \
25 27 27 

