#    Name: 6vvo_4_AGS
#    Modification time : Fri May 22 19:26:55 2020

@<TRIPOS>MOLECULE
6vvo_4_AGS
   31    33     1     0     0
SMALL
NO_CHARGES


@<TRIPOS>ATOM
      1 PG        108.2090  120.8490  156.6390 P.3       1 AGS402      0.0000 
      2 S1G       108.4160  122.7700  156.8670 S.2       1 AGS402      0.0000 
      3 O2G       109.5390  120.1500  157.0210 O.3       1 AGS402      0.0000 
      4 O3G       107.8700  120.5430  155.1540 O.3       1 AGS402      0.0000 
      5 PB        105.6430  120.1130  156.8720 P.3       1 AGS402      0.0000 
      6 O1B       104.8880  121.3620  156.9510 O.co2     1 AGS402      0.0000 
      7 O2B       105.8940  119.6480  155.4390 O.co2     1 AGS402      0.0000 
      8 O3B       107.0560  120.3170  157.5320 O.3       1 AGS402      0.0000 
      9 PA        103.9650  117.9770  156.7050 P.3       1 AGS402      0.0000 
     10 O1A       102.8510  118.6800  156.0580 O.co2     1 AGS402      0.0000 
     11 O2A       104.9230  117.3470  155.6950 O.co2     1 AGS402      0.0000 
     12 O3A       104.8370  118.9630  157.5790 O.3       1 AGS402      0.0000 
     13 O5'       103.4180  116.8980  157.7310 O.3       1 AGS402      0.0000 
     14 C5'       104.2490  115.7510  157.9720 C.3       1 AGS402      0.0000 
     15 C4'       103.4740  114.5050  158.3210 C.3       1 AGS402      0.0000 
     16 O4'       102.9460  114.5930  159.6550 O.3       1 AGS402      0.0000 
     17 C3'       102.3360  114.1180  157.3810 C.3       1 AGS402      0.0000 
     18 O3'       102.6420  112.8790  156.7550 O.3       1 AGS402      0.0000 
     19 C2'       101.0950  113.9720  158.2770 C.3       1 AGS402      0.0000 
     20 O2'       100.5750  112.6500  158.2190 O.3       1 AGS402      0.0000 
     21 C1'       101.5720  114.2850  159.6980 C.3       1 AGS402      0.0000 
     22 N9        100.8640  115.3690  160.3680 N.pl3     1 AGS402      0.0000 
     23 C8        101.4240  116.3750  161.1060 C.2       1 AGS402      0.0000 
     24 N7        100.5520  117.2050  161.6270 N.2       1 AGS402      0.0000 
     25 C5         99.3300  116.6870  161.2290 C.ar      1 AGS402      0.0000 
     26 C6         98.0050  117.1030  161.4610 C.ar      1 AGS402      0.0000 
     27 N6         97.6790  118.1810  162.1770 N.pl3     1 AGS402      0.0000 
     28 N1         97.0130  116.3620  160.9220 N.ar      1 AGS402      0.0000 
     29 C2         97.3340  115.2840  160.2040 C.ar      1 AGS402      0.0000 
     30 N3         98.5430  114.7950  159.9190 N.ar      1 AGS402      0.0000 
     31 C4         99.5050  115.5480  160.4650 C.ar      1 AGS402      0.0000 
@<TRIPOS>BOND
     1    1    2 2    
     2    1    3 1    
     3    1    4 1    
     4    1    8 1    
     5    5    6 ar   
     6    5    7 ar   
     7    5    8 1    
     8    5   12 1    
     9    9   10 ar   
    10    9   11 ar   
    11    9   12 1    
    12    9   13 1    
    13   13   14 1    
    14   14   15 1    
    15   15   16 1    
    16   15   17 1    
    17   16   21 1    
    18   17   18 1    
    19   17   19 1    
    20   19   20 1    
    21   19   21 1    
    22   21   22 1    
    23   22   23 1    
    24   22   31 1    
    25   23   24 2    
    26   24   25 1    
    27   25   26 ar   
    28   25   31 ar   
    29   26   27 1    
    30   26   28 ar   
    31   28   29 ar   
    32   29   30 ar   
    33   30   31 ar   
@<TRIPOS>SUBSTRUCTURE
     1 AGS402      1 GROUP   
@<TRIPOS>SET

