#    Name: 5zss_1_C6P
#    Modification time : Fri May 22 19:31:30 2020

@<TRIPOS>MOLECULE
5zss_1_C6P
   22    22     1     0     0
SMALL
NO_CHARGES


@<TRIPOS>ATOM
      1 N          15.7690   71.0090    5.3640 N.4       1 C6P501      0.0000 
      2 C          13.6790   72.5000    5.8800 C.2       1 C6P501      0.0000 
      3 O          14.1480   73.6550    5.6750 O.co2     1 C6P501      0.0000 
      4 P          18.3160   66.6610    2.5630 P.3       1 C6P501      0.0000 
      5 OP3        18.3100   66.2370    1.1040 O.co2     1 C6P501      0.0000 
      6 OP1        17.0680   66.1680    3.2550 O.co2     1 C6P501      0.0000 
      7 OP2        19.5250   66.0760    3.2680 O.co2     1 C6P501      0.0000 
      8 OP4        18.3560   68.3080    2.7150 O.3       1 C6P501      0.0000 
      9 C5M        18.5130   68.8240    4.0080 C.3       1 C6P501      0.0000 
     10 C5         18.7940   70.3240    3.9470 C.ar      1 C6P501      0.0000 
     11 C6         20.1020   70.7910    3.8830 C.ar      1 C6P501      0.0000 
     12 N1         20.3520   72.1210    3.8340 N.ar      1 C6P501      0.0000 
     13 C2         19.3280   73.0010    3.8530 C.ar      1 C6P501      0.0000 
     14 C2A        19.6290   74.4960    3.8000 C.3       1 C6P501      0.0000 
     15 C3         18.0170   72.5440    3.9190 C.ar      1 C6P501      0.0000 
     16 O3         16.9770   73.4840    3.9360 O.3       1 C6P501      0.0000 
     17 C4         17.7580   71.2010    3.9680 C.ar      1 C6P501      0.0000 
     18 C4A        16.3260   70.6500    4.0600 C.3       1 C6P501      0.0000 
     19 CA         14.3830   71.2780    5.3730 C.3       1 C6P501      0.0000 
     20 OXT        12.6020   72.4130    6.5340 O.co2     1 C6P501      0.0000 
     21 CB         13.7050   70.0600    5.8860 C.3       1 C6P501      0.0000 
     22 SG         14.8200   69.0640    6.9300 S.3       1 C6P501      0.0000 
@<TRIPOS>BOND
     1    1   18 1    
     2    1   19 1    
     3    2    3 ar   
     4    2   19 1    
     5    2   20 ar   
     6    4    5 ar   
     7    4    6 ar   
     8    4    7 ar   
     9    4    8 1    
    10    8    9 1    
    11    9   10 1    
    12   10   11 ar   
    13   10   17 ar   
    14   11   12 ar   
    15   12   13 ar   
    16   13   14 1    
    17   13   15 ar   
    18   15   16 1    
    19   15   17 ar   
    20   17   18 1    
    21   19   21 1    
    22   21   22 1    
@<TRIPOS>SUBSTRUCTURE
     1 C6P501      1 GROUP   
@<TRIPOS>SET

