#    Name: 6npe_1_STI
#    Modification time : Fri May 22 19:35:26 2020

@<TRIPOS>MOLECULE
6npe_1_STI
   37    41     1     0     0
SMALL
NO_CHARGES


@<TRIPOS>ATOM
      1 C1         11.6770    2.5760  -10.4450 C.ar      1 STI603      0.0000 
      2 C6         12.0580    1.2960  -10.1000 C.ar      1 STI603      0.0000 
      3 C5         13.3150    1.0630   -9.5850 C.ar      1 STI603      0.0000 
      4 C4         14.1490    2.1550   -9.4610 C.ar      1 STI603      0.0000 
      5 N3         13.8200    3.4110   -9.7940 N.ar      1 STI603      0.0000 
      6 C2         12.5870    3.5930  -10.2720 C.ar      1 STI603      0.0000 
      7 C7         13.7310   -0.2750   -9.2190 C.ar      1 STI603      0.0000 
      8 C12        12.8600   -1.3430   -9.2830 C.ar      1 STI603      0.0000 
      9 C11        13.3830   -2.5730   -8.9440 C.ar      1 STI603      0.0000 
     10 N10        14.6610   -2.7630   -8.5950 N.ar      1 STI603      0.0000 
     11 C9         15.4320   -1.6640   -8.5590 C.ar      1 STI603      0.0000 
     12 N8         15.0110   -0.4250   -8.8540 N.ar      1 STI603      0.0000 
     13 N13        16.7830   -1.7730   -8.1940 N.pl3     1 STI603      0.0000 
     14 C14        17.4340   -2.9780   -7.8790 C.ar      1 STI603      0.0000 
     15 C19        17.4020   -3.4150   -6.5660 C.ar      1 STI603      0.0000 
     16 C18        18.0400   -4.5850   -6.2140 C.ar      1 STI603      0.0000 
     17 C17        18.7070   -5.3150   -7.1800 C.ar      1 STI603      0.0000 
     18 C16        18.7500   -4.8910   -8.4860 C.ar      1 STI603      0.0000 
     19 C15        18.1130   -3.7130   -8.8370 C.ar      1 STI603      0.0000 
     20 N21        19.4670   -5.6960   -9.4050 N.am      1 STI603      0.0000 
     21 C22        19.7280   -5.3350  -10.7100 C.2       1 STI603      0.0000 
     22 C23        20.7710   -6.1170  -11.4020 C.ar      1 STI603      0.0000 
     23 C25        21.3070   -5.5960  -12.5570 C.ar      1 STI603      0.0000 
     24 C26        22.2790   -6.2940  -13.2460 C.ar      1 STI603      0.0000 
     25 C27        22.7140   -7.5130  -12.7740 C.ar      1 STI603      0.0000 
     26 C28        22.1710   -8.0290  -11.6100 C.ar      1 STI603      0.0000 
     27 C29        21.1930   -7.3360  -10.9130 C.ar      1 STI603      0.0000 
     28 C46        23.7710   -8.2540  -13.5330 C.3       1 STI603      0.0000 
     29 N48        23.3720   -9.6680  -13.7920 N.4       1 STI603      0.0000 
     30 C53        22.1930   -9.8200  -14.6810 C.3       1 STI603      0.0000 
     31 C52        21.7100  -11.2540  -14.6340 C.3       1 STI603      0.0000 
     32 N51        22.8610  -12.1720  -14.8510 N.3       1 STI603      0.0000 
     33 C54        22.5650  -13.3520  -15.6980 C.3       1 STI603      0.0000 
     34 C50        24.1490  -11.5350  -15.1850 C.3       1 STI603      0.0000 
     35 C49        24.5250  -10.5520  -14.1020 C.3       1 STI603      0.0000 
     36 O29        19.1650   -4.4460  -11.3260 O.2       1 STI603      0.0000 
     37 C20        16.6840   -2.6250   -5.5150 C.3       1 STI603      0.0000 
@<TRIPOS>BOND
     1    1    2 ar   
     2    1    6 ar   
     3    2    3 ar   
     4    3    4 ar   
     5    3    7 1    
     6    4    5 ar   
     7    5    6 ar   
     8    7    8 ar   
     9    7   12 ar   
    10    8    9 ar   
    11    9   10 ar   
    12   10   11 ar   
    13   11   12 ar   
    14   11   13 1    
    15   13   14 1    
    16   14   15 ar   
    17   14   19 ar   
    18   15   16 ar   
    19   15   37 1    
    20   16   17 ar   
    21   17   18 ar   
    22   18   19 ar   
    23   18   20 1    
    24   20   21 am   
    25   21   22 1    
    26   21   36 2    
    27   22   23 ar   
    28   22   27 ar   
    29   23   24 ar   
    30   24   25 ar   
    31   25   26 ar   
    32   25   28 1    
    33   26   27 ar   
    34   28   29 1    
    35   29   30 1    
    36   29   35 1    
    37   30   31 1    
    38   31   32 1    
    39   32   33 1    
    40   32   34 1    
    41   34   35 1    
@<TRIPOS>SUBSTRUCTURE
     1 STI603      1 GROUP   
@<TRIPOS>SET

