#    Name: 6npe_2_STI
#    Modification time : Fri May 22 19:35:30 2020

@<TRIPOS>MOLECULE
6npe_2_STI
   37    41     1     0     0
SMALL
NO_CHARGES


@<TRIPOS>ATOM
      1 C1         23.4500   41.8910   -3.0770 C.ar      1 STI603      0.0000 
      2 C6         22.5090   42.0550   -2.0920 C.ar      1 STI603      0.0000 
      3 C5         22.7820   41.5610   -0.8400 C.ar      1 STI603      0.0000 
      4 C4         23.9820   40.9170   -0.6370 C.ar      1 STI603      0.0000 
      5 N3         24.9190   40.7310   -1.5700 N.ar      1 STI603      0.0000 
      6 C2         24.6150   41.2330   -2.7680 C.ar      1 STI603      0.0000 
      7 C7         21.8400   41.7180    0.2300 C.ar      1 STI603      0.0000 
      8 C12        20.7520   42.5430    0.1000 C.ar      1 STI603      0.0000 
      9 C11        19.9340   42.6090    1.1980 C.ar      1 STI603      0.0000 
     10 N10        20.1550   41.9300    2.3210 N.ar      1 STI603      0.0000 
     11 C9         21.2410   41.1520    2.3440 C.ar      1 STI603      0.0000 
     12 N8         22.1050   41.0200    1.3340 N.ar      1 STI603      0.0000 
     13 N13        21.5220   40.4150    3.5000 N.pl3     1 STI603      0.0000 
     14 C14        20.7600   40.5290    4.6730 C.ar      1 STI603      0.0000 
     15 C19        21.0320   41.5490    5.5590 C.ar      1 STI603      0.0000 
     16 C18        20.3060   41.6810    6.7230 C.ar      1 STI603      0.0000 
     17 C17        19.3010   40.7910    7.0120 C.ar      1 STI603      0.0000 
     18 C16        19.0270   39.7710    6.1260 C.ar      1 STI603      0.0000 
     19 C15        19.7500   39.6380    4.9620 C.ar      1 STI603      0.0000 
     20 N21        17.9990   38.8740    6.4520 N.am      1 STI603      0.0000 
     21 C22        17.7190   37.7530    5.7080 C.2       1 STI603      0.0000 
     22 C23        16.8700   36.8070    6.4360 C.ar      1 STI603      0.0000 
     23 C25        16.7170   35.5480    5.9090 C.ar      1 STI603      0.0000 
     24 C26        15.9170   34.6440    6.5670 C.ar      1 STI603      0.0000 
     25 C27        15.2740   34.9890    7.7350 C.ar      1 STI603      0.0000 
     26 C28        15.4390   36.2580    8.2520 C.ar      1 STI603      0.0000 
     27 C29        16.2400   37.1810    7.6040 C.ar      1 STI603      0.0000 
     28 C46        14.4170   33.9640    8.3970 C.3       1 STI603      0.0000 
     29 N48        12.9980   34.3840    8.5750 N.4       1 STI603      0.0000 
     30 C53        12.3090   34.7960    7.3240 C.3       1 STI603      0.0000 
     31 C52        11.0520   35.5190    7.7620 C.3       1 STI603      0.0000 
     32 N51        10.2370   34.5410    8.5330 N.3       1 STI603      0.0000 
     33 C54         8.8620   35.0250    8.8040 C.3       1 STI603      0.0000 
     34 C50        10.9030   34.0580    9.7700 C.3       1 STI603      0.0000 
     35 C49        12.2090   33.4060    9.3740 C.3       1 STI603      0.0000 
     36 O29        18.0470   37.5120    4.5500 O.2       1 STI603      0.0000 
     37 C20        22.1210   42.5170    5.2540 C.3       1 STI603      0.0000 
@<TRIPOS>BOND
     1    1    2 ar   
     2    1    6 ar   
     3    2    3 ar   
     4    3    4 ar   
     5    3    7 1    
     6    4    5 ar   
     7    5    6 ar   
     8    7    8 ar   
     9    7   12 ar   
    10    8    9 ar   
    11    9   10 ar   
    12   10   11 ar   
    13   11   12 ar   
    14   11   13 1    
    15   13   14 1    
    16   14   15 ar   
    17   14   19 ar   
    18   15   16 ar   
    19   15   37 1    
    20   16   17 ar   
    21   17   18 ar   
    22   18   19 ar   
    23   18   20 1    
    24   20   21 am   
    25   21   22 1    
    26   21   36 2    
    27   22   23 ar   
    28   22   27 ar   
    29   23   24 ar   
    30   24   25 ar   
    31   25   26 ar   
    32   25   28 1    
    33   26   27 ar   
    34   28   29 1    
    35   29   30 1    
    36   29   35 1    
    37   30   31 1    
    38   31   32 1    
    39   32   33 1    
    40   32   34 1    
    41   34   35 1    
@<TRIPOS>SUBSTRUCTURE
     1 STI603      1 GROUP   
@<TRIPOS>SET

