#    Name: 6plm_2_AMP_CAVITY_N1_4
#    Modification time : Fri May 22 19:28:34 2020

@<TRIPOS>MOLECULE
6plm_2_AMP_CAVITY_N1_4
   86     0     6     0     0
SMALL
NO_CHARGES


@<TRIPOS>ATOM
      1 OG         44.4600   14.7300   69.9000 O.3       1 SER1        0.0000 
      2 OG         43.9200   16.4500   71.7700 O.3       1 SER1        0.0000 
      3 OG         44.0900   14.9800   71.9800 O.3       1 SER1        0.0000 
      4 OG         44.7700   16.7200   72.9700 O.3       1 SER1        0.0000 
      5 OG         45.6200   16.9900   74.1800 O.3       1 SER1        0.0000 
      6 OG         46.6700   18.4900   73.1000 O.3       1 SER1        0.0000 
      7 OG         47.7200   19.9900   72.0200 O.3       1 SER1        0.0000 
      8 OG         47.5200   18.7600   74.3000 O.3       1 SER1        0.0000 
      9 OG         48.5700   20.2600   73.2200 O.3       1 SER1        0.0000 
     10 OG         48.7400   18.7800   73.4300 O.3       1 SER1        0.0000 
     11 N          37.8700   14.1000   70.9800 N.am      2 ALA2        0.0000 
     12 N          38.0400   12.6200   71.1800 N.am      2 ALA2        0.0000 
     13 N          40.3100   14.1400   69.2300 N.am      2 ALA2        0.0000 
     14 N          41.5300   14.1600   68.3600 N.am      2 ALA2        0.0000 
     15 O          38.5500   15.8400   71.9700 O.2       2 ALA2        0.0000 
     16 N          38.7200   14.3700   72.1800 N.am      2 ALA2        0.0000 
     17 N          39.5900   17.3400   70.8900 N.am      2 ALA2        0.0000 
     18 O          40.1200   12.9200   71.5200 O.2       2 ALA2        0.0000 
     19 N          40.8100   17.3600   70.0200 N.am      2 ALA2        0.0000 
     20 N          42.0400   17.3900   69.1500 N.am      2 ALA2        0.0000 
     21 N          42.3900   14.4400   69.5700 N.am      2 ALA2        0.0000 
     22 N          44.6500   15.9600   67.6200 N.am      2 ALA2        0.0000 
     23 N          40.6200   16.1400   72.3000 N.am      2 ALA2        0.0000 
     24 N          40.8000   14.6600   72.5100 N.am      2 ALA2        0.0000 
     25 N          41.8400   16.1600   71.4300 N.am      2 ALA2        0.0000 
     26 N          42.0200   14.6800   71.6400 N.am      2 ALA2        0.0000 
     27 N          42.1900   13.2100   71.8500 N.am      2 ALA2        0.0000 
     28 N          42.8900   17.6600   70.3600 N.am      2 ALA2        0.0000 
     29 N          43.0600   16.1800   70.5600 N.am      2 ALA2        0.0000 
     30 N          43.2400   14.7100   70.7700 N.am      2 ALA2        0.0000 
     31 N          44.1100   17.6800   69.4900 N.am      2 ALA2        0.0000 
     32 N          42.5200   17.9000   72.4300 N.am      2 ALA2        0.0000 
     33 N          42.6900   16.4300   72.6400 N.am      2 ALA2        0.0000 
     34 N          43.7400   17.9300   71.5600 N.am      2 ALA2        0.0000 
     35 O          44.7900   19.4200   70.4800 O.2       2 ALA2        0.0000 
     36 O          43.5500   16.7000   73.8400 O.2       2 ALA2        0.0000 
     37 O          44.5900   18.2000   72.7600 O.2       2 ALA2        0.0000 
     38 O          45.6400   19.6900   71.6900 O.2       2 ALA2        0.0000 
     39 O          44.4000   16.9700   75.0500 O.2       2 ALA2        0.0000 
     40 O          45.2700   19.9400   73.7600 O.2       2 ALA2        0.0000 
     41 O          46.3200   21.4400   72.6800 O.2       2 ALA2        0.0000 
     42 O          46.4900   19.9600   72.8900 O.2       2 ALA2        0.0000 
     43 O          45.2500   17.2400   76.2500 O.2       2 ALA2        0.0000 
     44 N          45.9500   21.6900   74.7600 N.am      2 ALA2        0.0000 
     45 N          47.1700   21.7100   73.8900 N.am      2 ALA2        0.0000 
     46 O          47.1500   19.0100   76.3800 O.2       2 ALA2        0.0000 
     47 O          47.8500   23.4600   74.8800 O.2       2 ALA2        0.0000 
     48 O          48.0200   21.9800   75.0900 O.2       2 ALA2        0.0000 
     49 N          48.3700   19.0300   75.5100 N.am      2 ALA2        0.0000 
     50 O          49.2500   22.0000   74.2200 O.2       2 ALA2        0.0000 
     51 N          49.4200   20.5300   74.4300 N.am      2 ALA2        0.0000 
     52 N          49.6000   19.0500   74.6400 N.am      2 ALA2        0.0000 
     53 N          50.8200   19.0800   73.7600 N.am      2 ALA2        0.0000 
     54 O          50.1000   22.2700   75.4200 O.2       2 ALA2        0.0000 
     55 NZ         39.2600   12.6400   70.3100 N.4       3 LYS4        0.0000 
     56 NZ         48.9400   20.0100   71.1500 N.4       3 LYS4        0.0000 
     57 NZ         49.7900   20.2800   72.3500 N.4       3 LYS4        0.0000 
     58 CZ         37.5200   17.0500   70.5600 C.ar      4 PHE5        0.0000 
     59 CZ         44.2800   16.2000   69.6900 C.ar      4 PHE5        0.0000 
     60 CZ         44.9600   17.9500   70.6900 C.ar      4 PHE5        0.0000 
     61 CZ         46.8600   19.7200   70.8200 C.ar      4 PHE5        0.0000 
     62 CZ         46.4800   17.2600   75.3800 C.ar      4 PHE5        0.0000 
     63 CA         37.6900   15.5700   70.7700 C.3       5 GLY6        0.0000 
     64 CA         40.4900   12.6700   69.4400 C.3       5 GLY6        0.0000 
     65 CA         39.9400   14.3900   71.3100 C.3       5 GLY6        0.0000 
     66 CA         41.1600   14.4100   70.4400 C.3       5 GLY6        0.0000 
     67 CA         45.3300   17.7000   68.6200 C.3       5 GLY6        0.0000 
     68 CA         42.8700   14.9500   72.8500 C.3       5 GLY6        0.0000 
     69 CA         43.3700   18.1700   73.6300 C.3       5 GLY6        0.0000 
     70 CA         45.4500   18.4700   73.9700 C.3       5 GLY6        0.0000 
     71 CA         46.1300   20.2100   74.9600 C.3       5 GLY6        0.0000 
     72 CA         46.3000   18.7400   75.1700 C.3       5 GLY6        0.0000 
     73 CA         46.9800   20.4800   76.1700 C.3       5 GLY6        0.0000 
     74 CA         48.2000   20.5100   75.3000 C.3       5 GLY6        0.0000 
     75 CA         50.6400   20.5500   73.5600 C.3       5 GLY6        0.0000 
     76 CA         51.5000   20.8200   74.7600 C.3       5 GLY6        0.0000 
     77 DU         38.9100   15.6000   69.9000 H         6 CUB7        0.0000 
     78 DU         39.0900   14.1200   70.1000 H         6 CUB7        0.0000 
     79 DU         40.1400   15.6200   69.0300 H         6 CUB7        0.0000 
     80 DU         39.7700   15.8700   71.1000 H         6 CUB7        0.0000 
     81 DU         40.9900   15.8900   70.2300 H         6 CUB7        0.0000 
     82 DU         42.2100   15.9100   69.3600 H         6 CUB7        0.0000 
     83 DU         47.5400   21.4600   71.8100 H         6 CUB7        0.0000 
     84 DU         47.3500   20.2400   74.0900 H         6 CUB7        0.0000 
     85 DU         48.3900   21.7300   73.0200 H         6 CUB7        0.0000 
     86 DU         50.4700   22.0300   73.3500 H         6 CUB7        0.0000 
@<TRIPOS>BOND
@<TRIPOS>SUBSTRUCTURE
     1 SER1        1 GROUP   
     2 ALA2       11 GROUP   
     3 LYS4       55 GROUP   
     4 PHE5       58 GROUP   
     5 GLY6       63 GROUP   
     6 CUB7       77 GROUP   
@<TRIPOS>SET

