#    Name: 6plm_2_AMP
#    Modification time : Fri May 22 19:28:32 2020

@<TRIPOS>MOLECULE
6plm_2_AMP
   23    25     1     0     1
SMALL
NO_CHARGES


@<TRIPOS>ATOM
      1 P          44.4330   15.0470   69.5110 P.3       1 AMP1004     0.0000 
      2 O1P        44.8650   15.1320   68.0630 O.co2     1 AMP1004     0.0000 
      3 O2P        44.9360   13.7710   70.1930 O.co2     1 AMP1004     0.0000 
      4 O3P        44.7850   16.3290   70.2300 O.co2     1 AMP1004     0.0000 
      5 O5'        42.7770   15.1000   69.4440 O.3       1 AMP1004     0.0000 
      6 C5'        41.7540   14.3850   70.1970 C.3       1 AMP1004     0.0000 
      7 C4'        41.6130   14.9230   71.6350 C.3       1 AMP1004     0.0000 
      8 O4'        42.9140   15.2830   72.1960 O.3       1 AMP1004     0.0000 
      9 C3'        40.7440   16.1720   71.6710 C.3       1 AMP1004     0.0000 
     10 O3'        39.3500   15.9000   72.0280 O.3       1 AMP1004     0.0000 
     11 C2'        41.6220   17.1340   72.5430 C.3       1 AMP1004     0.0000 
     12 O2'        40.8580   17.8080   73.5680 O.3       1 AMP1004     0.0000 
     13 C1'        42.8930   16.4050   73.0870 C.3       1 AMP1004     0.0000 
     14 N9         44.1900   17.2670   73.3030 N.pl3     1 AMP1004     0.0000 
     15 C8         44.7480   18.1740   72.4120 C.2       1 AMP1004     0.0000 
     16 N7         45.8560   18.8260   72.9190 N.2       1 AMP1004     0.0000 
     17 C5         46.0700   18.3900   74.2230 C.ar      1 AMP1004     0.0000 
     18 C6         47.0750   18.6550   75.3910 C.ar      1 AMP1004     0.0000 
     19 N6         48.1080   19.5410   75.2470 N.pl3     1 AMP1004     0.0000 
     20 N1         46.9670   17.9590   76.5920 N.ar      1 AMP1004     0.0000 
     21 C2         45.9520   17.0550   76.7780 C.ar      1 AMP1004     0.0000 
     22 N3         45.0230   16.7730   75.7890 N.ar      1 AMP1004     0.0000 
     23 C4         44.9840   17.3570   74.4800 C.ar      1 AMP1004     0.0000 
@<TRIPOS>BOND
     1    1    2 ar   
     2    1    3 ar   
     3    1    4 ar   
     4    1    5 1    
     5    5    6 1    
     6    6    7 1    
     7    7    8 1    
     8    7    9 1    
     9    8   13 1    
    10    9   10 1    
    11    9   11 1    
    12   11   12 1    
    13   11   13 1    
    14   13   14 1    
    15   14   15 1    
    16   14   23 1    
    17   15   16 2    
    18   16   17 1    
    19   17   18 ar   
    20   17   23 ar   
    21   18   19 1    
    22   18   20 ar   
    23   20   21 ar   
    24   21   22 ar   
    25   22   23 ar   
@<TRIPOS>SUBSTRUCTURE
     1 AMP1004     1 GROUP   
@<TRIPOS>SET
ATOM$ORANGE STATIC     ATOMS   COLORGROUP SYSTEM 
20 6 6 7 7 9 9 11 11 13 13 15 15 17 17 18 18 21 \
21 23 23 

