#    Name: 6gnu_1_MYA
#    Modification time : Fri May 22 19:29:33 2020

@<TRIPOS>MOLECULE
6gnu_1_MYA
   63    65     1     0     0
SMALL
NO_CHARGES


@<TRIPOS>ATOM
      1 S1          2.0660   -4.7510    7.0440 S.3       1 MYA501      0.0000 
      2 C2          2.5440   -4.9960    8.7700 C.3       1 MYA501      0.0000 
      3 C3          3.5950   -6.0840    8.7990 C.3       1 MYA501      0.0000 
      4 N4          3.8670   -6.5070   10.2150 N.am      1 MYA501      0.0000 
      5 C5          4.8770   -5.9360   10.8950 C.2       1 MYA501      0.0000 
      6 O5          5.6790   -5.0600   10.4510 O.2       1 MYA501      0.0000 
      7 C6          4.9670   -6.4180   12.3200 C.3       1 MYA501      0.0000 
      8 C7          6.4610   -6.5130   12.8150 C.3       1 MYA501      0.0000 
      9 N8          7.3370   -7.2900   11.8800 N.am      1 MYA501      0.0000 
     10 C9          7.1420   -8.5980   11.7070 C.2       1 MYA501      0.0000 
     11 O9          6.2700   -9.2590   12.2750 O.2       1 MYA501      0.0000 
     12 C10         8.0480   -9.2870   10.7070 C.3       1 MYA501      0.0000 
     13 O10         9.2220   -8.4700   10.5160 O.3       1 MYA501      0.0000 
     14 C11         7.3840   -9.5670    9.3520 C.3       1 MYA501      0.0000 
     15 C12         8.4220  -10.1020    8.3710 C.3       1 MYA501      0.0000 
     16 C13         6.8390   -8.3090    8.7120 C.3       1 MYA501      0.0000 
     17 C14         6.2860  -10.5520    9.5280 C.3       1 MYA501      0.0000 
     18 N1A         4.7310   -7.4210    3.9430 N.ar      1 MYA501      0.0000 
     19 O1A        10.0380  -14.2100    7.4660 O.co2     1 MYA501      0.0000 
     20 P1A        11.0750  -13.3120    6.9010 P.3       1 MYA501      0.0000 
     21 C1X         9.2410   -9.7880    3.1280 C.3       1 MYA501      0.0000 
     22 C2A         5.0670   -8.2840    2.9790 C.ar      1 MYA501      0.0000 
     23 O2A        12.5040  -13.8430    6.9650 O.co2     1 MYA501      0.0000 
     24 P2A        10.5530  -11.4590    9.0500 P.3       1 MYA501      0.0000 
     25 C2M         0.8220   -5.9320    6.8040 C.2       1 MYA501      0.0000 
     26 O2M         0.3180   -6.5700    7.7470 O.2       1 MYA501      0.0000 
     27 C2X        10.6950   -9.4160    2.7940 C.3       1 MYA501      0.0000 
     28 O2X        10.7250   -8.4300    1.8290 O.3       1 MYA501      0.0000 
     29 N3A         6.3130   -8.8110    2.8830 N.ar      1 MYA501      0.0000 
     30 O3A        11.1140  -11.8140    7.5480 O.3       1 MYA501      0.0000 
     31 C3M         0.4330   -6.2190    5.4110 C.3       1 MYA501      0.0000 
     32 C3X        11.2580  -10.7730    2.4500 C.3       1 MYA501      0.0000 
     33 O3X        10.8950  -11.0720    1.1350 O.3       1 MYA501      0.0000 
     34 P3X        11.9900  -10.9270   -0.0540 P.3       1 MYA501      0.0000 
     35 C4A         7.2590   -8.4240    3.8010 C.ar      1 MYA501      0.0000 
     36 O4A        11.1840  -10.1330    9.2320 O.co2     1 MYA501      0.0000 
     37 C4M         1.0670   -7.5390    4.9590 C.3       1 MYA501      0.0000 
     38 C4X        10.5540  -11.6810    3.3780 C.3       1 MYA501      0.0000 
     39 O4X         9.3700  -10.9910    3.8520 O.3       1 MYA501      0.0000 
     40 C5A         6.9190   -7.4990    4.8020 C.ar      1 MYA501      0.0000 
     41 O5A        10.8170  -12.5200    9.9730 O.co2     1 MYA501      0.0000 
     42 C5M         0.8980   -7.8620    3.4930 C.3       1 MYA501      0.0000 
     43 C5X        11.3140  -11.9340    4.6160 C.3       1 MYA501      0.0000 
     44 O5X        10.6340  -12.8610    5.4250 O.3       1 MYA501      0.0000 
     45 C6A         5.6570   -6.9810    4.8030 C.ar      1 MYA501      0.0000 
     46 N6A         5.2040   -6.0530    5.6720 N.pl3     1 MYA501      0.0000 
     47 O6A         8.9730  -11.3010    8.8660 O.3       1 MYA501      0.0000 
     48 C6M         1.5230   -9.2370    3.1900 C.3       1 MYA501      0.0000 
     49 N7A         8.0540   -7.3170    5.5620 N.2       1 MYA501      0.0000 
     50 O7A        12.4530   -9.4400   -0.0210 O.co2     1 MYA501      0.0000 
     51 C7M         1.3860   -9.5340    1.6960 C.3       1 MYA501      0.0000 
     52 C8A         9.0110   -8.1540    5.0440 C.2       1 MYA501      0.0000 
     53 O8A        13.1630  -11.9000    0.3280 O.co2     1 MYA501      0.0000 
     54 C8M         0.0050   -9.9740    1.2680 C.3       1 MYA501      0.0000 
     55 N9A         8.5260   -8.8350    3.9620 N.pl3     1 MYA501      0.0000 
     56 O9A        11.2800  -11.2780   -1.3690 O.co2     1 MYA501      0.0000 
     57 C9M        -0.0400  -10.3420   -0.1990 C.3       1 MYA501      0.0000 
     58 CAM        -1.4160  -10.8430   -0.6050 C.3       1 MYA501      0.0000 
     59 CBM        -1.8580  -12.2350   -0.1060 C.3       1 MYA501      0.0000 
     60 CCM        -3.2840  -12.6960   -0.4220 C.3       1 MYA501      0.0000 
     61 CDM        -3.4680  -12.8230   -1.9380 C.3       1 MYA501      0.0000 
     62 CEM        -4.8600  -13.3120   -2.3100 C.3       1 MYA501      0.0000 
     63 CFM        -5.2060  -13.2650   -3.8160 C.3       1 MYA501      0.0000 
@<TRIPOS>BOND
     1    1    2 1    
     2    1   25 1    
     3    2    3 1    
     4    3    4 1    
     5    4    5 am   
     6    5    6 2    
     7    5    7 1    
     8    7    8 1    
     9    8    9 1    
    10    9   10 am   
    11   10   11 2    
    12   10   12 1    
    13   12   13 1    
    14   12   14 1    
    15   14   15 1    
    16   14   16 1    
    17   14   17 1    
    18   15   47 1    
    19   18   22 ar   
    20   18   45 ar   
    21   19   20 ar   
    22   20   23 ar   
    23   20   30 1    
    24   20   44 1    
    25   21   27 1    
    26   21   39 1    
    27   21   55 1    
    28   22   29 ar   
    29   24   30 1    
    30   24   36 ar   
    31   24   41 ar   
    32   24   47 1    
    33   25   26 2    
    34   25   31 1    
    35   27   28 1    
    36   27   32 1    
    37   29   35 ar   
    38   31   37 1    
    39   32   33 1    
    40   32   38 1    
    41   33   34 1    
    42   34   50 ar   
    43   34   53 ar   
    44   34   56 ar   
    45   35   40 ar   
    46   35   55 1    
    47   37   42 1    
    48   38   39 1    
    49   38   43 1    
    50   40   45 ar   
    51   40   49 1    
    52   42   48 1    
    53   43   44 1    
    54   45   46 1    
    55   48   51 1    
    56   49   52 2    
    57   51   54 1    
    58   52   55 1    
    59   54   57 1    
    60   57   58 1    
    61   58   59 1    
    62   59   60 1    
    63   60   61 1    
    64   61   62 1    
    65   62   63 1    
@<TRIPOS>SUBSTRUCTURE
     1 MYA501      1 GROUP   
@<TRIPOS>SET

