#    Name: 6ud4_3_ZK1
#    Modification time : Fri May 22 19:30:03 2020

@<TRIPOS>MOLECULE
6ud4_3_ZK1
   40    42     1     0     0
SMALL
NO_CHARGES


@<TRIPOS>ATOM
      1 OAA       159.3150  184.5530  240.4340 O.2       1 ZK1901      0.0000 
      2 OAB       157.5480  183.1860  238.6670 O.2       1 ZK1901      0.0000 
      3 OAC       159.3740  182.5120  233.8550 O.co2     1 ZK1901      0.0000 
      4 OAD       156.9440  182.5620  234.2870 O.co2     1 ZK1901      0.0000 
      5 OAE       158.4010  184.3050  235.2410 O.co2     1 ZK1901      0.0000 
      6 FAF       165.9160  182.8330  237.3360 F         1 ZK1901      0.0000 
      7 FAG       165.5050  183.3660  235.2160 F         1 ZK1901      0.0000 
      8 FAH       165.6060  181.2280  235.8200 F         1 ZK1901      0.0000 
      9 CAI       161.4740  181.8000  235.8540 C.ar      1 ZK1901      0.0000 
     10 CAJ       163.2270  183.1640  237.6210 C.ar      1 ZK1901      0.0000 
     11 CAK       163.4650  180.8010  232.0870 C.3       1 ZK1901      0.0000 
     12 CAL       164.0180  179.0030  233.4870 C.3       1 ZK1901      0.0000 
     13 CAM       162.7480  181.4890  233.2450 C.3       1 ZK1901      0.0000 
     14 CAN       163.3150  179.6880  234.6540 C.3       1 ZK1901      0.0000 
     15 CAO       158.5540  181.8110  236.3910 C.3       1 ZK1901      0.0000 
     16 NAP       161.2150  183.8820  239.0730 N.am      1 ZK1901      0.0000 
     17 OAQ       164.4760  179.9740  232.5890 O.3       1 ZK1901      0.0000 
     18 CAR       162.8570  181.8090  235.6160 C.ar      1 ZK1901      0.0000 
     19 CAS       163.7330  182.4900  236.5000 C.ar      1 ZK1901      0.0000 
     20 CAT       159.8240  183.8830  239.3230 C.2       1 ZK1901      0.0000 
     21 CAU       158.9230  183.1850  238.4200 C.2       1 ZK1901      0.0000 
     22 CAV       161.7450  183.1650  237.8860 C.ar      1 ZK1901      0.0000 
     23 CAW       160.9120  182.5190  237.0490 C.ar      1 ZK1901      0.0000 
     24 NAX       163.4200  181.1190  234.4730 N.3       1 ZK1901      0.0000 
     25 NAY       159.4470  182.5080  237.2970 N.am      1 ZK1901      0.0000 
     26 CAZ       165.2300  182.4780  236.2140 C.3       1 ZK1901      0.0000 
     27 PBA       158.3070  182.8460  234.8690 P.3       1 ZK1901      0.0000 
     28 HAI       160.9050  181.3520  235.2720 H         1 ZK1901      0.0000 
     29 HAJ       163.8030  183.6100  238.1970 H         1 ZK1901      0.0000 
     30 HAK       163.8570  181.4700  231.5070 H         1 ZK1901      0.0000 
     31 HAKA      162.8290  180.2640  231.5900 H         1 ZK1901      0.0000 
     32 HAL       164.7710  178.4930  233.8200 H         1 ZK1901      0.0000 
     33 HALA      163.3940  178.4140  233.0360 H         1 ZK1901      0.0000 
     34 HAM       162.7850  182.4510  233.1310 H         1 ZK1901      0.0000 
     35 HAMA      161.8250  181.1930  233.2710 H         1 ZK1901      0.0000 
     36 HAN       163.7420  179.4340  235.4860 H         1 ZK1901      0.0000 
     37 HANA      162.3810  179.4290  234.6680 H         1 ZK1901      0.0000 
     38 HAO       157.6980  181.6710  236.8230 H         1 ZK1901      0.0000 
     39 HAOA      158.9350  180.9560  236.1460 H         1 ZK1901      0.0000 
     40 HNAP      161.7510  184.2930  239.6040 H         1 ZK1901      0.0000 
@<TRIPOS>BOND
     1    1   20 2    
     2    2   21 2    
     3    3   27 ar   
     4    4   27 ar   
     5    5   27 ar   
     6    6   26 1    
     7    7   26 1    
     8    8   26 1    
     9    9   18 ar   
    10    9   23 ar   
    11   10   19 ar   
    12    9   28 1    
    13   10   22 ar   
    14   11   13 1    
    15   10   29 1    
    16   11   17 1    
    17   11   30 1    
    18   11   31 1    
    19   12   14 1    
    20   12   17 1    
    21   12   32 1    
    22   12   33 1    
    23   13   24 1    
    24   13   34 1    
    25   13   35 1    
    26   14   24 1    
    27   14   36 1    
    28   14   37 1    
    29   15   25 1    
    30   15   27 1    
    31   15   38 1    
    32   15   39 1    
    33   16   20 am   
    34   16   22 1    
    35   18   19 ar   
    36   16   40 1    
    37   18   24 1    
    38   19   26 1    
    39   20   21 1    
    40   21   25 am   
    41   22   23 ar   
    42   23   25 1    
@<TRIPOS>SUBSTRUCTURE
     1 ZK1901      1 GROUP   
@<TRIPOS>SET

