#    Name: 6ud4_5_ZK1_CAVITY_N1_12
#    Modification time : Fri May 22 19:30:12 2020

@<TRIPOS>MOLECULE
6ud4_5_ZK1_CAVITY_N1_12
  112     0     7     0     0
SMALL
NO_CHARGES


@<TRIPOS>ATOM
      1 OG        222.7900  202.1000  228.7000 O.3       1 SER1        0.0000 
      2 OG        221.9600  203.3400  228.7800 O.3       1 SER1        0.0000 
      3 OG        222.8600  198.3900  231.2500 O.3       1 SER1        0.0000 
      4 OG        223.1200  200.4000  230.6500 O.3       1 SER1        0.0000 
      5 OG        224.2200  201.1800  229.9700 O.3       1 SER1        0.0000 
      6 OG        221.4500  202.8900  230.7900 O.3       1 SER1        0.0000 
      7 OG        222.5500  203.6700  230.1100 O.3       1 SER1        0.0000 
      8 OG        223.6500  204.4400  229.4400 O.3       1 SER1        0.0000 
      9 OG        219.5200  203.3600  231.5300 O.3       1 SER1        0.0000 
     10 OG        223.4600  198.7100  232.5900 O.3       1 SER1        0.0000 
     11 OG        224.5500  199.4800  231.9200 O.3       1 SER1        0.0000 
     12 OG        223.7200  200.7300  231.9900 O.3       1 SER1        0.0000 
     13 OG        224.8100  201.5000  231.3100 O.3       1 SER1        0.0000 
     14 OG        219.5900  199.6500  234.0700 O.3       1 SER1        0.0000 
     15 OG        217.6600  200.1200  234.8100 O.3       1 SER1        0.0000 
     16 OG        218.7600  200.8900  234.1400 O.3       1 SER1        0.0000 
     17 OG        221.2100  204.4600  232.2000 O.3       1 SER1        0.0000 
     18 OG        222.3100  205.2300  231.5200 O.3       1 SER1        0.0000 
     19 OG        220.3800  205.7000  232.2700 O.3       1 SER1        0.0000 
     20 OG        222.1200  199.5000  234.6700 O.3       1 SER1        0.0000 
     21 OG        220.1900  199.9700  235.4100 O.3       1 SER1        0.0000 
     22 OG        221.2800  200.7500  234.7400 O.3       1 SER1        0.0000 
     23 OG        218.2600  200.4400  236.1500 O.3       1 SER1        0.0000 
     24 OG        219.3500  201.2200  235.4800 O.3       1 SER1        0.0000 
     25 OG        218.5200  202.4600  235.5500 O.3       1 SER1        0.0000 
     26 OG        222.0600  206.8000  232.9300 O.3       1 SER1        0.0000 
     27 OG        223.5500  198.5800  235.9400 O.3       1 SER1        0.0000 
     28 OG        224.6400  199.3600  235.2700 O.3       1 SER1        0.0000 
     29 OG        225.7400  200.1300  234.5900 O.3       1 SER1        0.0000 
     30 OG        221.6200  199.0500  236.6800 O.3       1 SER1        0.0000 
     31 OG        222.7100  199.8300  236.0100 O.3       1 SER1        0.0000 
     32 OG        224.9000  201.3700  234.6600 O.3       1 SER1        0.0000 
     33 OG        219.6800  199.5200  237.4200 O.3       1 SER1        0.0000 
     34 OG        220.7800  200.3000  236.7500 O.3       1 SER1        0.0000 
     35 OG        218.8500  200.7700  237.4900 O.3       1 SER1        0.0000 
     36 OG        219.9400  201.5400  236.8200 O.3       1 SER1        0.0000 
     37 OG        220.2100  203.5600  236.2200 O.3       1 SER1        0.0000 
     38 OG        224.1400  198.9000  237.2800 O.3       1 SER1        0.0000 
     39 OG        225.2400  199.6800  236.6100 O.3       1 SER1        0.0000 
     40 OG        222.2100  199.3700  238.0200 O.3       1 SER1        0.0000 
     41 OG        223.3000  200.1500  237.3500 O.3       1 SER1        0.0000 
     42 OG        226.6600  198.7600  237.8700 O.3       1 SER1        0.0000 
     43 OG        224.7300  199.2300  238.6200 O.3       1 SER1        0.0000 
     44 OG        226.9200  200.7700  237.2700 O.3       1 SER1        0.0000 
     45 OG        222.8000  199.7000  239.3600 O.3       1 SER1        0.0000 
     46 N         223.6300  200.8600  228.6300 N.am      2 ALA2        0.0000 
     47 O         222.0300  199.6300  231.3200 O.2       2 ALA2        0.0000 
     48 O         221.1900  200.8800  231.3900 O.2       2 ALA2        0.0000 
     49 O         226.7400  201.0300  230.5700 O.2       2 ALA2        0.0000 
     50 O         226.2400  200.5800  232.5800 O.2       2 ALA2        0.0000 
     51 O         225.4100  201.8200  232.6500 O.2       2 ALA2        0.0000 
     52 O         226.0000  202.1500  233.9900 O.2       2 ALA2        0.0000 
     53 N         221.3700  200.6200  238.0900 N.am      2 ALA2        0.0000 
     54 OD1       222.3600  197.9400  233.2600 O.co2     3 ASP3        0.0000 
     55 OD1       222.9500  198.2600  234.6000 O.co2     3 ASP3        0.0000 
     56 OD1       225.8300  200.0000  237.9400 O.co2     3 ASP3        0.0000 
     57 NZ        219.2800  204.9300  232.9400 N.4       4 LYS4        0.0000 
     58 NZ        219.6100  203.2300  234.8800 N.4       4 LYS4        0.0000 
     59 NZ        220.7100  204.0100  234.2100 N.4       4 LYS4        0.0000 
     60 CZ        217.4200  201.6900  236.2200 C.ar      5 PHE5        0.0000 
     61 CZ        221.8800  201.0700  236.0800 C.ar      5 PHE5        0.0000 
     62 CZ        221.0400  202.3100  236.1500 C.ar      5 PHE5        0.0000 
     63 CZ        222.1400  203.0900  235.4800 C.ar      5 PHE5        0.0000 
     64 CZ        221.3000  204.3300  235.5500 C.ar      5 PHE5        0.0000 
     65 CZ        222.4700  201.3900  237.4200 C.ar      5 PHE5        0.0000 
     66 CZ        223.5600  202.1700  236.7500 C.ar      5 PHE5        0.0000 
     67 CZ        223.9000  200.4700  238.6900 C.ar      5 PHE5        0.0000 
     68 CZ        224.9900  201.2400  238.0100 C.ar      5 PHE5        0.0000 
     69 CA        222.5300  200.0800  229.3100 C.3       6 GLY6        0.0000 
     70 CA        221.7000  201.3300  229.3800 C.3       6 GLY6        0.0000 
     71 CA        218.6700  201.0200  230.7900 C.3       6 GLY6        0.0000 
     72 CA        219.7600  201.8000  230.1200 C.3       6 GLY6        0.0000 
     73 CA        220.8600  202.5700  229.4500 C.3       6 GLY6        0.0000 
     74 CA        218.9300  203.0400  230.1900 C.3       6 GLY6        0.0000 
     75 CA        225.3200  201.9500  229.3000 C.3       6 GLY6        0.0000 
     76 CA        224.4800  203.2000  229.3700 C.3       6 GLY6        0.0000 
     77 CA        218.1700  200.5700  232.8000 C.3       6 GLY6        0.0000 
     78 CA        219.2600  201.3500  232.1300 C.3       6 GLY6        0.0000 
     79 CA        216.2400  201.0400  233.5400 C.3       6 GLY6        0.0000 
     80 CA        217.3300  201.8200  232.8700 C.3       6 GLY6        0.0000 
     81 CA        218.4300  202.5900  232.2000 C.3       6 GLY6        0.0000 
     82 CA        218.6900  204.6100  231.6000 C.3       6 GLY6        0.0000 
     83 CA        225.9100  202.2700  230.6400 C.3       6 GLY6        0.0000 
     84 CA        220.6900  200.4200  233.4000 C.3       6 GLY6        0.0000 
     85 CA        223.9800  202.7500  231.3800 C.3       6 GLY6        0.0000 
     86 CA        223.1400  203.9900  231.4500 C.3       6 GLY6        0.0000 
     87 CA        216.8300  201.3600  234.8800 C.3       6 GLY6        0.0000 
     88 CA        217.9200  202.1400  234.2100 C.3       6 GLY6        0.0000 
     89 CA        219.0200  202.9100  233.5400 C.3       6 GLY6        0.0000 
     90 CA        218.1800  204.1600  233.6100 C.3       6 GLY6        0.0000 
     91 CA        225.1500  199.8100  233.2500 C.3       6 GLY6        0.0000 
     92 CA        226.5000  202.6000  231.9800 C.3       6 GLY6        0.0000 
     93 CA        224.5700  203.0700  232.7200 C.3       6 GLY6        0.0000 
     94 CA        223.7400  204.3100  232.7900 C.3       6 GLY6        0.0000 
     95 DU        222.2900  201.6500  230.7200 H         7 CUB7        0.0000 
     96 DU        223.3800  202.4200  230.0400 H         7 CUB7        0.0000 
     97 DU        220.3600  202.1200  231.4600 H         7 CUB7        0.0000 
     98 DU        222.6200  199.9500  232.6600 H         7 CUB7        0.0000 
     99 DU        221.7900  201.2000  232.7300 H         7 CUB7        0.0000 
    100 DU        219.8500  201.6700  233.4700 H         7 CUB7        0.0000 
    101 DU        220.9500  202.4400  232.8000 H         7 CUB7        0.0000 
    102 DU        222.0500  203.2200  232.1300 H         7 CUB7        0.0000 
    103 DU        220.1200  203.6900  232.8700 H         7 CUB7        0.0000 
    104 DU        224.0500  199.0300  233.9300 H         7 CUB7        0.0000 
    105 DU        224.3100  201.0500  233.3200 H         7 CUB7        0.0000 
    106 DU        220.4500  201.9900  234.8100 H         7 CUB7        0.0000 
    107 DU        221.5400  202.7600  234.1400 H         7 CUB7        0.0000 
    108 DU        222.6400  203.5400  233.4700 H         7 CUB7        0.0000 
    109 DU        221.8000  204.7800  233.5400 H         7 CUB7        0.0000 
    110 DU        223.8100  200.6000  235.3400 H         7 CUB7        0.0000 
    111 DU        222.9700  201.8400  235.4100 H         7 CUB7        0.0000 
    112 DU        224.4000  200.9200  236.6800 H         7 CUB7        0.0000 
@<TRIPOS>BOND
@<TRIPOS>SUBSTRUCTURE
     1 SER1        1 GROUP   
     2 ALA2       46 GROUP   
     3 ASP3       54 GROUP   
     4 LYS4       57 GROUP   
     5 PHE5       60 GROUP   
     6 GLY6       69 GROUP   
     7 CUB7       95 GROUP   
@<TRIPOS>SET

