#    Name: 6ud4_4_ZK1_CAVITY_N1_12
#    Modification time : Fri May 22 19:30:08 2020

@<TRIPOS>MOLECULE
6ud4_4_ZK1_CAVITY_N1_12
   98     0     6     0     0
SMALL
NO_CHARGES


@<TRIPOS>ATOM
      1 OG        172.9700  213.7200  231.1600 O.3       1 SER1        0.0000 
      2 OG        175.4900  213.5800  231.7600 O.3       1 SER1        0.0000 
      3 OG        170.2700  211.7300  234.5100 O.3       1 SER1        0.0000 
      4 OG        173.5600  214.0500  232.5000 O.3       1 SER1        0.0000 
      5 OG        168.3400  212.2000  235.2500 O.3       1 SER1        0.0000 
      6 OG        172.7300  215.2900  232.5700 O.3       1 SER1        0.0000 
      7 OG        171.8900  216.5300  232.6400 O.3       1 SER1        0.0000 
      8 OG        175.5600  209.8600  234.3000 O.3       1 SER1        0.0000 
      9 OG        174.7300  211.1100  234.3700 O.3       1 SER1        0.0000 
     10 OG        175.8200  211.8800  233.7000 O.3       1 SER1        0.0000 
     11 OG        176.9200  212.6600  233.0300 O.3       1 SER1        0.0000 
     12 OG        176.0900  213.9000  233.1000 O.3       1 SER1        0.0000 
     13 OG        169.7700  211.2700  236.5200 O.3       1 SER1        0.0000 
     14 OG        170.8700  212.0500  235.8500 O.3       1 SER1        0.0000 
     15 OG        174.1500  214.3700  233.8400 O.3       1 SER1        0.0000 
     16 OG        175.2500  215.1400  233.1700 O.3       1 SER1        0.0000 
     17 OG        168.9400  212.5200  236.5900 O.3       1 SER1        0.0000 
     18 OG        170.0300  213.2900  235.9200 O.3       1 SER1        0.0000 
     19 OG        171.1300  214.0700  235.2500 O.3       1 SER1        0.0000 
     20 OG        173.3200  215.6100  233.9100 O.3       1 SER1        0.0000 
     21 OG        170.2900  215.3100  235.3200 O.3       1 SER1        0.0000 
     22 OG        175.0600  209.4100  236.3100 O.3       1 SER1        0.0000 
     23 OG        172.0300  209.1100  237.7200 O.3       1 SER1        0.0000 
     24 OG        175.3200  211.4300  235.7100 O.3       1 SER1        0.0000 
     25 OG        176.4200  212.2000  235.0400 O.3       1 SER1        0.0000 
     26 OG        171.2000  210.3500  237.7900 O.3       1 SER1        0.0000 
     27 OG        170.3600  211.6000  237.8600 O.3       1 SER1        0.0000 
     28 OG        169.5300  212.8400  237.9300 O.3       1 SER1        0.0000 
     29 OG        170.6200  213.6200  237.2600 O.3       1 SER1        0.0000 
     30 OG        171.7200  214.3900  236.5900 O.3       1 SER1        0.0000 
     31 OG        172.6300  209.4300  239.0600 O.3       1 SER1        0.0000 
     32 OG        173.7200  210.2100  238.3900 O.3       1 SER1        0.0000 
     33 OG        174.8200  210.9800  237.7200 O.3       1 SER1        0.0000 
     34 OG        175.9100  211.7500  237.0500 O.3       1 SER1        0.0000 
     35 OG        177.0100  212.5300  236.3800 O.3       1 SER1        0.0000 
     36 OG        171.7900  210.6800  239.1300 O.3       1 SER1        0.0000 
     37 OG        172.8900  211.4500  238.4600 O.3       1 SER1        0.0000 
     38 OG        173.9800  212.2200  237.7900 O.3       1 SER1        0.0000 
     39 OG        170.9600  211.9200  239.2000 O.3       1 SER1        0.0000 
     40 OG        172.3900  211.0000  240.4700 O.3       1 SER1        0.0000 
     41 OG        173.4800  211.7700  239.8000 O.3       1 SER1        0.0000 
     42 OG        174.5800  212.5500  239.1300 O.3       1 SER1        0.0000 
     43 O         172.7100  211.7100  231.7600 O.2       2 ALA2        0.0000 
     44 O         174.1400  210.7900  233.0300 O.2       2 ALA2        0.0000 
     45 NZ        169.1100  214.6600  232.6400 N.4       3 LYS4        0.0000 
     46 NZ        170.2000  215.4400  231.9700 N.4       3 LYS4        0.0000 
     47 NZ        169.7000  214.9900  233.9800 N.4       3 LYS4        0.0000 
     48 NZ        170.8000  215.7600  233.3100 N.4       3 LYS4        0.0000 
     49 NZ        173.6300  210.3300  235.0400 N.4       3 LYS4        0.0000 
     50 NZ        171.7000  210.8000  235.7800 N.4       3 LYS4        0.0000 
     51 NZ        172.8000  211.5800  235.1100 N.4       3 LYS4        0.0000 
     52 NZ        173.9700  208.6400  236.9800 N.4       3 LYS4        0.0000 
     53 NZ        173.1300  209.8800  237.0500 N.4       3 LYS4        0.0000 
     54 NZ        174.2300  210.6600  236.3800 N.4       3 LYS4        0.0000 
     55 CZ        172.0500  212.6900  238.5300 C.ar      4 PHE5        0.0000 
     56 CZ        172.6500  213.0200  239.8700 C.ar      4 PHE5        0.0000 
     57 CA        173.8000  212.4800  231.0900 C.3       5 GLY6        0.0000 
     58 CA        169.6800  211.4000  233.1700 C.3       5 GLY6        0.0000 
     59 CA        170.7800  212.1800  232.5000 C.3       5 GLY6        0.0000 
     60 CA        171.8700  212.9500  231.8300 C.3       5 GLY6        0.0000 
     61 CA        168.8500  212.6500  233.2400 C.3       5 GLY6        0.0000 
     62 CA        169.9400  213.4200  232.5700 C.3       5 GLY6        0.0000 
     63 CA        171.0400  214.1900  231.9000 C.3       5 GLY6        0.0000 
     64 CA        168.0100  213.8900  233.3100 C.3       5 GLY6        0.0000 
     65 CA        175.2300  211.5600  232.3600 C.3       5 GLY6        0.0000 
     66 CA        176.3300  212.3300  231.6900 C.3       5 GLY6        0.0000 
     67 CA        171.1100  210.4800  234.4400 C.3       5 GLY6        0.0000 
     68 CA        172.2100  211.2600  233.7700 C.3       5 GLY6        0.0000 
     69 CA        173.3000  212.0300  233.1000 C.3       5 GLY6        0.0000 
     70 CA        174.4000  212.8000  232.4300 C.3       5 GLY6        0.0000 
     71 CA        167.5100  213.4400  235.3200 C.3       5 GLY6        0.0000 
     72 CA        168.6000  214.2100  234.6500 C.3       5 GLY6        0.0000 
     73 CA        175.5800  213.4500  235.1100 C.3       5 GLY6        0.0000 
     74 CA        176.6800  214.2200  234.4400 C.3       5 GLY6        0.0000 
     75 CA        174.7500  214.6900  235.1800 C.3       5 GLY6        0.0000 
     76 CA        176.1800  213.7700  236.4500 C.3       5 GLY6        0.0000 
     77 CA        176.7700  214.0900  237.7900 C.3       5 GLY6        0.0000 
     78 DU        171.3700  212.5000  233.8400 H         6 CUB7        0.0000 
     79 DU        172.4700  213.2700  233.1700 H         6 CUB7        0.0000 
     80 DU        169.4400  212.9700  234.5800 H         6 CUB7        0.0000 
     81 DU        170.5300  213.7400  233.9100 H         6 CUB7        0.0000 
     82 DU        171.6300  214.5200  233.2400 H         6 CUB7        0.0000 
     83 DU        173.8900  212.3500  234.4400 H         6 CUB7        0.0000 
     84 DU        174.9900  213.1300  233.7700 H         6 CUB7        0.0000 
     85 DU        171.9600  212.8200  235.1800 H         6 CUB7        0.0000 
     86 DU        173.0600  213.6000  234.5100 H         6 CUB7        0.0000 
     87 DU        172.2200  214.8400  234.5800 H         6 CUB7        0.0000 
     88 DU        171.3900  216.0800  234.6500 H         6 CUB7        0.0000 
     89 DU        172.3000  211.1300  237.1200 H         6 CUB7        0.0000 
     90 DU        173.3900  211.9000  236.4500 H         6 CUB7        0.0000 
     91 DU        174.4900  212.6700  235.7800 H         6 CUB7        0.0000 
     92 DU        171.4600  212.3700  237.1900 H         6 CUB7        0.0000 
     93 DU        172.5600  213.1400  236.5200 H         6 CUB7        0.0000 
     94 DU        172.8200  215.1600  235.9200 H         6 CUB7        0.0000 
     95 DU        173.9100  215.9400  235.2500 H         6 CUB7        0.0000 
     96 DU        175.0800  213.0000  237.1200 H         6 CUB7        0.0000 
     97 DU        173.1500  213.4700  237.8600 H         6 CUB7        0.0000 
     98 DU        174.0700  212.1000  241.1400 H         6 CUB7        0.0000 
@<TRIPOS>BOND
@<TRIPOS>SUBSTRUCTURE
     1 SER1        1 GROUP   
     2 ALA2       43 GROUP   
     3 LYS4       45 GROUP   
     4 PHE5       55 GROUP   
     5 GLY6       57 GROUP   
     6 CUB7       78 GROUP   
@<TRIPOS>SET

