#    Name: 6ud4_5_ZK1
#    Modification time : Fri May 22 19:30:11 2020

@<TRIPOS>MOLECULE
6ud4_5_ZK1
   40    42     1     0     0
SMALL
NO_CHARGES


@<TRIPOS>ATOM
      1 OAA       224.3810  199.0580  240.3860 O.2       1 ZK1901      0.0000 
      2 OAB       226.1430  200.4330  238.6330 O.2       1 ZK1901      0.0000 
      3 OAC       224.3250  200.6790  234.0220 O.co2     1 ZK1901      0.0000 
      4 OAD       226.7170  201.2780  234.1720 O.co2     1 ZK1901      0.0000 
      5 OAE       225.8430  199.3500  235.4360 O.co2     1 ZK1901      0.0000 
      6 FAF       217.7710  201.2230  237.3620 F         1 ZK1901      0.0000 
      7 FAG       218.1220  200.0950  235.4780 F         1 ZK1901      0.0000 
      8 FAH       218.1510  202.3170  235.4580 F         1 ZK1901      0.0000 
      9 CAI       222.2240  201.8690  235.8350 C.ar      1 ZK1901      0.0000 
     10 CAJ       220.4640  200.4990  237.5850 C.ar      1 ZK1901      0.0000 
     11 CAK       221.9290  203.1000  232.7100 C.3       1 ZK1901      0.0000 
     12 CAL       220.3250  204.7490  233.2890 C.3       1 ZK1901      0.0000 
     13 CAM       220.9030  202.1000  233.2280 C.3       1 ZK1901      0.0000 
     14 CAN       220.4250  204.0150  234.6250 C.3       1 ZK1901      0.0000 
     15 CAO       225.1550  201.8330  236.3790 C.3       1 ZK1901      0.0000 
     16 NAP       222.4730  199.7520  239.0340 N.am      1 ZK1901      0.0000 
     17 OAQ       221.2660  204.2800  232.3610 O.3       1 ZK1901      0.0000 
     18 CAR       220.8400  201.8760  235.5950 C.ar      1 ZK1901      0.0000 
     19 CAS       219.9590  201.1880  236.4700 C.ar      1 ZK1901      0.0000 
     20 CAT       223.8660  199.7410  239.2840 C.2       1 ZK1901      0.0000 
     21 CAU       224.7680  200.4430  238.3870 C.2       1 ZK1901      0.0000 
     22 CAV       221.9460  200.4850  237.8530 C.ar      1 ZK1901      0.0000 
     23 CAW       222.7830  201.1340  237.0220 C.ar      1 ZK1901      0.0000 
     24 NAX       220.2880  202.5800  234.4520 N.3       1 ZK1901      0.0000 
     25 NAY       224.2480  201.1360  237.2720 N.am      1 ZK1901      0.0000 
     26 CAZ       218.4620  201.2080  236.1870 C.3       1 ZK1901      0.0000 
     27 PBA       225.5300  200.7350  234.9290 P.3       1 ZK1901      0.0000 
     28 HAI       222.7970  202.3190  235.2600 H         1 ZK1901      0.0000 
     29 HAJ       219.8830  200.0510  238.1540 H         1 ZK1901      0.0000 
     30 HAK       222.3640  202.7310  231.9260 H         1 ZK1901      0.0000 
     31 HAKA      222.5930  203.2790  233.3940 H         1 ZK1901      0.0000 
     32 HAL       219.4350  204.6160  232.9270 H         1 ZK1901      0.0000 
     33 HALA      220.4740  205.6950  233.4390 H         1 ZK1901      0.0000 
     34 HAM       220.2120  201.9850  232.5580 H         1 ZK1901      0.0000 
     35 HAMA      221.3370  201.2490  233.3930 H         1 ZK1901      0.0000 
     36 HAN       219.7130  204.3270  235.2030 H         1 ZK1901      0.0000 
     37 HANA      221.2790  204.2180  235.0350 H         1 ZK1901      0.0000 
     38 HAO       225.9780  202.0360  236.8470 H         1 ZK1901      0.0000 
     39 HAOA      224.7510  202.6570  236.0700 H         1 ZK1901      0.0000 
     40 HNAP      221.9360  199.3380  239.5610 H         1 ZK1901      0.0000 
@<TRIPOS>BOND
     1    1   20 2    
     2    2   21 2    
     3    3   27 ar   
     4    4   27 ar   
     5    5   27 ar   
     6    6   26 1    
     7    7   26 1    
     8    8   26 1    
     9    9   18 ar   
    10    9   23 ar   
    11   10   19 ar   
    12    9   28 1    
    13   10   22 ar   
    14   11   13 1    
    15   10   29 1    
    16   11   17 1    
    17   11   30 1    
    18   11   31 1    
    19   12   14 1    
    20   12   17 1    
    21   12   32 1    
    22   12   33 1    
    23   13   24 1    
    24   13   34 1    
    25   13   35 1    
    26   14   24 1    
    27   14   36 1    
    28   14   37 1    
    29   15   25 1    
    30   15   27 1    
    31   15   38 1    
    32   15   39 1    
    33   16   20 am   
    34   16   22 1    
    35   18   19 ar   
    36   16   40 1    
    37   18   24 1    
    38   19   26 1    
    39   20   21 1    
    40   21   25 am   
    41   22   23 ar   
    42   23   25 1    
@<TRIPOS>SUBSTRUCTURE
     1 ZK1901      1 GROUP   
@<TRIPOS>SET

