#    Name: 6ud4_1_ZK1
#    Modification time : Fri May 22 19:29:59 2020

@<TRIPOS>MOLECULE
6ud4_1_ZK1
   40    42     1     0     0
SMALL
NO_CHARGES


@<TRIPOS>ATOM
      1 OAA       213.8200  172.3920  242.3850 O.2       1 ZK1901      0.0000 
      2 OAB       211.1310  171.4760  242.0830 O.2       1 ZK1901      0.0000 
      3 OAC       207.7190  171.6450  239.0270 O.co2     1 ZK1901      0.0000 
      4 OAD       209.6480  173.1790  239.0330 O.co2     1 ZK1901      0.0000 
      5 OAE       208.7510  172.3160  241.1630 O.co2     1 ZK1901      0.0000 
      6 FAF       216.4650  171.0820  235.5070 F         1 ZK1901      0.0000 
      7 FAG       214.8400  171.9390  234.2450 F         1 ZK1901      0.0000 
      8 FAH       215.0450  169.7340  234.4430 F         1 ZK1901      0.0000 
      9 CAI       212.0260  170.4980  237.2320 C.ar      1 ZK1901      0.0000 
     10 CAJ       214.6890  171.4080  237.5430 C.ar      1 ZK1901      0.0000 
     11 CAK       210.8160  170.1410  233.0790 C.3       1 ZK1901      0.0000 
     12 CAL       211.8660  168.0930  233.5070 C.3       1 ZK1901      0.0000 
     13 CAM       211.1900  170.6050  234.4810 C.3       1 ZK1901      0.0000 
     14 CAN       212.3180  168.5770  234.8800 C.3       1 ZK1901      0.0000 
     15 CAO       210.1740  170.5390  239.6190 C.3       1 ZK1901      0.0000 
     16 NAP       214.2430  171.9140  240.0340 N.am      1 ZK1901      0.0000 
     17 OAQ       211.7440  169.1890  232.6450 O.3       1 ZK1901      0.0000 
     18 CAR       212.9050  170.4920  236.1400 C.ar      1 ZK1901      0.0000 
     19 CAS       214.2400  170.9460  236.2960 C.ar      1 ZK1901      0.0000 
     20 CAT       213.3700  171.9310  241.1450 C.2       1 ZK1901      0.0000 
     21 CAU       212.0010  171.4650  240.9910 C.2       1 ZK1901      0.0000 
     22 CAV       213.7520  171.4230  238.7210 C.ar      1 ZK1901      0.0000 
     23 CAW       212.4830  170.9910  238.5780 C.ar      1 ZK1901      0.0000 
     24 NAX       212.4640  170.0150  234.8440 N.3       1 ZK1901      0.0000 
     25 NAY       211.5480  170.9980  239.7370 N.am      1 ZK1901      0.0000 
     26 CAZ       215.1750  170.9250  235.0930 C.3       1 ZK1901      0.0000 
     27 PBA       209.0180  171.9900  239.7150 P.3       1 ZK1901      0.0000 
     28 HAI       211.1540  170.1990  237.1210 H         1 ZK1901      0.0000 
     29 HAJ       215.5630  171.7060  237.6420 H         1 ZK1901      0.0000 
     30 HAK       210.8220  170.9000  232.4760 H         1 ZK1901      0.0000 
     31 HAKA      209.9320  169.7430  233.0990 H         1 ZK1901      0.0000 
     32 HAL       212.5220  167.4730  233.1520 H         1 ZK1901      0.0000 
     33 HALA      211.0060  167.6530  233.5910 H         1 ZK1901      0.0000 
     34 HAM       211.2630  171.5710  234.4970 H         1 ZK1901      0.0000 
     35 HAMA      210.5030  170.3130  235.0990 H         1 ZK1901      0.0000 
     36 HAN       213.1700  168.1720  235.1030 H         1 ZK1901      0.0000 
     37 HANA      211.6530  168.3350  235.5410 H         1 ZK1901      0.0000 
     38 HAO       209.9820  169.9370  240.3530 H         1 ZK1901      0.0000 
     39 HAOA      210.0320  170.0720  238.7850 H         1 ZK1901      0.0000 
     40 HNAP      215.0530  172.1880  240.1160 H         1 ZK1901      0.0000 
@<TRIPOS>BOND
     1    1   20 2    
     2    2   21 2    
     3    3   27 ar   
     4    4   27 ar   
     5    5   27 ar   
     6    6   26 1    
     7    7   26 1    
     8    8   26 1    
     9    9   18 ar   
    10    9   23 ar   
    11   10   19 ar   
    12    9   28 1    
    13   10   22 ar   
    14   11   13 1    
    15   10   29 1    
    16   11   17 1    
    17   11   30 1    
    18   11   31 1    
    19   12   14 1    
    20   12   17 1    
    21   12   32 1    
    22   12   33 1    
    23   13   24 1    
    24   13   34 1    
    25   13   35 1    
    26   14   24 1    
    27   14   36 1    
    28   14   37 1    
    29   15   25 1    
    30   15   27 1    
    31   15   38 1    
    32   15   39 1    
    33   16   20 am   
    34   16   22 1    
    35   18   19 ar   
    36   16   40 1    
    37   18   24 1    
    38   19   26 1    
    39   20   21 1    
    40   21   25 am   
    41   22   23 ar   
    42   23   25 1    
@<TRIPOS>SUBSTRUCTURE
     1 ZK1901      1 GROUP   
@<TRIPOS>SET

