#    Name: 6ud4_3_ZK1_CAVITY_N1_4
#    Modification time : Fri May 22 19:30:04 2020

@<TRIPOS>MOLECULE
6ud4_3_ZK1_CAVITY_N1_4
  110     0     7     0     0
SMALL
NO_CHARGES


@<TRIPOS>ATOM
      1 OG        160.7000  180.2500  229.5300 O.3       1 SER1        0.0000 
      2 OG        161.7900  181.0300  228.8600 O.3       1 SER1        0.0000 
      3 OG        157.9300  181.9700  230.3500 O.3       1 SER1        0.0000 
      4 OG        163.2200  180.1100  230.1300 O.3       1 SER1        0.0000 
      5 OG        161.2900  180.5800  230.8700 O.3       1 SER1        0.0000 
      6 OG        158.5300  182.2900  231.6900 O.3       1 SER1        0.0000 
      7 OG        159.6200  183.0600  231.0100 O.3       1 SER1        0.0000 
      8 OG        160.7200  183.8400  230.3400 O.3       1 SER1        0.0000 
      9 OG        163.5600  178.4100  232.0700 O.3       1 SER1        0.0000 
     10 OG        164.6500  179.1800  231.4000 O.3       1 SER1        0.0000 
     11 OG        162.7200  179.6500  232.1400 O.3       1 SER1        0.0000 
     12 OG        163.8200  180.4300  231.4700 O.3       1 SER1        0.0000 
     13 OG        160.2100  183.3900  232.3500 O.3       1 SER1        0.0000 
     14 OG        159.3800  184.6300  232.4200 O.3       1 SER1        0.0000 
     15 OG        160.4700  185.4000  231.7500 O.3       1 SER1        0.0000 
     16 OG        158.6200  182.1600  235.0400 O.3       1 SER1        0.0000 
     17 OG        158.8800  184.1800  234.4300 O.3       1 SER1        0.0000 
     18 OG        163.3300  183.5600  234.2900 O.3       1 SER1        0.0000 
     19 OG        162.5000  184.8100  234.3600 O.3       1 SER1        0.0000 
     20 OG        157.2800  182.9500  237.1200 O.3       1 SER1        0.0000 
     21 OG        158.3700  183.7300  236.4500 O.3       1 SER1        0.0000 
     22 OG        159.4700  184.5000  235.7700 O.3       1 SER1        0.0000 
     23 OG        160.5600  185.2800  235.1000 O.3       1 SER1        0.0000 
     24 OG        158.6300  185.7500  235.8400 O.3       1 SER1        0.0000 
     25 OG        164.5000  180.6200  236.1600 O.3       1 SER1        0.0000 
     26 OG        165.5900  181.4000  235.4900 O.3       1 SER1        0.0000 
     27 OG        167.7900  182.9400  234.1500 O.3       1 SER1        0.0000 
     28 OG        163.6600  181.8700  236.2300 O.3       1 SER1        0.0000 
     29 OG        164.7600  182.6400  235.5600 O.3       1 SER1        0.0000 
     30 OG        165.8500  183.4100  234.8900 O.3       1 SER1        0.0000 
     31 OG        162.8300  183.1100  236.3000 O.3       1 SER1        0.0000 
     32 OG        160.9000  183.5800  237.0400 O.3       1 SER1        0.0000 
     33 OG        161.9900  184.3500  236.3700 O.3       1 SER1        0.0000 
     34 OG        158.9700  184.0500  237.7800 O.3       1 SER1        0.0000 
     35 OG        162.2500  186.3700  235.7700 O.3       1 SER1        0.0000 
     36 OG        166.1900  181.7200  236.8300 O.3       1 SER1        0.0000 
     37 OG        165.3500  182.9600  236.9000 O.3       1 SER1        0.0000 
     38 OG        166.4500  183.7400  236.2300 O.3       1 SER1        0.0000 
     39 OG        161.4900  183.9000  238.3800 O.3       1 SER1        0.0000 
     40 OG        159.5600  184.3700  239.1200 O.3       1 SER1        0.0000 
     41 O         157.6900  183.5300  231.7600 O.2       2 ALA2        0.0000 
     42 O         164.0800  182.4500  230.8700 O.2       2 ALA2        0.0000 
     43 O         162.1500  182.9200  231.6100 O.2       2 ALA2        0.0000 
     44 O         158.0200  181.8400  233.7000 O.2       2 ALA2        0.0000 
     45 O         159.1200  182.6100  233.0200 O.2       2 ALA2        0.0000 
     46 O         161.3100  184.1600  231.6800 O.2       2 ALA2        0.0000 
     47 N         163.4200  183.4300  237.6400 N.am      2 ALA2        0.0000 
     48 OD1       159.9700  184.9500  233.7600 O.co2     3 ASP3        0.0000 
     49 OD1       161.0700  185.7300  233.0900 O.co2     3 ASP3        0.0000 
     50 OD1       159.1400  186.2000  233.8300 O.co2     3 ASP3        0.0000 
     51 OD1       161.6600  186.0500  234.4300 O.co2     3 ASP3        0.0000 
     52 OD1       159.7300  186.5200  235.1700 O.co2     3 ASP3        0.0000 
     53 OD1       157.8700  183.2800  238.4600 O.co2     3 ASP3        0.0000 
     54 OD1       157.0300  184.5200  238.5300 O.co2     3 ASP3        0.0000 
     55 NZ        164.1500  178.7300  233.4100 N.4       4 LYS4        0.0000 
     56 NZ        163.9100  180.3000  234.8200 N.4       4 LYS4        0.0000 
     57 NZ        166.4300  180.1500  235.4200 N.4       4 LYS4        0.0000 
     58 CZ        162.8100  179.5300  235.4900 C.ar      5 PHE5        0.0000 
     59 CZ        161.9700  180.7700  235.5600 C.ar      5 PHE5        0.0000 
     60 CZ        160.0400  181.2400  236.3100 C.ar      5 PHE5        0.0000 
     61 CZ        161.1400  182.0100  235.6300 C.ar      5 PHE5        0.0000 
     62 CZ        161.7300  182.3400  236.9700 C.ar      5 PHE5        0.0000 
     63 CZ        158.7100  182.0300  238.3900 C.ar      5 PHE5        0.0000 
     64 CZ        159.8000  182.8100  237.7100 C.ar      5 PHE5        0.0000 
     65 CZ        168.1200  181.2500  236.0900 C.ar      5 PHE5        0.0000 
     66 CZ        167.2800  182.4900  236.1600 C.ar      5 PHE5        0.0000 
     67 CZ        162.3200  182.6600  238.3100 C.ar      5 PHE5        0.0000 
     68 CZ        160.3900  183.1300  239.0500 C.ar      5 PHE5        0.0000 
     69 CA        160.2000  179.8000  231.5400 C.3       6 GLY6        0.0000 
     70 CA        162.3900  181.3500  230.2000 C.3       6 GLY6        0.0000 
     71 CA        159.3600  181.0500  231.6200 C.3       6 GLY6        0.0000 
     72 CA        161.5500  182.5900  230.2700 C.3       6 GLY6        0.0000 
     73 CA        157.4300  181.5200  232.3600 C.3       6 GLY6        0.0000 
     74 CA        164.9100  181.2000  230.8000 C.3       6 GLY6        0.0000 
     75 CA        156.9300  181.0700  234.3700 C.3       6 GLY6        0.0000 
     76 CA        158.2800  183.8600  233.0900 C.3       6 GLY6        0.0000 
     77 CA        165.2400  179.5100  232.7400 C.3       6 GLY6        0.0000 
     78 CA        165.5000  181.5200  232.1400 C.3       6 GLY6        0.0000 
     79 CA        164.6700  182.7700  232.2100 C.3       6 GLY6        0.0000 
     80 CA        162.7400  183.2400  232.9500 C.3       6 GLY6        0.0000 
     81 CA        161.9000  184.4800  233.0200 C.3       6 GLY6        0.0000 
     82 CA        165.8400  179.8300  234.0800 C.3       6 GLY6        0.0000 
     83 CA        165.0000  181.0700  234.1500 C.3       6 GLY6        0.0000 
     84 CA        166.1000  181.8500  233.4800 C.3       6 GLY6        0.0000 
     85 CA        165.2600  183.0900  233.5500 C.3       6 GLY6        0.0000 
     86 CA        166.6900  182.1700  234.8200 C.3       6 GLY6        0.0000 
     87 CA        158.1300  185.2900  237.8500 C.3       6 GLY6        0.0000 
     88 CA        167.0200  180.4700  236.7600 C.3       6 GLY6        0.0000 
     89 DU        160.4600  181.8200  230.9400 H         7 CUB7        0.0000 
     90 DU        160.7900  180.1200  232.8800 H         7 CUB7        0.0000 
     91 DU        161.8800  180.9000  232.2100 H         7 CUB7        0.0000 
     92 DU        162.9800  181.6700  231.5400 H         7 CUB7        0.0000 
     93 DU        158.8600  180.6000  233.6300 H         7 CUB7        0.0000 
     94 DU        159.9500  181.3700  232.9500 H         7 CUB7        0.0000 
     95 DU        161.0500  182.1400  232.2800 H         7 CUB7        0.0000 
     96 DU        162.2200  179.2000  234.1500 H         7 CUB7        0.0000 
     97 DU        163.3100  179.9800  233.4800 H         7 CUB7        0.0000 
     98 DU        164.4100  180.7500  232.8100 H         7 CUB7        0.0000 
     99 DU        161.3800  180.4500  234.2200 H         7 CUB7        0.0000 
    100 DU        163.5700  181.9900  232.8800 H         7 CUB7        0.0000 
    101 DU        159.4500  180.9200  234.9700 H         7 CUB7        0.0000 
    102 DU        161.6400  182.4700  233.6200 H         7 CUB7        0.0000 
    103 DU        159.7100  182.9400  234.3600 H         7 CUB7        0.0000 
    104 DU        160.8100  183.7100  233.6900 H         7 CUB7        0.0000 
    105 DU        163.0700  181.5400  234.8900 H         7 CUB7        0.0000 
    106 DU        164.1700  182.3200  234.2200 H         7 CUB7        0.0000 
    107 DU        162.2300  182.7900  234.9600 H         7 CUB7        0.0000 
    108 DU        159.2100  182.4800  236.3800 H         7 CUB7        0.0000 
    109 DU        160.3000  183.2600  235.7000 H         7 CUB7        0.0000 
    110 DU        161.4000  184.0300  235.0300 H         7 CUB7        0.0000 
@<TRIPOS>BOND
@<TRIPOS>SUBSTRUCTURE
     1 SER1        1 GROUP   
     2 ALA2       41 GROUP   
     3 ASP3       48 GROUP   
     4 LYS4       55 GROUP   
     5 PHE5       58 GROUP   
     6 GLY6       69 GROUP   
     7 CUB7       89 GROUP   
@<TRIPOS>SET

