#    Name: 6ud4_4_ZK1
#    Modification time : Fri May 22 19:30:07 2020

@<TRIPOS>MOLECULE
6ud4_4_ZK1
   40    42     1     0     0
SMALL
NO_CHARGES


@<TRIPOS>ATOM
      1 OAA       169.8990  211.3870  242.3580 O.2       1 ZK1901      0.0000 
      2 OAB       172.5930  212.2870  242.0580 O.2       1 ZK1901      0.0000 
      3 OAC       175.9880  212.0320  239.0570 O.co2     1 ZK1901      0.0000 
      4 OAD       175.0280  211.6210  241.2900 O.co2     1 ZK1901      0.0000 
      5 OAE       174.0550  210.5240  239.3040 O.co2     1 ZK1901      0.0000 
      6 FAF       167.2670  212.6980  235.4780 F         1 ZK1901      0.0000 
      7 FAG       168.8900  211.8400  234.2140 F         1 ZK1901      0.0000 
      8 FAH       168.6890  214.0450  234.4160 F         1 ZK1901      0.0000 
      9 CAI       171.7070  213.2670  237.2040 C.ar      1 ZK1901      0.0000 
     10 CAJ       169.0400  212.3710  237.5140 C.ar      1 ZK1901      0.0000 
     11 CAK       172.9270  213.6110  233.0550 C.3       1 ZK1901      0.0000 
     12 CAL       171.8960  215.6680  233.4840 C.3       1 ZK1901      0.0000 
     13 CAM       172.5470  213.1510  234.4570 C.3       1 ZK1901      0.0000 
     14 CAN       171.4310  215.1870  234.8530 C.3       1 ZK1901      0.0000 
     15 CAO       173.5600  213.2180  239.5950 C.3       1 ZK1901      0.0000 
     16 NAP       169.4820  211.8650  240.0050 N.am      1 ZK1901      0.0000 
     17 OAQ       172.0100  214.5730  232.6200 O.3       1 ZK1901      0.0000 
     18 CAR       170.8290  213.2760  236.1120 C.ar      1 ZK1901      0.0000 
     19 CAS       169.4920  212.8290  236.2670 C.ar      1 ZK1901      0.0000 
     20 CAT       170.3530  211.8440  241.1180 C.2       1 ZK1901      0.0000 
     21 CAU       171.7250  212.3020  240.9640 C.2       1 ZK1901      0.0000 
     22 CAV       169.9770  212.3520  238.6920 C.ar      1 ZK1901      0.0000 
     23 CAW       171.2480  212.7770  238.5500 C.ar      1 ZK1901      0.0000 
     24 NAX       171.2750  213.7500  234.8160 N.3       1 ZK1901      0.0000 
     25 NAY       172.1820  212.7660  239.7100 N.am      1 ZK1901      0.0000 
     26 CAZ       168.5570  212.8530  235.0640 C.3       1 ZK1901      0.0000 
     27 PBA       174.7120  211.7790  239.8230 P.3       1 ZK1901      0.0000 
     28 HAI       172.5810  213.5610  237.0930 H         1 ZK1901      0.0000 
     29 HAJ       168.1650  212.0780  237.6130 H         1 ZK1901      0.0000 
     30 HAK       172.9130  212.8520  232.4520 H         1 ZK1901      0.0000 
     31 HAKA      173.8150  213.9990  233.0760 H         1 ZK1901      0.0000 
     32 HAL       171.2490  216.2960  233.1280 H         1 ZK1901      0.0000 
     33 HALA      172.7600  216.0990  233.5740 H         1 ZK1901      0.0000 
     34 HAM       172.4680  212.1860  234.4740 H         1 ZK1901      0.0000 
     35 HAMA      173.2340  213.4400  235.0750 H         1 ZK1901      0.0000 
     36 HAN       170.5810  215.5970  235.0720 H         1 ZK1901      0.0000 
     37 HANA      172.0950  215.4230  235.5190 H         1 ZK1901      0.0000 
     38 HAO       173.7330  213.8710  240.2880 H         1 ZK1901      0.0000 
     39 HAOA      173.7250  213.6230  238.7330 H         1 ZK1901      0.0000 
     40 HNAP      168.6700  211.5950  240.0870 H         1 ZK1901      0.0000 
@<TRIPOS>BOND
     1    1   20 2    
     2    2   21 2    
     3    3   27 ar   
     4    4   27 ar   
     5    5   27 ar   
     6    6   26 1    
     7    7   26 1    
     8    8   26 1    
     9    9   18 ar   
    10    9   23 ar   
    11   10   19 ar   
    12    9   28 1    
    13   10   22 ar   
    14   11   13 1    
    15   10   29 1    
    16   11   17 1    
    17   11   30 1    
    18   11   31 1    
    19   12   14 1    
    20   12   17 1    
    21   12   32 1    
    22   12   33 1    
    23   13   24 1    
    24   13   34 1    
    25   13   35 1    
    26   14   24 1    
    27   14   36 1    
    28   14   37 1    
    29   15   25 1    
    30   15   27 1    
    31   15   38 1    
    32   15   39 1    
    33   16   20 am   
    34   16   22 1    
    35   18   19 ar   
    36   16   40 1    
    37   18   24 1    
    38   19   26 1    
    39   20   21 1    
    40   21   25 am   
    41   22   23 ar   
    42   23   25 1    
@<TRIPOS>SUBSTRUCTURE
     1 ZK1901      1 GROUP   
@<TRIPOS>SET

