#    Name: 6myp_1_TTF_CAVITY_N1_4
#    Modification time : Fri May 22 19:30:34 2020

@<TRIPOS>MOLECULE
6myp_1_TTF_CAVITY_N1_4
    4     0     2     0     0
SMALL
NO_CHARGES


@<TRIPOS>ATOM
      1 OD1         7.9300   30.2600   84.0800 O.co2     1 ASP3        0.0000 
      2 OD1         7.1000   31.5100   83.9800 O.co2     1 ASP3        0.0000 
      3 CA          7.3000   29.7400   82.8300 C.3       2 GLY6        0.0000 
      4 CA          6.8500   29.6200   84.9000 C.3       2 GLY6        0.0000 
@<TRIPOS>BOND
@<TRIPOS>SUBSTRUCTURE
     1 ASP3        1 GROUP   
     2 GLY6        3 GROUP   
@<TRIPOS>SET

