#    Name: 6myp_1_TTF
#    Modification time : Fri May 22 19:30:33 2020

@<TRIPOS>MOLECULE
6myp_1_TTF
   14    14     1     0     0
SMALL
NO_CHARGES


@<TRIPOS>ATOM
      1 C1         10.3080   29.5060   85.0760 C.2       1 TTF202      0.0000 
      2 C2         11.5290   30.1150   85.3550 C.2       1 TTF202      0.0000 
      3 C3         12.5980   29.3960   84.8420 C.2       1 TTF202      0.0000 
      4 S1         12.0690   27.9690   84.0140 S.3       1 TTF202      0.0000 
      5 C4         10.4000   28.3230   84.3530 C.2       1 TTF202      0.0000 
      6 C5         14.0720   29.6130   84.8640 C.2       1 TTF202      0.0000 
      7 O1         14.5420   30.5680   85.4620 O.2       1 TTF202      0.0000 
      8 C6         14.9190   28.6140   84.1030 C.3       1 TTF202      0.0000 
      9 C7         16.3480   28.5050   84.5960 C.2       1 TTF202      0.0000 
     10 C8         17.1970   27.3510   84.1300 C.3       1 TTF202      0.0000 
     11 O2         16.8380   29.3370   85.3410 O.2       1 TTF202      0.0000 
     12 F1         18.4470   27.5570   84.5010 F         1 TTF202      0.0000 
     13 F2         17.1400   27.2540   82.8160 F         1 TTF202      0.0000 
     14 F3         16.7710   26.2320   84.6840 F         1 TTF202      0.0000 
@<TRIPOS>BOND
     1    1    2 1    
     2    1    5 2    
     3    2    3 2    
     4    3    4 1    
     5    3    6 1    
     6    4    5 1    
     7    6    7 2    
     8    6    8 1    
     9    8    9 1    
    10    9   10 1    
    11    9   11 2    
    12   10   12 1    
    13   10   13 1    
    14   10   14 1    
@<TRIPOS>SUBSTRUCTURE
     1 TTF202      1 GROUP   
@<TRIPOS>SET

