#    Name: 6myp_1_TTF_CAVITY_N1_12
#    Modification time : Fri May 22 19:30:34 2020

@<TRIPOS>MOLECULE
6myp_1_TTF_CAVITY_N1_12
   84     0     7     0     0
SMALL
NO_CHARGES


@<TRIPOS>ATOM
      1 OG          0.7600   30.6100   80.3800 O.3       1 SER1        0.0000 
      2 OG          0.5100   28.7200   81.3000 O.3       1 SER1        0.0000 
      3 OG          2.7300   33.6800   79.9000 O.3       1 SER1        0.0000 
      4 OG          2.4700   31.7800   80.8200 O.3       1 SER1        0.0000 
      5 OG          1.6400   33.0300   80.7100 O.3       1 SER1        0.0000 
      6 OG          2.2200   29.8900   81.7400 O.3       1 SER1        0.0000 
      7 OG          1.1400   29.2400   82.5500 O.3       1 SER1        0.0000 
      8 OG         -0.7700   29.8400   83.2600 O.3       1 SER1        0.0000 
      9 OG          3.9300   31.0600   82.1800 O.3       1 SER1        0.0000 
     10 OG          2.8500   30.4100   82.9900 O.3       1 SER1        0.0000 
     11 OG          1.7700   29.7700   83.8100 O.3       1 SER1        0.0000 
     12 OG         -0.1400   30.3700   84.5100 O.3       1 SER1        0.0000 
     13 OG          3.2300   29.0400   85.1700 O.3       1 SER1        0.0000 
     14 OG          6.6500   31.3900   86.0500 O.3       1 SER1        0.0000 
     15 OG          5.8200   32.6400   85.9400 O.3       1 SER1        0.0000 
     16 N           7.1700   33.0000   79.7300 N.am      2 ALA2        0.0000 
     17 N           5.9000   34.1300   81.7000 N.am      2 ALA2        0.0000 
     18 OD1         7.5500   31.6300   81.9100 O.co2     3 ASP3        0.0000 
     19 OD1         6.7200   32.8800   81.8000 O.co2     3 ASP3        0.0000 
     20 OD1         6.4700   30.9900   82.7200 O.co2     3 ASP3        0.0000 
     21 OD1         2.4000   30.2900   85.0600 O.co2     3 ASP3        0.0000 
     22 OD1         1.5700   31.5400   84.9600 O.co2     3 ASP3        0.0000 
     23 OD1         0.4900   30.8900   85.7700 O.co2     3 ASP3        0.0000 
     24 OD1         7.3500   33.4100   83.0600 O.co2     3 ASP3        0.0000 
     25 OD1         7.9300   30.2600   84.0800 O.co2     3 ASP3        0.0000 
     26 OD1         7.1000   31.5100   83.9800 O.co2     3 ASP3        0.0000 
     27 OD1         6.2700   32.7600   83.8700 O.co2     3 ASP3        0.0000 
     28 OD1         6.0200   30.8600   84.7900 O.co2     3 ASP3        0.0000 
     29 OD1         3.8600   29.5700   86.4200 O.co2     3 ASP3        0.0000 
     30 OD1         3.0300   30.8200   86.3200 O.co2     3 ASP3        0.0000 
     31 OD1         2.2000   32.0600   86.2100 O.co2     3 ASP3        0.0000 
     32 OD1         2.8400   32.5900   87.4700 O.co2     3 ASP3        0.0000 
     33 NZ          2.4600   33.9600   85.2900 N.4       4 LYS4        0.0000 
     34 NZ          1.3800   33.3100   86.1000 N.4       4 LYS4        0.0000 
     35 CZ          4.3800   31.1800   80.1100 C.ar      5 PHE5        0.0000 
     36 CZ          3.5500   32.4300   80.0000 C.ar      5 PHE5        0.0000 
     37 CZ          3.3000   30.5400   80.9200 C.ar      5 PHE5        0.0000 
     38 CZ          1.3900   31.1400   81.6300 C.ar      5 PHE5        0.0000 
     39 CZ          0.3100   30.4900   82.4400 C.ar      5 PHE5        0.0000 
     40 CZ          5.8400   30.4600   81.4700 C.ar      5 PHE5        0.0000 
     41 CZ          2.0200   31.6600   82.8900 C.ar      5 PHE5        0.0000 
     42 CZ          1.2000   32.9100   82.7800 C.ar      5 PHE5        0.0000 
     43 CZ          0.9400   31.0100   83.7000 C.ar      5 PHE5        0.0000 
     44 CZ          0.1200   32.2600   83.5900 C.ar      5 PHE5        0.0000 
     45 CZ          6.2200   29.0900   83.6400 C.ar      5 PHE5        0.0000 
     46 CZ          5.3900   30.3400   83.5400 C.ar      5 PHE5        0.0000 
     47 CZ          5.1300   28.4400   84.4600 C.ar      5 PHE5        0.0000 
     48 CZ          4.3100   29.6900   84.3500 C.ar      5 PHE5        0.0000 
     49 CA          5.7100   33.7300   78.3700 C.3       6 GLY6        0.0000 
     50 CA          5.4600   31.8300   79.2900 C.3       6 GLY6        0.0000 
     51 CA          4.6300   33.0800   79.1900 C.3       6 GLY6        0.0000 
     52 CA          3.8100   34.3300   79.0800 C.3       6 GLY6        0.0000 
     53 CA          0.0600   28.5900   83.3600 C.3       6 GLY6        0.0000 
     54 CA          6.3400   34.2500   79.6300 C.3       6 GLY6        0.0000 
     55 CA          6.0900   32.3600   80.5500 C.3       6 GLY6        0.0000 
     56 CA          5.2600   33.6000   80.4400 C.3       6 GLY6        0.0000 
     57 CA          4.4400   34.8500   80.3400 C.3       6 GLY6        0.0000 
     58 CA          4.1800   32.9600   81.2600 C.3       6 GLY6        0.0000 
     59 CA          3.3600   34.2000   81.1500 C.3       6 GLY6        0.0000 
     60 CA          2.2800   33.5600   81.9700 C.3       6 GLY6        0.0000 
     61 CA          0.6900   29.1200   84.6200 C.3       6 GLY6        0.0000 
     62 CA          7.3000   29.7400   82.8300 C.3       6 GLY6        0.0000 
     63 CA          4.8200   33.4800   82.5100 C.3       6 GLY6        0.0000 
     64 CA          2.9100   34.0800   83.2200 C.3       6 GLY6        0.0000 
     65 CA          6.8500   29.6200   84.9000 C.3       6 GLY6        0.0000 
     66 CA          4.3700   33.3600   84.5800 C.3       6 GLY6        0.0000 
     67 CA          3.5400   34.6100   84.4800 C.3       6 GLY6        0.0000 
     68 CA          5.7700   28.9700   85.7100 C.3       6 GLY6        0.0000 
     69 CA          5.0000   33.8800   85.8400 C.3       6 GLY6        0.0000 
     70 CA          3.9200   33.2400   86.6500 C.3       6 GLY6        0.0000 
     71 CA          3.0900   34.4800   86.5500 C.3       6 GLY6        0.0000 
     72 DU          5.0100   31.7100   81.3600 H         7 CUB7        0.0000 
     73 DU          3.1000   32.3100   82.0700 H         7 CUB7        0.0000 
     74 DU          5.6400   32.2300   82.6200 H         7 CUB7        0.0000 
     75 DU          4.5600   31.5900   83.4300 H         7 CUB7        0.0000 
     76 DU          3.7300   32.8300   83.3300 H         7 CUB7        0.0000 
     77 DU          3.4800   30.9400   84.2500 H         7 CUB7        0.0000 
     78 DU          2.6500   32.1900   84.1400 H         7 CUB7        0.0000 
     79 DU          1.8300   33.4300   84.0400 H         7 CUB7        0.0000 
     80 DU          0.7500   32.7900   84.8500 H         7 CUB7        0.0000 
     81 DU          5.1900   32.1100   84.6900 H         7 CUB7        0.0000 
     82 DU          4.9400   30.2200   85.6100 H         7 CUB7        0.0000 
     83 DU          4.1100   31.4600   85.5000 H         7 CUB7        0.0000 
     84 DU          3.2900   32.7100   85.4000 H         7 CUB7        0.0000 
@<TRIPOS>BOND
@<TRIPOS>SUBSTRUCTURE
     1 SER1        1 GROUP   
     2 ALA2       16 GROUP   
     3 ASP3       18 GROUP   
     4 LYS4       33 GROUP   
     5 PHE5       35 GROUP   
     6 GLY6       49 GROUP   
     7 CUB7       72 GROUP   
@<TRIPOS>SET

