#    Name: 6myp_1_TTF_CAVITY_N1_6
#    Modification time : Fri May 22 19:30:34 2020

@<TRIPOS>MOLECULE
6myp_1_TTF_CAVITY_N1_6
   20     0     5     0     0
SMALL
NO_CHARGES


@<TRIPOS>ATOM
      1 OG          6.6500   31.3900   86.0500 O.3       1 SER1        0.0000 
      2 OG          5.8200   32.6400   85.9400 O.3       1 SER1        0.0000 
      3 OD1         7.5500   31.6300   81.9100 O.co2     2 ASP3        0.0000 
      4 OD1         6.7200   32.8800   81.8000 O.co2     2 ASP3        0.0000 
      5 OD1         6.4700   30.9900   82.7200 O.co2     2 ASP3        0.0000 
      6 OD1         7.3500   33.4100   83.0600 O.co2     2 ASP3        0.0000 
      7 OD1         7.9300   30.2600   84.0800 O.co2     2 ASP3        0.0000 
      8 OD1         7.1000   31.5100   83.9800 O.co2     2 ASP3        0.0000 
      9 OD1         6.2700   32.7600   83.8700 O.co2     2 ASP3        0.0000 
     10 OD1         6.0200   30.8600   84.7900 O.co2     2 ASP3        0.0000 
     11 CZ          5.8400   30.4600   81.4700 C.ar      3 PHE5        0.0000 
     12 CZ          6.2200   29.0900   83.6400 C.ar      3 PHE5        0.0000 
     13 CZ          5.3900   30.3400   83.5400 C.ar      3 PHE5        0.0000 
     14 CZ          5.1300   28.4400   84.4600 C.ar      3 PHE5        0.0000 
     15 CA          7.3000   29.7400   82.8300 C.3       4 GLY6        0.0000 
     16 CA          6.8500   29.6200   84.9000 C.3       4 GLY6        0.0000 
     17 CA          5.7700   28.9700   85.7100 C.3       4 GLY6        0.0000 
     18 DU          5.6400   32.2300   82.6200 H         5 CUB7        0.0000 
     19 DU          5.1900   32.1100   84.6900 H         5 CUB7        0.0000 
     20 DU          4.9400   30.2200   85.6100 H         5 CUB7        0.0000 
@<TRIPOS>BOND
@<TRIPOS>SUBSTRUCTURE
     1 SER1        1 GROUP   
     2 ASP3        3 GROUP   
     3 PHE5       11 GROUP   
     4 GLY6       15 GROUP   
     5 CUB7       18 GROUP   
@<TRIPOS>SET

