#    Name: 6myp_1_TTF_CAVITY_N1_8
#    Modification time : Fri May 22 19:30:34 2020

@<TRIPOS>MOLECULE
6myp_1_TTF_CAVITY_N1_8
   43     0     6     0     0
SMALL
NO_CHARGES


@<TRIPOS>ATOM
      1 OG          3.9300   31.0600   82.1800 O.3       1 SER1        0.0000 
      2 OG          2.8500   30.4100   82.9900 O.3       1 SER1        0.0000 
      3 OG          3.2300   29.0400   85.1700 O.3       1 SER1        0.0000 
      4 OG          6.6500   31.3900   86.0500 O.3       1 SER1        0.0000 
      5 OG          5.8200   32.6400   85.9400 O.3       1 SER1        0.0000 
      6 N           7.1700   33.0000   79.7300 N.am      2 ALA2        0.0000 
      7 N           5.9000   34.1300   81.7000 N.am      2 ALA2        0.0000 
      8 OD1         7.5500   31.6300   81.9100 O.co2     3 ASP3        0.0000 
      9 OD1         6.7200   32.8800   81.8000 O.co2     3 ASP3        0.0000 
     10 OD1         6.4700   30.9900   82.7200 O.co2     3 ASP3        0.0000 
     11 OD1         2.4000   30.2900   85.0600 O.co2     3 ASP3        0.0000 
     12 OD1         7.3500   33.4100   83.0600 O.co2     3 ASP3        0.0000 
     13 OD1         7.9300   30.2600   84.0800 O.co2     3 ASP3        0.0000 
     14 OD1         7.1000   31.5100   83.9800 O.co2     3 ASP3        0.0000 
     15 OD1         6.2700   32.7600   83.8700 O.co2     3 ASP3        0.0000 
     16 OD1         6.0200   30.8600   84.7900 O.co2     3 ASP3        0.0000 
     17 OD1         3.8600   29.5700   86.4200 O.co2     3 ASP3        0.0000 
     18 OD1         3.0300   30.8200   86.3200 O.co2     3 ASP3        0.0000 
     19 CZ          4.3800   31.1800   80.1100 C.ar      4 PHE5        0.0000 
     20 CZ          5.8400   30.4600   81.4700 C.ar      4 PHE5        0.0000 
     21 CZ          6.2200   29.0900   83.6400 C.ar      4 PHE5        0.0000 
     22 CZ          5.3900   30.3400   83.5400 C.ar      4 PHE5        0.0000 
     23 CZ          5.1300   28.4400   84.4600 C.ar      4 PHE5        0.0000 
     24 CZ          4.3100   29.6900   84.3500 C.ar      4 PHE5        0.0000 
     25 CA          5.4600   31.8300   79.2900 C.3       5 GLY6        0.0000 
     26 CA          6.0900   32.3600   80.5500 C.3       5 GLY6        0.0000 
     27 CA          5.2600   33.6000   80.4400 C.3       5 GLY6        0.0000 
     28 CA          7.3000   29.7400   82.8300 C.3       5 GLY6        0.0000 
     29 CA          4.8200   33.4800   82.5100 C.3       5 GLY6        0.0000 
     30 CA          6.8500   29.6200   84.9000 C.3       5 GLY6        0.0000 
     31 CA          4.3700   33.3600   84.5800 C.3       5 GLY6        0.0000 
     32 CA          5.7700   28.9700   85.7100 C.3       5 GLY6        0.0000 
     33 CA          5.0000   33.8800   85.8400 C.3       5 GLY6        0.0000 
     34 CA          3.9200   33.2400   86.6500 C.3       5 GLY6        0.0000 
     35 DU          5.0100   31.7100   81.3600 H         6 CUB7        0.0000 
     36 DU          5.6400   32.2300   82.6200 H         6 CUB7        0.0000 
     37 DU          4.5600   31.5900   83.4300 H         6 CUB7        0.0000 
     38 DU          3.7300   32.8300   83.3300 H         6 CUB7        0.0000 
     39 DU          3.4800   30.9400   84.2500 H         6 CUB7        0.0000 
     40 DU          5.1900   32.1100   84.6900 H         6 CUB7        0.0000 
     41 DU          4.9400   30.2200   85.6100 H         6 CUB7        0.0000 
     42 DU          4.1100   31.4600   85.5000 H         6 CUB7        0.0000 
     43 DU          3.2900   32.7100   85.4000 H         6 CUB7        0.0000 
@<TRIPOS>BOND
@<TRIPOS>SUBSTRUCTURE
     1 SER1        1 GROUP   
     2 ALA2        6 GROUP   
     3 ASP3        8 GROUP   
     4 PHE5       19 GROUP   
     5 GLY6       25 GROUP   
     6 CUB7       35 GROUP   
@<TRIPOS>SET

