#    Name: 6cp6_2_ATP
#    Modification time : Fri May 22 19:35:57 2020

@<TRIPOS>MOLECULE
6cp6_2_ATP
   31    33     1     0     1
SMALL
NO_CHARGES


@<TRIPOS>ATOM
      1 PG         -3.6180   21.8390   47.7680 P.3       1 ATP600      0.0000 
      2 O1G        -4.9100   21.0730   47.8020 O.co2     1 ATP600      0.0000 
      3 O2G        -3.7070   23.2520   48.2820 O.co2     1 ATP600      0.0000 
      4 O3G        -2.4100   21.0690   48.2270 O.co2     1 ATP600      0.0000 
      5 PB         -4.5620   22.4360   45.2630 P.3       1 ATP600      0.0000 
      6 O1B        -5.0790   21.2340   44.5250 O.co2     1 ATP600      0.0000 
      7 O2B        -5.4820   23.3440   46.0260 O.co2     1 ATP600      0.0000 
      8 O3B        -3.3520   21.9950   46.2040 O.3       1 ATP600      0.0000 
      9 PA         -3.5000   24.8430   44.6210 P.3       1 ATP600      0.0000 
     10 O1A        -4.7390   25.6610   44.3770 O.co2     1 ATP600      0.0000 
     11 O2A        -2.8840   24.8170   45.9920 O.co2     1 ATP600      0.0000 
     12 O3A        -3.7890   23.3300   44.2080 O.3       1 ATP600      0.0000 
     13 O5'        -2.3870   25.2030   43.5260 O.3       1 ATP600      0.0000 
     14 C5'        -1.5620   24.1510   43.0420 C.3       1 ATP600      0.0000 
     15 C4'        -0.6480   24.6840   41.9560 C.3       1 ATP600      0.0000 
     16 O4'        -1.3970   24.9570   40.7760 O.3       1 ATP600      0.0000 
     17 C3'        -0.0040   25.9870   42.3780 C.3       1 ATP600      0.0000 
     18 O3'         1.4090   25.7990   42.4540 O.3       1 ATP600      0.0000 
     19 C2'        -0.3210   26.9750   41.2790 C.3       1 ATP600      0.0000 
     20 O2'         0.8800   27.5800   40.8100 O.3       1 ATP600      0.0000 
     21 C1'        -0.9020   26.1400   40.1610 C.3       1 ATP600      0.0000 
     22 N9         -2.0050   26.8350   39.4730 N.pl3     1 ATP600      0.0000 
     23 C8         -3.2830   26.4370   39.4530 C.2       1 ATP600      0.0000 
     24 N7         -4.0490   27.2820   38.7250 N.2       1 ATP600      0.0000 
     25 C5         -3.2430   28.2450   38.2630 C.ar      1 ATP600      0.0000 
     26 C6         -3.4040   29.4470   37.4280 C.ar      1 ATP600      0.0000 
     27 N6         -4.6070   29.8070   36.9300 N.pl3     1 ATP600      0.0000 
     28 N1         -2.2980   30.1760   37.1810 N.ar      1 ATP600      0.0000 
     29 C2         -1.0870   29.8350   37.6640 C.ar      1 ATP600      0.0000 
     30 N3         -0.8760   28.7600   38.4320 N.ar      1 ATP600      0.0000 
     31 C4         -1.8960   27.9420   38.7530 C.ar      1 ATP600      0.0000 
@<TRIPOS>BOND
     1    1    2 ar   
     2    1    3 ar   
     3    1    4 ar   
     4    1    8 1    
     5    5    6 ar   
     6    5    7 ar   
     7    5    8 1    
     8    5   12 1    
     9    9   10 ar   
    10    9   11 ar   
    11    9   12 1    
    12    9   13 1    
    13   13   14 1    
    14   14   15 1    
    15   15   16 1    
    16   15   17 1    
    17   16   21 1    
    18   17   18 1    
    19   17   19 1    
    20   19   20 1    
    21   19   21 1    
    22   21   22 1    
    23   22   23 1    
    24   22   31 1    
    25   23   24 2    
    26   24   25 1    
    27   25   26 ar   
    28   25   31 ar   
    29   26   27 1    
    30   26   28 ar   
    31   28   29 ar   
    32   29   30 ar   
    33   30   31 ar   
@<TRIPOS>SUBSTRUCTURE
     1 ATP600      1 GROUP   
@<TRIPOS>SET
ATOM$ORANGE STATIC     ATOMS   COLORGROUP SYSTEM 
20 14 14 15 15 17 17 19 19 21 21 23 23 25 25 26 26 29 \
29 31 31 

