#    Name: 6cp6_3_ATP
#    Modification time : Fri May 22 19:36:08 2020

@<TRIPOS>MOLECULE
6cp6_3_ATP
   31    33     1     0     1
SMALL
NO_CHARGES


@<TRIPOS>ATOM
      1 PG        -36.7380  -12.4640   44.3450 P.3       1 ATP600      0.0000 
      2 O1G       -37.1300  -13.5660   45.2930 O.co2     1 ATP600      0.0000 
      3 O2G       -37.7650  -11.3800   44.1530 O.co2     1 ATP600      0.0000 
      4 O3G       -35.3350  -11.9700   44.5210 O.co2     1 ATP600      0.0000 
      5 PB        -37.9060  -14.0620   42.4670 P.3       1 ATP600      0.0000 
      6 O1B       -37.4610  -15.4860   42.3490 O.co2     1 ATP600      0.0000 
      7 O2B       -39.1240  -13.7110   43.2760 O.co2     1 ATP600      0.0000 
      8 O3B       -36.6640  -13.1830   42.9240 O.3       1 ATP600      0.0000 
      9 PA        -39.6390  -13.6440   40.5000 P.3       1 ATP600      0.0000 
     10 O1A       -40.0510  -15.0730   40.7490 O.co2     1 ATP600      0.0000 
     11 O2A       -40.4410  -12.5010   41.0660 O.co2     1 ATP600      0.0000 
     12 O3A       -38.1300  -13.5210   40.9920 O.3       1 ATP600      0.0000 
     13 O5'       -39.4570  -13.3840   38.9370 O.3       1 ATP600      0.0000 
     14 C5'       -38.8680  -12.1510   38.5510 C.3       1 ATP600      0.0000 
     15 C4'       -39.6740  -11.6020   37.3920 C.3       1 ATP600      0.0000 
     16 O4'       -39.2840  -12.2650   36.1960 O.3       1 ATP600      0.0000 
     17 C3'       -41.1460  -11.8780   37.6220 C.3       1 ATP600      0.0000 
     18 O3'       -41.8710  -10.6490   37.6180 O.3       1 ATP600      0.0000 
     19 C2'       -41.5840  -12.7430   36.4660 C.3       1 ATP600      0.0000 
     20 O2'       -42.7060  -12.1570   35.8110 O.3       1 ATP600      0.0000 
     21 C1'       -40.4130  -12.7890   35.5090 C.3       1 ATP600      0.0000 
     22 N9        -40.1140  -14.1910   35.1710 N.pl3     1 ATP600      0.0000 
     23 C8        -39.5000  -15.0520   35.9900 C.2       1 ATP600      0.0000 
     24 N7        -39.3580  -16.2630   35.4040 N.2       1 ATP600      0.0000 
     25 C5        -39.8900  -16.1800   34.1780 C.ar      1 ATP600      0.0000 
     26 C6        -40.0700  -17.0970   33.0370 C.ar      1 ATP600      0.0000 
     27 N6        -39.6400  -18.3780   33.0910 N.pl3     1 ATP600      0.0000 
     28 N1        -40.6770  -16.6160   31.9370 N.ar      1 ATP600      0.0000 
     29 C2        -41.1040  -15.3450   31.8700 C.ar      1 ATP600      0.0000 
     30 N3        -40.9750  -14.4600   32.8700 N.ar      1 ATP600      0.0000 
     31 C4        -40.3870  -14.8110   34.0290 C.ar      1 ATP600      0.0000 
@<TRIPOS>BOND
     1    1    2 ar   
     2    1    3 ar   
     3    1    4 ar   
     4    1    8 1    
     5    5    6 ar   
     6    5    7 ar   
     7    5    8 1    
     8    5   12 1    
     9    9   10 ar   
    10    9   11 ar   
    11    9   12 1    
    12    9   13 1    
    13   13   14 1    
    14   14   15 1    
    15   15   16 1    
    16   15   17 1    
    17   16   21 1    
    18   17   18 1    
    19   17   19 1    
    20   19   20 1    
    21   19   21 1    
    22   21   22 1    
    23   22   23 1    
    24   22   31 1    
    25   23   24 2    
    26   24   25 1    
    27   25   26 ar   
    28   25   31 ar   
    29   26   27 1    
    30   26   28 ar   
    31   28   29 ar   
    32   29   30 ar   
    33   30   31 ar   
@<TRIPOS>SUBSTRUCTURE
     1 ATP600      1 GROUP   
@<TRIPOS>SET
ATOM$ORANGE STATIC     ATOMS   COLORGROUP SYSTEM 
20 14 14 15 15 17 17 19 19 21 21 23 23 25 25 26 26 29 \
29 31 31 

