#    Name: 6cp6_4_ADP
#    Modification time : Fri May 22 19:36:19 2020

@<TRIPOS>MOLECULE
6cp6_4_ADP
   27    29     1     0     1
SMALL
NO_CHARGES


@<TRIPOS>ATOM
      1 PB        -17.5510  -32.9600   46.6060 P.3       1 ADP600      0.0000 
      2 O1B       -16.5960  -34.0850   46.8740 O.co2     1 ADP600      0.0000 
      3 O2B       -18.8270  -33.0490   47.4010 O.co2     1 ADP600      0.0000 
      4 O3B       -16.9760  -31.5740   46.5440 O.co2     1 ADP600      0.0000 
      5 PA        -18.6900  -34.5370   44.6380 P.3       1 ADP600      0.0000 
      6 O1A       -17.7030  -35.6650   44.7030 O.co2     1 ADP600      0.0000 
      7 O2A       -20.0050  -34.6170   45.3610 O.co2     1 ADP600      0.0000 
      8 O3A       -17.9590  -33.1900   45.0770 O.3       1 ADP600      0.0000 
      9 O5'       -19.0280  -34.2060   43.1140 O.3       1 ADP600      0.0000 
     10 C5'       -20.3400  -34.5150   42.6790 C.3       1 ADP600      0.0000 
     11 C4'       -20.5770  -33.9210   41.3070 C.3       1 ADP600      0.0000 
     12 O4'       -19.3850  -34.0160   40.5330 O.3       1 ADP600      0.0000 
     13 C3'       -21.6550  -34.7080   40.5950 C.3       1 ADP600      0.0000 
     14 O3'       -22.6840  -33.8250   40.1470 O.3       1 ADP600      0.0000 
     15 C2'       -20.9640  -35.3360   39.4110 C.3       1 ADP600      0.0000 
     16 O2'       -21.7370  -35.1760   38.2240 O.3       1 ADP600      0.0000 
     17 C1'       -19.6630  -34.5860   39.2600 C.3       1 ADP600      0.0000 
     18 N9        -18.5890  -35.5430   38.9510 N.pl3     1 ADP600      0.0000 
     19 C8        -17.5070  -35.7200   39.7130 C.2       1 ADP600      0.0000 
     20 N7        -16.6820  -36.6510   39.1900 N.2       1 ADP600      0.0000 
     21 C5        -17.2560  -37.0910   38.0680 C.ar      1 ADP600      0.0000 
     22 C6        -16.8990  -38.0640   37.0260 C.ar      1 ADP600      0.0000 
     23 N6        -15.7580  -38.7810   37.1180 N.pl3     1 ADP600      0.0000 
     24 N1        -17.7530  -38.2350   36.0000 N.ar      1 ADP600      0.0000 
     25 C2        -18.8950  -37.5360   35.9140 C.ar      1 ADP600      0.0000 
     26 N3        -19.2700  -36.6180   36.8180 N.ar      1 ADP600      0.0000 
     27 C4        -18.5080  -36.3540   37.9010 C.ar      1 ADP600      0.0000 
@<TRIPOS>BOND
     1    1    2 ar   
     2    1    3 ar   
     3    1    4 ar   
     4    1    8 1    
     5    5    6 ar   
     6    5    7 ar   
     7    5    8 1    
     8    5    9 1    
     9    9   10 1    
    10   10   11 1    
    11   11   12 1    
    12   11   13 1    
    13   12   17 1    
    14   13   14 1    
    15   13   15 1    
    16   15   16 1    
    17   15   17 1    
    18   17   18 1    
    19   18   19 1    
    20   18   27 1    
    21   19   20 2    
    22   20   21 1    
    23   21   22 ar   
    24   21   27 ar   
    25   22   23 1    
    26   22   24 ar   
    27   24   25 ar   
    28   25   26 ar   
    29   26   27 ar   
@<TRIPOS>SUBSTRUCTURE
     1 ADP600      1 GROUP   
@<TRIPOS>SET
ATOM$ORANGE STATIC     ATOMS   COLORGROUP SYSTEM 
20 10 10 11 11 13 13 15 15 17 17 19 19 21 21 22 22 25 \
25 27 27 

