#    Name: 6cp6_5_ADP
#    Modification time : Fri May 22 19:36:30 2020

@<TRIPOS>MOLECULE
6cp6_5_ADP
   27    29     1     0     1
SMALL
NO_CHARGES


@<TRIPOS>ATOM
      1 PB        -30.5580   14.0460   45.1990 P.3       1 ADP600      0.0000 
      2 O1B       -29.2920   13.2430   45.3110 O.co2     1 ADP600      0.0000 
      3 O2B       -31.7990   13.2650   44.8570 O.co2     1 ADP600      0.0000 
      4 O3B       -30.7510   15.0780   46.2780 O.co2     1 ADP600      0.0000 
      5 PA        -30.6310   14.2800   42.4530 P.3       1 ADP600      0.0000 
      6 O1A       -30.2950   12.8110   42.4490 O.co2     1 ADP600      0.0000 
      7 O2A       -31.9950   14.7320   42.0070 O.co2     1 ADP600      0.0000 
      8 O3A       -30.3110   14.9130   43.8830 O.3       1 ADP600      0.0000 
      9 O5'       -29.5540   15.0310   41.5510 O.3       1 ADP600      0.0000 
     10 C5'       -30.0250   15.9260   40.5590 C.3       1 ADP600      0.0000 
     11 C4'       -28.9360   16.0910   39.5280 C.3       1 ADP600      0.0000 
     12 O4'       -29.2650   15.2850   38.4050 O.3       1 ADP600      0.0000 
     13 C3'       -28.8740   17.5250   39.0580 C.3       1 ADP600      0.0000 
     14 O3'       -27.5580   18.0260   39.2790 O.3       1 ADP600      0.0000 
     15 C2'       -29.1480   17.4860   37.5760 C.3       1 ADP600      0.0000 
     16 O2'       -28.1210   18.1600   36.8550 O.3       1 ADP600      0.0000 
     17 C1'       -29.1230   16.0270   37.2020 C.3       1 ADP600      0.0000 
     18 N9        -30.2950   15.8000   36.3510 N.pl3     1 ADP600      0.0000 
     19 C8        -31.4470   15.2350   36.7290 C.2       1 ADP600      0.0000 
     20 N7        -32.3220   15.1730   35.7030 N.2       1 ADP600      0.0000 
     21 C5        -31.7190   15.7310   34.6500 C.ar      1 ADP600      0.0000 
     22 C6        -32.0810   15.9920   33.2550 C.ar      1 ADP600      0.0000 
     23 N6        -33.2980   15.6350   32.7870 N.pl3     1 ADP600      0.0000 
     24 N1        -31.1590   16.5850   32.4730 N.ar      1 ADP600      0.0000 
     25 C2        -29.9510   16.9390   32.9430 C.ar      1 ADP600      0.0000 
     26 N3        -29.5510   16.7260   34.2030 N.ar      1 ADP600      0.0000 
     27 C4        -30.3850   16.1430   35.0820 C.ar      1 ADP600      0.0000 
@<TRIPOS>BOND
     1    1    2 ar   
     2    1    3 ar   
     3    1    4 ar   
     4    1    8 1    
     5    5    6 ar   
     6    5    7 ar   
     7    5    8 1    
     8    5    9 1    
     9    9   10 1    
    10   10   11 1    
    11   11   12 1    
    12   11   13 1    
    13   12   17 1    
    14   13   14 1    
    15   13   15 1    
    16   15   16 1    
    17   15   17 1    
    18   17   18 1    
    19   18   19 1    
    20   18   27 1    
    21   19   20 2    
    22   20   21 1    
    23   21   22 ar   
    24   21   27 ar   
    25   22   23 1    
    26   22   24 ar   
    27   24   25 ar   
    28   25   26 ar   
    29   26   27 ar   
@<TRIPOS>SUBSTRUCTURE
     1 ADP600      1 GROUP   
@<TRIPOS>SET
ATOM$ORANGE STATIC     ATOMS   COLORGROUP SYSTEM 
20 10 10 11 11 13 13 15 15 17 17 19 19 21 21 22 22 25 \
25 27 27 

