#    Name: 6cp6_1_ATP
#    Modification time : Fri May 22 19:35:45 2020

@<TRIPOS>MOLECULE
6cp6_1_ATP
   31    33     1     0     1
SMALL
NO_CHARGES


@<TRIPOS>ATOM
      1 PG          7.4150  -25.8780   50.4570 P.3       1 ATP600      0.0000 
      2 O1G         8.0400  -25.7820   51.8240 O.co2     1 ATP600      0.0000 
      3 O2G         7.1730  -27.2690   49.9430 O.co2     1 ATP600      0.0000 
      4 O3G         6.2520  -24.9560   50.2450 O.co2     1 ATP600      0.0000 
      5 PB          9.8840  -26.1210   49.2970 P.3       1 ATP600      0.0000 
      6 O1B        11.0200  -25.1670   49.1360 O.co2     1 ATP600      0.0000 
      7 O2B         9.9740  -27.1930   50.3460 O.co2     1 ATP600      0.0000 
      8 O3B         8.5180  -25.3150   49.4460 O.3       1 ATP600      0.0000 
      9 PA         10.5150  -28.1900   47.7700 P.3       1 ATP600      0.0000 
     10 O1A        11.9030  -27.9020   48.2810 O.co2     1 ATP600      0.0000 
     11 O2A         9.6820  -29.2730   48.3950 O.co2     1 ATP600      0.0000 
     12 O3A         9.7050  -26.8260   47.8830 O.3       1 ATP600      0.0000 
     13 O5'        10.5610  -28.4460   46.1950 O.3       1 ATP600      0.0000 
     14 C5'         9.3440  -28.7050   45.5160 C.3       1 ATP600      0.0000 
     15 C4'         9.6270  -29.7480   44.4560 C.3       1 ATP600      0.0000 
     16 O4'        10.3430  -29.1790   43.3620 O.3       1 ATP600      0.0000 
     17 C3'        10.4980  -30.8360   45.0460 C.3       1 ATP600      0.0000 
     18 O3'         9.8050  -32.0790   44.9620 O.3       1 ATP600      0.0000 
     19 C2'        11.7250  -30.8850   44.1690 C.3       1 ATP600      0.0000 
     20 O2'        12.0190  -32.2280   43.7950 O.3       1 ATP600      0.0000 
     21 C1'        11.3610  -30.0810   42.9440 C.3       1 ATP600      0.0000 
     22 N9         12.5540  -29.3410   42.5020 N.pl3     1 ATP600      0.0000 
     23 C8         12.8520  -28.0720   42.8060 C.2       1 ATP600      0.0000 
     24 N7         14.0260  -27.7020   42.2390 N.2       1 ATP600      0.0000 
     25 C5         14.4940  -28.7580   41.5620 C.ar      1 ATP600      0.0000 
     26 C6         15.6770  -29.0540   40.7320 C.ar      1 ATP600      0.0000 
     27 N6         16.6420  -28.1330   40.5150 N.pl3     1 ATP600      0.0000 
     28 N1         15.7860  -30.2900   40.2100 N.ar      1 ATP600      0.0000 
     29 C2         14.8460  -31.2250   40.4180 C.ar      1 ATP600      0.0000 
     30 N3         13.7450  -31.0220   41.1560 N.ar      1 ATP600      0.0000 
     31 C4         13.5190  -29.8310   41.7400 C.ar      1 ATP600      0.0000 
@<TRIPOS>BOND
     1    1    2 ar   
     2    1    3 ar   
     3    1    4 ar   
     4    1    8 1    
     5    5    6 ar   
     6    5    7 ar   
     7    5    8 1    
     8    5   12 1    
     9    9   10 ar   
    10    9   11 ar   
    11    9   12 1    
    12    9   13 1    
    13   13   14 1    
    14   14   15 1    
    15   15   16 1    
    16   15   17 1    
    17   16   21 1    
    18   17   18 1    
    19   17   19 1    
    20   19   20 1    
    21   19   21 1    
    22   21   22 1    
    23   22   23 1    
    24   22   31 1    
    25   23   24 2    
    26   24   25 1    
    27   25   26 ar   
    28   25   31 ar   
    29   26   27 1    
    30   26   28 ar   
    31   28   29 ar   
    32   29   30 ar   
    33   30   31 ar   
@<TRIPOS>SUBSTRUCTURE
     1 ATP600      1 GROUP   
@<TRIPOS>SET
ATOM$ORANGE STATIC     ATOMS   COLORGROUP SYSTEM 
20 14 14 15 15 17 17 19 19 21 21 23 23 25 25 26 26 29 \
29 31 31 

