#    Name: 6hed_1_ATP
#    Modification time : Fri May 22 19:36:08 2020

@<TRIPOS>MOLECULE
6hed_1_ATP
   31    33     1     0     1
SMALL
NO_CHARGES


@<TRIPOS>ATOM
      1 PG        267.5000  237.7830  369.2490 P.3       1 ATP401      0.0000 
      2 O1G       268.2090  238.4250  368.0320 O.co2     1 ATP401      0.0000 
      3 O2G       267.4070  238.7810  370.4430 O.co2     1 ATP401      0.0000 
      4 O3G       266.1340  237.2130  368.9050 O.co2     1 ATP401      0.0000 
      5 PB        270.0190  235.7170  370.5320 P.3       1 ATP401      0.0000 
      6 O1B       271.1470  235.6130  369.5430 O.co2     1 ATP401      0.0000 
      7 O2B       270.1930  236.5900  371.7590 O.co2     1 ATP401      0.0000 
      8 O3B       268.5690  236.4530  369.7120 O.3       1 ATP401      0.0000 
      9 PA        269.3890  232.8830  372.1930 P.3       1 ATP401      0.0000 
     10 O1A       270.7130  232.4080  372.6240 O.co2     1 ATP401      0.0000 
     11 O2A       268.4780  233.3990  373.2220 O.co2     1 ATP401      0.0000 
     12 O3A       269.5010  234.1100  371.0030 O.3       1 ATP401      0.0000 
     13 O5'       268.7000  231.6510  371.4040 O.3       1 ATP401      0.0000 
     14 C5'       267.8600  230.7390  372.0950 C.3       1 ATP401      0.0000 
     15 C4'       268.4890  229.3760  372.6020 C.3       1 ATP401      0.0000 
     16 O4'       269.0230  228.7180  371.5040 O.3       1 ATP401      0.0000 
     17 C3'       269.5910  229.2840  373.6930 C.3       1 ATP401      0.0000 
     18 O3'       269.1660  229.5410  375.0810 O.3       1 ATP401      0.0000 
     19 C2'       270.2210  227.9420  373.4290 C.3       1 ATP401      0.0000 
     20 O2'       269.3920  226.9190  373.9280 O.3       1 ATP401      0.0000 
     21 C1'       270.1500  227.9160  371.9200 C.3       1 ATP401      0.0000 
     22 N9        271.4000  228.4320  371.4140 N.pl3     1 ATP401      0.0000 
     23 C8        271.6390  229.6320  370.8240 C.2       1 ATP401      0.0000 
     24 N7        272.8600  229.7780  370.4190 N.2       1 ATP401      0.0000 
     25 C5        273.4720  228.6380  370.7030 C.ar      1 ATP401      0.0000 
     26 C6        274.8190  228.2520  370.4750 C.ar      1 ATP401      0.0000 
     27 N6        275.7230  229.1070  369.8840 N.pl3     1 ATP401      0.0000 
     28 N1        275.1480  227.0090  370.9530 N.ar      1 ATP401      0.0000 
     29 C2        274.2200  226.2970  371.6350 C.ar      1 ATP401      0.0000 
     30 N3        272.8810  226.5520  371.7770 N.ar      1 ATP401      0.0000 
     31 C4        272.5910  227.7800  371.3720 C.ar      1 ATP401      0.0000 
@<TRIPOS>BOND
     1    1    2 ar   
     2    1    3 ar   
     3    1    4 ar   
     4    1    8 1    
     5    5    6 ar   
     6    5    7 ar   
     7    5    8 1    
     8    5   12 1    
     9    9   10 ar   
    10    9   11 ar   
    11    9   12 1    
    12    9   13 1    
    13   13   14 1    
    14   14   15 1    
    15   15   16 1    
    16   15   17 1    
    17   16   21 1    
    18   17   18 1    
    19   17   19 1    
    20   19   20 1    
    21   19   21 1    
    22   21   22 1    
    23   22   23 1    
    24   22   31 1    
    25   23   24 2    
    26   24   25 1    
    27   25   26 ar   
    28   25   31 ar   
    29   26   27 1    
    30   26   28 ar   
    31   28   29 ar   
    32   29   30 ar   
    33   30   31 ar   
@<TRIPOS>SUBSTRUCTURE
     1 ATP401      1 GROUP   
@<TRIPOS>SET
ATOM$ORANGE STATIC     ATOMS   COLORGROUP SYSTEM 
20 14 14 15 15 17 17 19 19 21 21 23 23 25 25 26 26 29 \
29 31 31 

