#    Name: 6hed_4_ATP
#    Modification time : Fri May 22 19:36:39 2020

@<TRIPOS>MOLECULE
6hed_4_ATP
   31    33     1     0     1
SMALL
NO_CHARGES


@<TRIPOS>ATOM
      1 PG        279.0510  262.1300  371.6870 P.3       1 ATP401      0.0000 
      2 O1G       278.2920  262.7000  370.5590 O.co2     1 ATP401      0.0000 
      3 O2G       278.6560  262.7160  373.0930 O.co2     1 ATP401      0.0000 
      4 O3G       278.9150  260.5610  371.6850 O.co2     1 ATP401      0.0000 
      5 PB        282.4540  263.0450  371.7630 P.3       1 ATP401      0.0000 
      6 O1B       283.1670  263.5850  370.5120 O.co2     1 ATP401      0.0000 
      7 O2B       282.4250  263.9900  372.9820 O.co2     1 ATP401      0.0000 
      8 O3B       280.7660  262.5780  371.4370 O.3       1 ATP401      0.0000 
      9 PA        283.6220  260.4140  373.4390 P.3       1 ATP401      0.0000 
     10 O1A       282.5180  259.4460  373.4780 O.co2     1 ATP401      0.0000 
     11 O2A       283.9600  261.1520  374.7250 O.co2     1 ATP401      0.0000 
     12 O3A       283.1510  261.5750  372.3310 O.3       1 ATP401      0.0000 
     13 O5'       284.9000  259.7770  372.8380 O.3       1 ATP401      0.0000 
     14 C5'       285.1910  258.4020  372.9800 C.3       1 ATP401      0.0000 
     15 C4'       286.6330  258.2110  373.5540 C.3       1 ATP401      0.0000 
     16 O4'       287.6110  258.7230  372.6780 O.3       1 ATP401      0.0000 
     17 C3'       286.8870  258.7100  374.9200 C.3       1 ATP401      0.0000 
     18 O3'       287.5860  257.8070  375.7800 O.3       1 ATP401      0.0000 
     19 C2'       287.7040  259.9720  374.7070 C.3       1 ATP401      0.0000 
     20 O2'       288.5260  260.3860  375.7890 O.3       1 ATP401      0.0000 
     21 C1'       288.5450  259.5180  373.4360 C.3       1 ATP401      0.0000 
     22 N9        289.0070  260.6250  372.6520 N.pl3     1 ATP401      0.0000 
     23 C8        288.3030  261.4800  371.8530 C.2       1 ATP401      0.0000 
     24 N7        289.0210  262.3890  371.2700 N.2       1 ATP401      0.0000 
     25 C5        290.3110  262.1490  371.6890 C.ar      1 ATP401      0.0000 
     26 C6        291.5350  262.8500  371.4870 C.ar      1 ATP401      0.0000 
     27 N6        291.6410  263.7860  370.4820 N.pl3     1 ATP401      0.0000 
     28 N1        292.5750  262.3480  372.1910 N.ar      1 ATP401      0.0000 
     29 C2        292.3940  261.3340  373.0170 C.ar      1 ATP401      0.0000 
     30 N3        291.2980  260.6550  373.2370 N.ar      1 ATP401      0.0000 
     31 C4        290.2670  261.0440  372.5350 C.ar      1 ATP401      0.0000 
@<TRIPOS>BOND
     1    1    2 ar   
     2    1    3 ar   
     3    1    4 ar   
     4    1    8 1    
     5    5    6 ar   
     6    5    7 ar   
     7    5    8 1    
     8    5   12 1    
     9    9   10 ar   
    10    9   11 ar   
    11    9   12 1    
    12    9   13 1    
    13   13   14 1    
    14   14   15 1    
    15   15   16 1    
    16   15   17 1    
    17   16   21 1    
    18   17   18 1    
    19   17   19 1    
    20   19   20 1    
    21   19   21 1    
    22   21   22 1    
    23   22   23 1    
    24   22   31 1    
    25   23   24 2    
    26   24   25 1    
    27   25   26 ar   
    28   25   31 ar   
    29   26   27 1    
    30   26   28 ar   
    31   28   29 ar   
    32   29   30 ar   
    33   30   31 ar   
@<TRIPOS>SUBSTRUCTURE
     1 ATP401      1 GROUP   
@<TRIPOS>SET
ATOM$ORANGE STATIC     ATOMS   COLORGROUP SYSTEM 
20 14 14 15 15 17 17 19 19 21 21 23 23 25 25 26 26 29 \
29 31 31 

