#    Name: 6hed_2_ATP
#    Modification time : Fri May 22 19:36:19 2020

@<TRIPOS>MOLECULE
6hed_2_ATP
   31    33     1     0     1
SMALL
NO_CHARGES


@<TRIPOS>ATOM
      1 PG        238.9580  284.2190  370.1820 P.3       1 ATP401      0.0000 
      2 O1G       238.8240  283.3450  369.0060 O.co2     1 ATP401      0.0000 
      3 O2G       238.1700  283.8370  371.3930 O.co2     1 ATP401      0.0000 
      4 O3G       240.3940  284.7270  370.3940 O.co2     1 ATP401      0.0000 
      5 PB        236.7050  286.7680  369.5900 P.3       1 ATP401      0.0000 
      6 O1B       236.2110  286.7570  368.1280 O.co2     1 ATP401      0.0000 
      7 O2B       235.7400  286.2770  370.6690 O.co2     1 ATP401      0.0000 
      8 O3B       238.0140  285.6280  369.6590 O.3       1 ATP401      0.0000 
      9 PA        237.6310  289.9260  370.3760 P.3       1 ATP401      0.0000 
     10 O1A       238.9910  290.4130  369.9840 O.co2     1 ATP401      0.0000 
     11 O2A       237.2240  290.1230  371.7570 O.co2     1 ATP401      0.0000 
     12 O3A       237.4820  288.2360  369.9670 O.3       1 ATP401      0.0000 
     13 O5'       236.5220  290.6060  369.4670 O.3       1 ATP401      0.0000 
     14 C5'       236.0730  291.9480  369.6270 C.3       1 ATP401      0.0000 
     15 C4'       236.9830  292.8760  368.7940 C.3       1 ATP401      0.0000 
     16 O4'       236.7210  292.6730  367.4090 O.3       1 ATP401      0.0000 
     17 C3'       236.4040  294.2730  369.1310 C.3       1 ATP401      0.0000 
     18 O3'       237.4200  295.2940  369.1530 O.3       1 ATP401      0.0000 
     19 C2'       235.3260  294.5040  368.0470 C.3       1 ATP401      0.0000 
     20 O2'       235.1390  295.8700  367.7270 O.3       1 ATP401      0.0000 
     21 C1'       235.9180  293.7170  366.8780 C.3       1 ATP401      0.0000 
     22 N9        234.7860  293.1560  366.0180 N.pl3     1 ATP401      0.0000 
     23 C8        234.7980  291.8920  365.4920 C.2       1 ATP401      0.0000 
     24 N7        233.7160  291.5690  364.8540 N.2       1 ATP401      0.0000 
     25 C5        232.9630  292.7100  364.8660 C.ar      1 ATP401      0.0000 
     26 C6        231.7170  292.8700  364.2830 C.ar      1 ATP401      0.0000 
     27 N6        231.0390  291.9130  363.5600 N.pl3     1 ATP401      0.0000 
     28 N1        231.1860  294.1410  364.3610 N.ar      1 ATP401      0.0000 
     29 C2        231.8920  295.0820  365.0700 C.ar      1 ATP401      0.0000 
     30 N3        233.1340  294.9530  365.5740 N.ar      1 ATP401      0.0000 
     31 C4        233.6070  293.7200  365.5910 C.ar      1 ATP401      0.0000 
@<TRIPOS>BOND
     1    1    2 ar   
     2    1    3 ar   
     3    1    4 ar   
     4    1    8 1    
     5    5    6 ar   
     6    5    7 ar   
     7    5    8 1    
     8    5   12 1    
     9    9   10 ar   
    10    9   11 ar   
    11    9   12 1    
    12    9   13 1    
    13   13   14 1    
    14   14   15 1    
    15   15   16 1    
    16   15   17 1    
    17   16   21 1    
    18   17   18 1    
    19   17   19 1    
    20   19   20 1    
    21   19   21 1    
    22   21   22 1    
    23   22   23 1    
    24   22   31 1    
    25   23   24 2    
    26   24   25 1    
    27   25   26 ar   
    28   25   31 ar   
    29   26   27 1    
    30   26   28 ar   
    31   28   29 ar   
    32   29   30 ar   
    33   30   31 ar   
@<TRIPOS>SUBSTRUCTURE
     1 ATP401      1 GROUP   
@<TRIPOS>SET
ATOM$ORANGE STATIC     ATOMS   COLORGROUP SYSTEM 
20 14 14 15 15 17 17 19 19 21 21 23 23 25 25 26 26 29 \
29 31 31 

