#    Name: 6hed_3_ATP
#    Modification time : Fri May 22 19:36:29 2020

@<TRIPOS>MOLECULE
6hed_3_ATP
   31    33     1     0     1
SMALL
NO_CHARGES


@<TRIPOS>ATOM
      1 PG        266.0750  284.3000  370.0350 P.3       1 ATP401      0.0000 
      2 O1G       265.7470  283.5540  368.7650 O.co2     1 ATP401      0.0000 
      3 O2G       264.9340  284.5080  371.0820 O.co2     1 ATP401      0.0000 
      4 O3G       267.2110  283.7280  370.8410 O.co2     1 ATP401      0.0000 
      5 PB        266.4690  287.7580  369.5320 P.3       1 ATP401      0.0000 
      6 O1B       266.7780  288.4350  368.2000 O.co2     1 ATP401      0.0000 
      7 O2B       265.2040  288.2400  370.2450 O.co2     1 ATP401      0.0000 
      8 O3B       266.4850  285.9530  369.5500 O.3       1 ATP401      0.0000 
      9 PA        268.9050  289.1760  371.3230 P.3       1 ATP401      0.0000 
     10 O1A       268.1740  290.4180  371.6500 O.co2     1 ATP401      0.0000 
     11 O2A       269.6330  288.5270  372.4300 O.co2     1 ATP401      0.0000 
     12 O3A       267.7750  288.2000  370.6380 O.3       1 ATP401      0.0000 
     13 O5'       269.8750  289.4260  370.1210 O.3       1 ATP401      0.0000 
     14 C5'       271.2740  289.0250  370.1280 C.3       1 ATP401      0.0000 
     15 C4'       272.3100  290.2060  369.9450 C.3       1 ATP401      0.0000 
     16 O4'       272.2790  290.6710  368.5960 O.3       1 ATP401      0.0000 
     17 C3'       272.2530  291.4250  370.8460 C.3       1 ATP401      0.0000 
     18 O3'       272.8330  291.0170  372.0600 O.3       1 ATP401      0.0000 
     19 C2'       273.1750  292.3820  370.0350 C.3       1 ATP401      0.0000 
     20 O2'       274.5550  292.2980  370.3330 O.3       1 ATP401      0.0000 
     21 C1'       272.8420  291.9970  368.5960 C.3       1 ATP401      0.0000 
     22 N9        271.9190  293.0010  367.8490 N.pl3     1 ATP401      0.0000 
     23 C8        270.6830  292.7520  367.3350 C.2       1 ATP401      0.0000 
     24 N7        270.1230  293.7910  366.7070 N.2       1 ATP401      0.0000 
     25 C5        271.0620  294.7560  366.7680 C.ar      1 ATP401      0.0000 
     26 C6        271.0120  296.0150  366.1620 C.ar      1 ATP401      0.0000 
     27 N6        269.9610  296.4680  365.3790 N.pl3     1 ATP401      0.0000 
     28 N1        272.1440  296.7500  366.4660 N.ar      1 ATP401      0.0000 
     29 C2        273.1160  296.2720  367.2210 C.ar      1 ATP401      0.0000 
     30 N3        273.1180  295.1420  367.9540 N.ar      1 ATP401      0.0000 
     31 C4        272.1160  294.3540  367.5450 C.ar      1 ATP401      0.0000 
@<TRIPOS>BOND
     1    1    2 ar   
     2    1    3 ar   
     3    1    4 ar   
     4    1    8 1    
     5    5    6 ar   
     6    5    7 ar   
     7    5    8 1    
     8    5   12 1    
     9    9   10 ar   
    10    9   11 ar   
    11    9   12 1    
    12    9   13 1    
    13   13   14 1    
    14   14   15 1    
    15   15   16 1    
    16   15   17 1    
    17   16   21 1    
    18   17   18 1    
    19   17   19 1    
    20   19   20 1    
    21   19   21 1    
    22   21   22 1    
    23   22   23 1    
    24   22   31 1    
    25   23   24 2    
    26   24   25 1    
    27   25   26 ar   
    28   25   31 ar   
    29   26   27 1    
    30   26   28 ar   
    31   28   29 ar   
    32   29   30 ar   
    33   30   31 ar   
@<TRIPOS>SUBSTRUCTURE
     1 ATP401      1 GROUP   
@<TRIPOS>SET
ATOM$ORANGE STATIC     ATOMS   COLORGROUP SYSTEM 
20 14 14 15 15 17 17 19 19 21 21 23 23 25 25 26 26 29 \
29 31 31 

