#    Name: 6aqf_1_ZMA
#    Modification time : Fri May 22 19:25:27 2020

@<TRIPOS>MOLECULE
6aqf_1_ZMA
   25    28     1     0     0
SMALL
NO_CHARGES


@<TRIPOS>ATOM
      1 C1         19.7430  167.9200   15.7390 C.ar      1 ZMA1201     0.0000 
      2 C2         19.4190  166.5670   15.8640 C.ar      1 ZMA1201     0.0000 
      3 C3         20.2520  165.5990   15.2830 C.ar      1 ZMA1201     0.0000 
      4 O4         19.9370  164.2760   15.3980 O.3       1 ZMA1201     0.0000 
      5 C5         21.4100  165.9740   14.5860 C.ar      1 ZMA1201     0.0000 
      6 C6         21.7330  167.3270   14.4540 C.ar      1 ZMA1201     0.0000 
      7 C7         20.8990  168.2940   15.0360 C.ar      1 ZMA1201     0.0000 
      8 C8         21.2570  169.7540   14.9010 C.3       1 ZMA1201     0.0000 
      9 C9         22.1390  170.1780   16.0700 C.3       1 ZMA1201     0.0000 
     10 N10        22.3360  171.6100   16.0950 N.pl3     1 ZMA1201     0.0000 
     11 C11        21.5060  172.4380   16.7740 C.2       1 ZMA1201     0.0000 
     12 N12        21.8820  173.7360   16.9500 N.2       1 ZMA1201     0.0000 
     13 N13        20.3160  171.9920   17.2780 N.2       1 ZMA1201     0.0000 
     14 C14        19.4870  172.8220   17.9570 C.2       1 ZMA1201     0.0000 
     15 N15        18.3160  172.3430   18.4400 N.pl3     1 ZMA1201     0.0000 
     16 N16        19.8640  174.1050   18.1270 N.pl3     1 ZMA1201     0.0000 
     17 N17        19.1450  175.0960   18.7950 N.2       1 ZMA1201     0.0000 
     18 C18        21.0300  174.5370   17.6330 C.2       1 ZMA1201     0.0000 
     19 N19        21.1640  175.8490   17.9410 N.2       1 ZMA1201     0.0000 
     20 C20        20.0200  176.1150   18.6240 C.2       1 ZMA1201     0.0000 
     21 C21        19.7310  177.4590   19.1660 C.2       1 ZMA1201     0.0000 
     22 C22        20.6850  178.4360   19.3120 C.2       1 ZMA1201     0.0000 
     23 C23        19.9490  179.5090   19.7880 C.2       1 ZMA1201     0.0000 
     24 C24        18.6050  179.1540   19.8720 C.2       1 ZMA1201     0.0000 
     25 O25        18.4600  177.8430   19.4530 O.3       1 ZMA1201     0.0000 
@<TRIPOS>BOND
     1    1    2 ar   
     2    1    7 ar   
     3    2    3 ar   
     4    3    4 1    
     5    3    5 ar   
     6    5    6 ar   
     7    6    7 ar   
     8    7    8 1    
     9    8    9 1    
    10    9   10 1    
    11   10   11 1    
    12   11   12 2    
    13   11   13 1    
    14   12   18 1    
    15   13   14 2    
    16   14   15 1    
    17   14   16 1    
    18   16   17 1    
    19   16   18 1    
    20   17   20 2    
    21   18   19 2    
    22   19   20 1    
    23   20   21 1    
    24   21   22 2    
    25   21   25 1    
    26   22   23 1    
    27   23   24 2    
    28   24   25 1    
@<TRIPOS>SUBSTRUCTURE
     1 ZMA1201     1 GROUP   
@<TRIPOS>SET

