#    Name: 6mat_2_ATP
#    Modification time : Fri May 22 19:29:06 2020

@<TRIPOS>MOLECULE
6mat_2_ATP
   31    33     1     0     1
SMALL
NO_CHARGES


@<TRIPOS>ATOM
      1 PG        103.6140  123.1050  157.1570 P.3       1 ATP902      0.0000 
      2 O1G       104.0680  124.2770  156.3110 O.co2     1 ATP902      0.0000 
      3 O2G       103.5770  123.3760  158.6570 O.co2     1 ATP902      0.0000 
      4 O3G       104.2880  121.8060  156.7720 O.co2     1 ATP902      0.0000 
      5 PB        101.4620  121.3970  156.7650 P.3       1 ATP902      0.0000 
      6 O1B       101.6080  120.7830  155.3970 O.co2     1 ATP902      0.0000 
      7 O2B       102.0030  120.6790  157.9760 O.co2     1 ATP902      0.0000 
      8 O3B       102.0790  122.8800  156.7080 O.3       1 ATP902      0.0000 
      9 PA         99.3030  121.6430  158.5010 P.3       1 ATP902      0.0000 
     10 O1A        99.2690  120.2110  158.9540 O.co2     1 ATP902      0.0000 
     11 O2A        99.9590  122.7020  159.3660 O.co2     1 ATP902      0.0000 
     12 O3A        99.9140  121.7120  157.0220 O.3       1 ATP902      0.0000 
     13 O5'        97.7890  122.0610  158.1840 O.3       1 ATP902      0.0000 
     14 C5'        97.4290  123.4460  158.2280 C.3       1 ATP902      0.0000 
     15 C4'        95.9140  123.6200  158.4240 C.3       1 ATP902      0.0000 
     16 O4'        95.1850  123.6830  157.1780 O.3       1 ATP902      0.0000 
     17 C3'        95.2570  122.5810  159.3490 C.3       1 ATP902      0.0000 
     18 O3'        95.1200  123.0280  160.7200 O.3       1 ATP902      0.0000 
     19 C2'        93.9150  122.2760  158.6780 C.3       1 ATP902      0.0000 
     20 O2'        92.8410  122.9130  159.3960 O.3       1 ATP902      0.0000 
     21 C1'        94.0320  122.8230  157.2370 C.3       1 ATP902      0.0000 
     22 N9         94.3610  121.7040  156.3170 N.pl3     1 ATP902      0.0000 
     23 C8         95.5370  121.5610  155.6760 C.2       1 ATP902      0.0000 
     24 N7         95.5340  120.4430  154.9110 N.2       1 ATP902      0.0000 
     25 C5         94.3310  119.8470  155.0570 C.ar      1 ATP902      0.0000 
     26 C6         93.6580  118.6250  154.5310 C.ar      1 ATP902      0.0000 
     27 N6         94.3000  117.7970  153.6670 N.pl3     1 ATP902      0.0000 
     28 N1         92.3880  118.3670  154.9380 N.ar      1 ATP902      0.0000 
     29 C2         91.7430  119.1870  155.7950 C.ar      1 ATP902      0.0000 
     30 N3         92.2910  120.3080  156.3120 N.ar      1 ATP902      0.0000 
     31 C4         93.5580  120.6860  155.9880 C.ar      1 ATP902      0.0000 
@<TRIPOS>BOND
     1    1    2 ar   
     2    1    3 ar   
     3    1    4 ar   
     4    1    8 1    
     5    5    6 ar   
     6    5    7 ar   
     7    5    8 1    
     8    5   12 1    
     9    9   10 ar   
    10    9   11 ar   
    11    9   12 1    
    12    9   13 1    
    13   13   14 1    
    14   14   15 1    
    15   15   16 1    
    16   15   17 1    
    17   16   21 1    
    18   17   18 1    
    19   17   19 1    
    20   19   20 1    
    21   19   21 1    
    22   21   22 1    
    23   22   23 1    
    24   22   31 1    
    25   23   24 2    
    26   24   25 1    
    27   25   26 ar   
    28   25   31 ar   
    29   26   27 1    
    30   26   28 ar   
    31   28   29 ar   
    32   29   30 ar   
    33   30   31 ar   
@<TRIPOS>SUBSTRUCTURE
     1 ATP902      1 GROUP   
@<TRIPOS>SET
ATOM$ORANGE STATIC     ATOMS   COLORGROUP SYSTEM 
20 14 14 15 15 17 17 19 19 21 21 23 23 25 25 26 26 29 \
29 31 31 

