#    Name: 6mat_4_ATP
#    Modification time : Fri May 22 19:29:42 2020

@<TRIPOS>MOLECULE
6mat_4_ATP
   31    33     1     0     1
SMALL
NO_CHARGES


@<TRIPOS>ATOM
      1 PG        107.7350  151.7990  152.4750 P.3       1 ATP902      0.0000 
      2 O1G       108.9450  151.9010  151.5740 O.co2     1 ATP902      0.0000 
      3 O2G       107.9950  152.0690  153.9470 O.co2     1 ATP902      0.0000 
      4 O3G       106.9010  150.5680  152.2470 O.co2     1 ATP902      0.0000 
      5 PB        105.1930  152.8570  152.0970 P.3       1 ATP902      0.0000 
      6 O1B       104.6640  152.3460  150.7880 O.co2     1 ATP902      0.0000 
      7 O2B       104.8800  152.1380  153.3810 O.co2     1 ATP902      0.0000 
      8 O3B       106.7870  152.9920  151.9500 O.3       1 ATP902      0.0000 
      9 PA        104.4230  155.0310  153.6850 P.3       1 ATP902      0.0000 
     10 O1A       103.1640  154.4170  154.2290 O.co2     1 ATP902      0.0000 
     11 O2A       105.6590  155.0340  154.5680 O.co2     1 ATP902      0.0000 
     12 O3A       104.7470  154.3870  152.2450 O.3       1 ATP902      0.0000 
     13 O5'       104.0820  156.5310  153.2200 O.3       1 ATP902      0.0000 
     14 C5'       105.1280  157.4990  153.1580 C.3       1 ATP902      0.0000 
     15 C4'       104.5270  158.8990  153.2780 C.3       1 ATP902      0.0000 
     16 O4'       104.1920  159.4500  151.9950 O.3       1 ATP902      0.0000 
     17 C3'       103.3130  159.0200  154.2190 C.3       1 ATP902      0.0000 
     18 O3'       103.6230  159.4790  155.5570 O.3       1 ATP902      0.0000 
     19 C2'       102.3720  159.9890  153.5120 C.3       1 ATP902      0.0000 
     20 O2'       102.3880  161.2890  154.1420 O.3       1 ATP902      0.0000 
     21 C1'       102.8850  160.0440  152.0590 C.3       1 ATP902      0.0000 
     22 N9        102.0500  159.1590  151.2260 N.pl3     1 ATP902      0.0000 
     23 C8        102.4780  158.0080  150.6720 C.2       1 ATP902      0.0000 
     24 N7        101.4720  157.4330  149.9700 N.2       1 ATP902      0.0000 
     25 C5        100.3770  158.2290  150.0730 C.ar      1 ATP902      0.0000 
     26 C6         98.9680  158.2050  149.5640 C.ar      1 ATP902      0.0000 
     27 N6         98.5120  157.1880  148.7830 N.pl3     1 ATP902      0.0000 
     28 N1         98.1460  159.2340  149.9060 N.ar      1 ATP902      0.0000 
     29 C2         98.5860  160.2540  150.6830 C.ar      1 ATP902      0.0000 
     30 N3         99.8430  160.3500  151.1820 N.ar      1 ATP902      0.0000 
     31 C4        100.7680  159.3810  150.9120 C.ar      1 ATP902      0.0000 
@<TRIPOS>BOND
     1    1    2 ar   
     2    1    3 ar   
     3    1    4 ar   
     4    1    8 1    
     5    5    6 ar   
     6    5    7 ar   
     7    5    8 1    
     8    5   12 1    
     9    9   10 ar   
    10    9   11 ar   
    11    9   12 1    
    12    9   13 1    
    13   13   14 1    
    14   14   15 1    
    15   15   16 1    
    16   15   17 1    
    17   16   21 1    
    18   17   18 1    
    19   17   19 1    
    20   19   20 1    
    21   19   21 1    
    22   21   22 1    
    23   22   23 1    
    24   22   31 1    
    25   23   24 2    
    26   24   25 1    
    27   25   26 ar   
    28   25   31 ar   
    29   26   27 1    
    30   26   28 ar   
    31   28   29 ar   
    32   29   30 ar   
    33   30   31 ar   
@<TRIPOS>SUBSTRUCTURE
     1 ATP902      1 GROUP   
@<TRIPOS>SET
ATOM$ORANGE STATIC     ATOMS   COLORGROUP SYSTEM 
20 14 14 15 15 17 17 19 19 21 21 23 23 25 25 26 26 29 \
29 31 31 

