#    Name: 6mat_8_ATP
#    Modification time : Fri May 22 19:30:52 2020

@<TRIPOS>MOLECULE
6mat_8_ATP
   31    33     1     0     1
SMALL
NO_CHARGES


@<TRIPOS>ATOM
      1 PG        157.8070  145.0370  145.8520 P.3       1 ATP902      0.0000 
      2 O1G       157.3990  143.9320  144.8930 O.co2     1 ATP902      0.0000 
      3 O2G       157.7760  144.6830  147.3320 O.co2     1 ATP902      0.0000 
      4 O3G       157.1730  146.3810  145.5700 O.co2     1 ATP902      0.0000 
      5 PB        159.9940  146.7520  145.7130 P.3       1 ATP902      0.0000 
      6 O1B       159.9300  147.4890  144.4060 O.co2     1 ATP902      0.0000 
      7 O2B       159.4140  147.3530  146.9690 O.co2     1 ATP902      0.0000 
      8 O3B       159.3610  145.2880  145.5010 O.3       1 ATP902      0.0000 
      9 PA        162.0890  146.3330  147.4730 P.3       1 ATP902      0.0000 
     10 O1A       162.1190  147.7200  148.0520 O.co2     1 ATP902      0.0000 
     11 O2A       161.3830  145.2170  148.2180 O.co2     1 ATP902      0.0000 
     12 O3A       161.5280  146.3980  145.9780 O.3       1 ATP902      0.0000 
     13 O5'       163.5970  145.9150  147.1380 O.3       1 ATP902      0.0000 
     14 C5'       163.9290  144.5280  147.0650 C.3       1 ATP902      0.0000 
     15 C4'       165.4220  144.3300  147.3470 C.3       1 ATP902      0.0000 
     16 O4'       166.2040  144.3590  146.1420 O.3       1 ATP902      0.0000 
     17 C3'       166.0330  145.3070  148.3690 C.3       1 ATP902      0.0000 
     18 O3'       166.1080  144.7980  149.7220 O.3       1 ATP902      0.0000 
     19 C2'       167.4090  145.6520  147.8030 C.3       1 ATP902      0.0000 
     20 O2'       168.4530  144.9740  148.5280 O.3       1 ATP902      0.0000 
     21 C1'       167.3540  145.2010  146.3340 C.3       1 ATP902      0.0000 
     22 N9        167.0770  146.3900  145.5030 N.pl3     1 ATP902      0.0000 
     23 C8        165.9340  146.5970  144.8270 C.2       1 ATP902      0.0000 
     24 N7        165.9880  147.7770  144.1620 N.2       1 ATP902      0.0000 
     25 C5        167.1900  148.3480  144.4150 C.ar      1 ATP902      0.0000 
     26 C6        167.9010  149.6030  144.0260 C.ar      1 ATP902      0.0000 
     27 N6        167.3190  150.5170  143.2080 N.pl3     1 ATP902      0.0000 
     28 N1        169.1500  149.8090  144.5150 N.ar      1 ATP902      0.0000 
     29 C2        169.7410  148.9090  145.3300 C.ar      1 ATP902      0.0000 
     30 N3        169.1600  147.7530  145.7220 N.ar      1 ATP902      0.0000 
     31 C4        167.9070  147.4210  145.3070 C.ar      1 ATP902      0.0000 
@<TRIPOS>BOND
     1    1    2 ar   
     2    1    3 ar   
     3    1    4 ar   
     4    1    8 1    
     5    5    6 ar   
     6    5    7 ar   
     7    5    8 1    
     8    5   12 1    
     9    9   10 ar   
    10    9   11 ar   
    11    9   12 1    
    12    9   13 1    
    13   13   14 1    
    14   14   15 1    
    15   15   16 1    
    16   15   17 1    
    17   16   21 1    
    18   17   18 1    
    19   17   19 1    
    20   19   20 1    
    21   19   21 1    
    22   21   22 1    
    23   22   23 1    
    24   22   31 1    
    25   23   24 2    
    26   24   25 1    
    27   25   26 ar   
    28   25   31 ar   
    29   26   27 1    
    30   26   28 ar   
    31   28   29 ar   
    32   29   30 ar   
    33   30   31 ar   
@<TRIPOS>SUBSTRUCTURE
     1 ATP902      1 GROUP   
@<TRIPOS>SET
ATOM$ORANGE STATIC     ATOMS   COLORGROUP SYSTEM 
20 14 14 15 15 17 17 19 19 21 21 23 23 25 25 26 26 29 \
29 31 31 

