#    Name: 6mat_7_ATP
#    Modification time : Fri May 22 19:30:36 2020

@<TRIPOS>MOLECULE
6mat_7_ATP
   31    33     1     0     1
SMALL
NO_CHARGES


@<TRIPOS>ATOM
      1 PG        165.5580  128.4570  104.0670 P.3       1 ATP901      0.0000 
      2 O1G       164.2910  128.8190  103.3470 O.co2     1 ATP901      0.0000 
      3 O2G       165.5160  128.8350  105.5360 O.co2     1 ATP901      0.0000 
      4 O3G       166.0960  127.0690  103.7550 O.co2     1 ATP901      0.0000 
      5 PB        167.6240  130.4090  104.0890 P.3       1 ATP901      0.0000 
      6 O1B       168.1790  131.2480  102.9750 O.co2     1 ATP901      0.0000 
      7 O2B       166.9430  131.0010  105.3080 O.co2     1 ATP901      0.0000 
      8 O3B       166.5850  129.4530  103.3350 O.3       1 ATP901      0.0000 
      9 PA        169.1100  129.1820  106.0880 P.3       1 ATP901      0.0000 
     10 O1A       167.8090  128.7430  106.7160 O.co2     1 ATP901      0.0000 
     11 O2A       169.9260  130.2480  106.7520 O.co2     1 ATP901      0.0000 
     12 O3A       168.8660  129.4940  104.5370 O.3       1 ATP901      0.0000 
     13 O5'       170.0290  127.8940  105.9400 O.3       1 ATP901      0.0000 
     14 C5'       169.3400  126.6520  105.8320 C.3       1 ATP901      0.0000 
     15 C4'       170.3620  125.5230  105.8650 C.3       1 ATP901      0.0000 
     16 O4'       171.1950  125.5870  104.6970 O.3       1 ATP901      0.0000 
     17 C3'       171.2720  125.5500  107.1010 C.3       1 ATP901      0.0000 
     18 O3'       170.9340  124.5130  108.0460 O.3       1 ATP901      0.0000 
     19 C2'       172.6940  125.3810  106.5620 C.3       1 ATP901      0.0000 
     20 O2'       173.3280  124.1830  107.0480 O.3       1 ATP901      0.0000 
     21 C1'       172.5760  125.3800  105.0330 C.3       1 ATP901      0.0000 
     22 N9        173.3590  126.5010  104.4610 N.pl3     1 ATP901      0.0000 
     23 C8        172.9410  127.3180  103.4750 C.2       1 ATP901      0.0000 
     24 N7        173.8870  128.2420  103.1770 N.2       1 ATP901      0.0000 
     25 C5        174.9380  128.0150  103.9920 C.ar      1 ATP901      0.0000 
     26 C6        176.2730  128.6250  104.2070 C.ar      1 ATP901      0.0000 
     27 N6        176.6750  129.6870  103.4700 N.pl3     1 ATP901      0.0000 
     28 N1        177.0710  128.0880  105.1600 N.ar      1 ATP901      0.0000 
     29 C2        176.6740  127.0280  105.9000 C.ar      1 ATP901      0.0000 
     30 N3        175.4780  126.4180  105.7640 N.ar      1 ATP901      0.0000 
     31 C4        174.5850  126.8630  104.8410 C.ar      1 ATP901      0.0000 
@<TRIPOS>BOND
     1    1    2 ar   
     2    1    3 ar   
     3    1    4 ar   
     4    1    8 1    
     5    5    6 ar   
     6    5    7 ar   
     7    5    8 1    
     8    5   12 1    
     9    9   10 ar   
    10    9   11 ar   
    11    9   12 1    
    12    9   13 1    
    13   13   14 1    
    14   14   15 1    
    15   15   16 1    
    16   15   17 1    
    17   16   21 1    
    18   17   18 1    
    19   17   19 1    
    20   19   20 1    
    21   19   21 1    
    22   21   22 1    
    23   22   23 1    
    24   22   31 1    
    25   23   24 2    
    26   24   25 1    
    27   25   26 ar   
    28   25   31 ar   
    29   26   27 1    
    30   26   28 ar   
    31   28   29 ar   
    32   29   30 ar   
    33   30   31 ar   
@<TRIPOS>SUBSTRUCTURE
     1 ATP901      1 GROUP   
@<TRIPOS>SET
ATOM$ORANGE STATIC     ATOMS   COLORGROUP SYSTEM 
20 14 14 15 15 17 17 19 19 21 21 23 23 25 25 26 26 29 \
29 31 31 

