#    Name: 6mat_5_ATP
#    Modification time : Fri May 22 19:30:01 2020

@<TRIPOS>MOLECULE
6mat_5_ATP
   31    33     1     0     1
SMALL
NO_CHARGES


@<TRIPOS>ATOM
      1 PG        154.1000  156.6880  107.6840 P.3       1 ATP901      0.0000 
      2 O1G       153.1250  155.7370  107.0640 O.co2     1 ATP901      0.0000 
      3 O2G       153.7720  156.9530  109.1480 O.co2     1 ATP901      0.0000 
      4 O3G       155.5550  156.4100  107.3310 O.co2     1 ATP901      0.0000 
      5 PB        153.4980  159.4470  107.4370 P.3       1 ATP901      0.0000 
      6 O1B       153.1090  160.2550  106.2370 O.co2     1 ATP901      0.0000 
      7 O2B       152.6120  159.2910  108.6540 O.co2     1 ATP901      0.0000 
      8 O3B       153.7640  157.9970  106.8220 O.3       1 ATP901      0.0000 
      9 PA        155.3240  160.2590  109.3840 P.3       1 ATP901      0.0000 
     10 O1A       154.8090  161.5700  109.8850 O.co2     1 ATP901      0.0000 
     11 O2A       155.0480  159.0020  110.1800 O.co2     1 ATP901      0.0000 
     12 O3A       154.9360  160.0330  107.8450 O.3       1 ATP901      0.0000 
     13 O5'       156.9000  160.3960  109.2240 O.3       1 ATP901      0.0000 
     14 C5'       157.6140  159.1690  109.2110 C.3       1 ATP901      0.0000 
     15 C4'       159.1030  159.4800  109.2570 C.3       1 ATP901      0.0000 
     16 O4'       159.5060  160.0860  108.0220 O.3       1 ATP901      0.0000 
     17 C3'       159.5210  160.4040  110.4150 C.3       1 ATP901      0.0000 
     18 O3'       160.2080  159.7000  111.4760 O.3       1 ATP901      0.0000 
     19 C2'       160.4180  161.4650  109.7710 C.3       1 ATP901      0.0000 
     20 O2'       161.7630  161.4440  110.2890 O.3       1 ATP901      0.0000 
     21 C1'       160.3810  161.2010  108.2590 C.3       1 ATP901      0.0000 
     22 N9        159.8230  162.3780  107.5500 N.pl3     1 ATP901      0.0000 
     23 C8        158.9270  162.3310  106.5450 C.2       1 ATP901      0.0000 
     24 N7        158.6170  163.5780  106.1100 N.2       1 ATP901      0.0000 
     25 C5        159.3300  164.4470  106.8530 C.ar      1 ATP901      0.0000 
     26 C6        159.4780  165.9190  106.9170 C.ar      1 ATP901      0.0000 
     27 N6        158.7800  166.7150  106.0740 N.pl3     1 ATP901      0.0000 
     28 N1        160.3300  166.4280  107.8400 N.ar      1 ATP901      0.0000 
     29 C2        161.0290  165.6310  108.6810 C.ar      1 ATP901      0.0000 
     30 N3        160.9480  164.2860  108.6840 N.ar      1 ATP901      0.0000 
     31 C4        160.1280  163.6520  107.8040 C.ar      1 ATP901      0.0000 
@<TRIPOS>BOND
     1    1    2 ar   
     2    1    3 ar   
     3    1    4 ar   
     4    1    8 1    
     5    5    6 ar   
     6    5    7 ar   
     7    5    8 1    
     8    5   12 1    
     9    9   10 ar   
    10    9   11 ar   
    11    9   12 1    
    12    9   13 1    
    13   13   14 1    
    14   14   15 1    
    15   15   16 1    
    16   15   17 1    
    17   16   21 1    
    18   17   18 1    
    19   17   19 1    
    20   19   20 1    
    21   19   21 1    
    22   21   22 1    
    23   22   23 1    
    24   22   31 1    
    25   23   24 2    
    26   24   25 1    
    27   25   26 ar   
    28   25   31 ar   
    29   26   27 1    
    30   26   28 ar   
    31   28   29 ar   
    32   29   30 ar   
    33   30   31 ar   
@<TRIPOS>SUBSTRUCTURE
     1 ATP901      1 GROUP   
@<TRIPOS>SET
ATOM$ORANGE STATIC     ATOMS   COLORGROUP SYSTEM 
20 14 14 15 15 17 17 19 19 21 21 23 23 25 25 26 26 29 \
29 31 31 

