#    Name: 6mat_11_ATP
#    Modification time : Fri May 22 19:31:35 2020

@<TRIPOS>MOLECULE
6mat_11_ATP
   31    33     1     0     1
SMALL
NO_CHARGES


@<TRIPOS>ATOM
      1 PG        127.8410   99.6780  151.7210 P.3       1 ATP902      0.0000 
      2 O1G       129.1670   99.7800  151.0110 O.co2     1 ATP902      0.0000 
      3 O2G       127.9510   99.7560  153.2230 O.co2     1 ATP902      0.0000 
      4 O3G       126.7400  100.5250  151.1320 O.co2     1 ATP902      0.0000 
      5 PB        128.4660   97.0130  151.2240 P.3       1 ATP902      0.0000 
      6 O1B       128.7430   96.8590  149.7540 O.co2     1 ATP902      0.0000 
      7 O2B       129.5980   97.2730  152.1710 O.co2     1 ATP902      0.0000 
      8 O3B       127.3700   98.1690  151.4310 O.3       1 ATP902      0.0000 
      9 PA        127.8560   95.0860  153.1610 P.3       1 ATP902      0.0000 
     10 O1A       129.2390   94.5190  153.2460 O.co2     1 ATP902      0.0000 
     11 O2A       127.3850   96.0840  154.1900 O.co2     1 ATP902      0.0000 
     12 O3A       127.6610   95.7100  151.6990 O.3       1 ATP902      0.0000 
     13 O5'       126.8440   93.8430  153.1180 O.3       1 ATP902      0.0000 
     14 C5'       125.4900   94.0270  153.5120 C.3       1 ATP902      0.0000 
     15 C4'       124.8800   92.6800  153.8780 C.3       1 ATP902      0.0000 
     16 O4'       124.2730   92.0260  152.7650 O.3       1 ATP902      0.0000 
     17 C3'       125.8620   91.7120  154.5260 C.3       1 ATP902      0.0000 
     18 O3'       125.7660   91.7400  155.9560 O.3       1 ATP902      0.0000 
     19 C2'       125.4770   90.3480  153.9790 C.3       1 ATP902      0.0000 
     20 O2'       124.6780   89.6280  154.9280 O.3       1 ATP902      0.0000 
     21 C1'       124.6690   90.6490  152.7230 C.3       1 ATP902      0.0000 
     22 N9        125.5580   90.5210  151.5430 N.pl3     1 ATP902      0.0000 
     23 C8        125.9500   91.5480  150.7680 C.2       1 ATP902      0.0000 
     24 N7        126.7590   91.1180  149.7680 N.2       1 ATP902      0.0000 
     25 C5        126.8950   89.7850  149.8960 C.ar      1 ATP902      0.0000 
     26 C6        127.6130   88.7100  149.1680 C.ar      1 ATP902      0.0000 
     27 N6        128.3650   88.9960  148.0770 N.pl3     1 ATP902      0.0000 
     28 N1        127.4950   87.4420  149.6270 N.ar      1 ATP902      0.0000 
     29 C2        126.7490   87.1550  150.7120 C.ar      1 ATP902      0.0000 
     30 N3        126.0700   88.0790  151.4210 N.ar      1 ATP902      0.0000 
     31 C4        126.1010   89.3920  151.0700 C.ar      1 ATP902      0.0000 
@<TRIPOS>BOND
     1    1    2 ar   
     2    1    3 ar   
     3    1    4 ar   
     4    1    8 1    
     5    5    6 ar   
     6    5    7 ar   
     7    5    8 1    
     8    5   12 1    
     9    9   10 ar   
    10    9   11 ar   
    11    9   12 1    
    12    9   13 1    
    13   13   14 1    
    14   14   15 1    
    15   15   16 1    
    16   15   17 1    
    17   16   21 1    
    18   17   18 1    
    19   17   19 1    
    20   19   20 1    
    21   19   21 1    
    22   21   22 1    
    23   22   23 1    
    24   22   31 1    
    25   23   24 2    
    26   24   25 1    
    27   25   26 ar   
    28   25   31 ar   
    29   26   27 1    
    30   26   28 ar   
    31   28   29 ar   
    32   29   30 ar   
    33   30   31 ar   
@<TRIPOS>SUBSTRUCTURE
     1 ATP902      1 GROUP   
@<TRIPOS>SET
ATOM$ORANGE STATIC     ATOMS   COLORGROUP SYSTEM 
20 14 14 15 15 17 17 19 19 21 21 23 23 25 25 26 26 29 \
29 31 31 

