#    Name: 6mat_1_ATP
#    Modification time : Fri May 22 19:28:50 2020

@<TRIPOS>MOLECULE
6mat_1_ATP
   31    33     1     0     1
SMALL
NO_CHARGES


@<TRIPOS>ATOM
      1 PG        104.6390  138.4930  114.7380 P.3       1 ATP901      0.0000 
      2 O1G       104.2640  139.8770  114.2290 O.co2     1 ATP901      0.0000 
      3 O2G       104.3280  138.2200  116.1990 O.co2     1 ATP901      0.0000 
      4 O3G       106.0110  138.0180  114.3580 O.co2     1 ATP901      0.0000 
      5 PB        102.5030  136.6790  114.3370 P.3       1 ATP901      0.0000 
      6 O1B       102.1590  135.8050  113.1680 O.co2     1 ATP901      0.0000 
      7 O2B       102.8460  136.1500  115.7160 O.co2     1 ATP901      0.0000 
      8 O3B       103.7640  137.5130  113.8160 O.3       1 ATP901      0.0000 
      9 PA        100.6850  138.1570  115.8340 P.3       1 ATP901      0.0000 
     10 O1A        99.6860  137.1760  116.3480 O.co2     1 ATP901      0.0000 
     11 O2A       101.8120  138.6050  116.7390 O.co2     1 ATP901      0.0000 
     12 O3A       101.2580  137.6860  114.4190 O.3       1 ATP901      0.0000 
     13 O5'        99.9070  139.4490  115.3370 O.3       1 ATP901      0.0000 
     14 C5'       100.6750  140.6470  115.3550 C.3       1 ATP901      0.0000 
     15 C4'        99.7540  141.8320  115.1080 C.3       1 ATP901      0.0000 
     16 O4'        99.2080  141.6920  113.7910 O.3       1 ATP901      0.0000 
     17 C3'        98.5860  141.9380  116.1050 C.3       1 ATP901      0.0000 
     18 O3'        98.7430  143.0530  117.0130 O.3       1 ATP901      0.0000 
     19 C2'        97.3290  142.0790  115.2450 C.3       1 ATP901      0.0000 
     20 O2'        96.6470  143.3220  115.5000 O.3       1 ATP901      0.0000 
     21 C1'        97.8020  141.9700  113.7900 C.3       1 ATP901      0.0000 
     22 N9         97.1240  140.8500  113.1030 N.pl3     1 ATP901      0.0000 
     23 C8         97.7260  139.9550  112.2970 C.2       1 ATP901      0.0000 
     24 N7         96.8280  139.0560  111.8240 N.2       1 ATP901      0.0000 
     25 C5         95.6220  139.3810  112.3390 C.ar      1 ATP901      0.0000 
     26 C6         94.2430  138.8450  112.2460 C.ar      1 ATP901      0.0000 
     27 N6         93.9740  137.7550  111.4900 N.pl3     1 ATP901      0.0000 
     28 N1         93.2730  139.4800  112.9430 N.ar      1 ATP901      0.0000 
     29 C2         93.5340  140.5660  113.7020 C.ar      1 ATP901      0.0000 
     30 N3         94.7570  141.1130  113.8370 N.ar      1 ATP901      0.0000 
     31 C4         95.8220  140.5690  113.1870 C.ar      1 ATP901      0.0000 
@<TRIPOS>BOND
     1    1    2 ar   
     2    1    3 ar   
     3    1    4 ar   
     4    1    8 1    
     5    5    6 ar   
     6    5    7 ar   
     7    5    8 1    
     8    5   12 1    
     9    9   10 ar   
    10    9   11 ar   
    11    9   12 1    
    12    9   13 1    
    13   13   14 1    
    14   14   15 1    
    15   15   16 1    
    16   15   17 1    
    17   16   21 1    
    18   17   18 1    
    19   17   19 1    
    20   19   20 1    
    21   19   21 1    
    22   21   22 1    
    23   22   23 1    
    24   22   31 1    
    25   23   24 2    
    26   24   25 1    
    27   25   26 ar   
    28   25   31 ar   
    29   26   27 1    
    30   26   28 ar   
    31   28   29 ar   
    32   29   30 ar   
    33   30   31 ar   
@<TRIPOS>SUBSTRUCTURE
     1 ATP901      1 GROUP   
@<TRIPOS>SET
ATOM$ORANGE STATIC     ATOMS   COLORGROUP SYSTEM 
20 14 14 15 15 17 17 19 19 21 21 23 23 25 25 26 26 29 \
29 31 31 

