#    Name: 6mat_9_ATP
#    Modification time : Fri May 22 19:31:13 2020

@<TRIPOS>MOLECULE
6mat_9_ATP
   31    33     1     0     1
SMALL
NO_CHARGES


@<TRIPOS>ATOM
      1 PG        154.2120  116.1830  142.1420 P.3       1 ATP901      0.0000 
      2 O1G       153.0990  116.0150  141.1360 O.co2     1 ATP901      0.0000 
      3 O2G       153.8030  115.9510  143.5780 O.co2     1 ATP901      0.0000 
      4 O3G       155.0670  117.4100  141.9340 O.co2     1 ATP901      0.0000 
      5 PB        156.7870  115.1740  142.1030 P.3       1 ATP901      0.0000 
      6 O1B       157.4600  115.6520  140.8450 O.co2     1 ATP901      0.0000 
      7 O2B       156.9580  115.9370  143.3830 O.co2     1 ATP901      0.0000 
      8 O3B       155.2170  114.9730  141.8250 O.3       1 ATP901      0.0000 
      9 PA        157.4240  113.1100  143.8350 P.3       1 ATP901      0.0000 
     10 O1A       158.6110  113.7720  144.4620 O.co2     1 ATP901      0.0000 
     11 O2A       156.0810  113.1480  144.5200 O.co2     1 ATP901      0.0000 
     12 O3A       157.2500  113.6680  142.3500 O.3       1 ATP901      0.0000 
     13 O5'       157.8510  111.6010  143.5190 O.3       1 ATP901      0.0000 
     14 C5'       156.8360  110.6130  143.3910 C.3       1 ATP901      0.0000 
     15 C4'       157.4330  109.2300  143.6320 C.3       1 ATP901      0.0000 
     16 O4'       157.9310  108.6560  142.4300 O.3       1 ATP901      0.0000 
     17 C3'       158.5490  109.1890  144.6710 C.3       1 ATP901      0.0000 
     18 O3'       158.0740  108.7640  145.9580 O.3       1 ATP901      0.0000 
     19 C2'       159.5590  108.1980  144.1220 C.3       1 ATP901      0.0000 
     20 O2'       159.4260  106.9350  144.7860 O.3       1 ATP901      0.0000 
     21 C1'       159.2180  108.0680  142.6390 C.3       1 ATP901      0.0000 
     22 N9        160.1340  108.9300  141.8650 N.pl3     1 ATP901      0.0000 
     23 C8        159.7630  110.0430  141.2090 C.2       1 ATP901      0.0000 
     24 N7        160.8270  110.6140  140.5940 N.2       1 ATP901      0.0000 
     25 C5        161.9080  109.8550  140.8570 C.ar      1 ATP901      0.0000 
     26 C6        163.3500  109.8930  140.5120 C.ar      1 ATP901      0.0000 
     27 N6        163.8520  110.8870  139.7410 N.pl3     1 ATP901      0.0000 
     28 N1        164.1430  108.9060  140.9910 N.ar      1 ATP901      0.0000 
     29 C2        163.6470  107.9150  141.7580 C.ar      1 ATP901      0.0000 
     30 N3        162.3490  107.8160  142.1120 N.ar      1 ATP901      0.0000 
     31 C4        161.4450  108.7410  141.6990 C.ar      1 ATP901      0.0000 
@<TRIPOS>BOND
     1    1    2 ar   
     2    1    3 ar   
     3    1    4 ar   
     4    1    8 1    
     5    5    6 ar   
     6    5    7 ar   
     7    5    8 1    
     8    5   12 1    
     9    9   10 ar   
    10    9   11 ar   
    11    9   12 1    
    12    9   13 1    
    13   13   14 1    
    14   14   15 1    
    15   15   16 1    
    16   15   17 1    
    17   16   21 1    
    18   17   18 1    
    19   17   19 1    
    20   19   20 1    
    21   19   21 1    
    22   21   22 1    
    23   22   23 1    
    24   22   31 1    
    25   23   24 2    
    26   24   25 1    
    27   25   26 ar   
    28   25   31 ar   
    29   26   27 1    
    30   26   28 ar   
    31   28   29 ar   
    32   29   30 ar   
    33   30   31 ar   
@<TRIPOS>SUBSTRUCTURE
     1 ATP901      1 GROUP   
@<TRIPOS>SET
ATOM$ORANGE STATIC     ATOMS   COLORGROUP SYSTEM 
20 14 14 15 15 17 17 19 19 21 21 23 23 25 25 26 26 29 \
29 31 31 

