#    Name: 6mat_6_ATP
#    Modification time : Fri May 22 19:30:16 2020

@<TRIPOS>MOLECULE
6mat_6_ATP
   31    33     1     0     1
SMALL
NO_CHARGES


@<TRIPOS>ATOM
      1 PG        134.6110  162.7430  148.8620 P.3       1 ATP902      0.0000 
      2 O1G       135.3440  161.7590  147.9790 O.co2     1 ATP902      0.0000 
      3 O2G       134.9060  162.6390  150.3430 O.co2     1 ATP902      0.0000 
      4 O3G       133.1400  162.8590  148.5710 O.co2     1 ATP902      0.0000 
      5 PB        134.2640  165.4630  148.5460 P.3       1 ATP902      0.0000 
      6 O1B       133.5790  165.7320  147.2370 O.co2     1 ATP902      0.0000 
      7 O2B       133.4500  165.3140  149.8060 O.co2     1 ATP902      0.0000 
      8 O3B       135.2020  164.1680  148.4080 O.3       1 ATP902      0.0000 
      9 PA        135.6660  167.1660  150.2130 P.3       1 ATP902      0.0000 
     10 O1A       134.4770  167.9110  150.7400 O.co2     1 ATP902      0.0000 
     11 O2A       136.2740  166.0530  151.0330 O.co2     1 ATP902      0.0000 
     12 O3A       135.3440  166.6220  148.7430 O.3       1 ATP902      0.0000 
     13 O5'       136.7860  168.2500  149.8570 O.3       1 ATP902      0.0000 
     14 C5'       138.1490  167.8390  149.8040 C.3       1 ATP902      0.0000 
     15 C4'       139.0520  169.0600  149.9870 C.3       1 ATP902      0.0000 
     16 O4'       139.4360  169.6770  148.7500 O.3       1 ATP902      0.0000 
     17 C3'       138.4920  170.1390  150.9240 C.3       1 ATP902      0.0000 
     18 O3'       138.9820  170.0280  152.2770 O.3       1 ATP902      0.0000 
     19 C2'       138.8910  171.4630  150.2860 C.3       1 ATP902      0.0000 
     20 O2'       139.9940  172.0600  150.9880 O.3       1 ATP902      0.0000 
     21 C1'       139.2780  171.1030  148.8430 C.3       1 ATP902      0.0000 
     22 N9        138.1180  171.4070  147.9840 N.pl3     1 ATP902      0.0000 
     23 C8        137.3590  170.4860  147.3620 C.2       1 ATP902      0.0000 
     24 N7        136.3730  171.0840  146.6490 N.2       1 ATP902      0.0000 
     25 C5        136.4970  172.4170  146.8160 C.ar      1 ATP902      0.0000 
     26 C6        135.7730  173.6250  146.3350 C.ar      1 ATP902      0.0000 
     27 N6        134.6970  173.5080  145.5160 N.pl3     1 ATP902      0.0000 
     28 N1        136.2180  174.8420  146.7360 N.ar      1 ATP902      0.0000 
     29 C2        137.2890  174.9550  147.5510 C.ar      1 ATP902      0.0000 
     30 N3        137.9950  173.9020  148.0270 N.ar      1 ATP902      0.0000 
     31 C4        137.6550  172.6270  147.7020 C.ar      1 ATP902      0.0000 
@<TRIPOS>BOND
     1    1    2 ar   
     2    1    3 ar   
     3    1    4 ar   
     4    1    8 1    
     5    5    6 ar   
     6    5    7 ar   
     7    5    8 1    
     8    5   12 1    
     9    9   10 ar   
    10    9   11 ar   
    11    9   12 1    
    12    9   13 1    
    13   13   14 1    
    14   14   15 1    
    15   15   16 1    
    16   15   17 1    
    17   16   21 1    
    18   17   18 1    
    19   17   19 1    
    20   19   20 1    
    21   19   21 1    
    22   21   22 1    
    23   22   23 1    
    24   22   31 1    
    25   23   24 2    
    26   24   25 1    
    27   25   26 ar   
    28   25   31 ar   
    29   26   27 1    
    30   26   28 ar   
    31   28   29 ar   
    32   29   30 ar   
    33   30   31 ar   
@<TRIPOS>SUBSTRUCTURE
     1 ATP902      1 GROUP   
@<TRIPOS>SET
ATOM$ORANGE STATIC     ATOMS   COLORGROUP SYSTEM 
20 14 14 15 15 17 17 19 19 21 21 23 23 25 25 26 26 29 \
29 31 31 

