#    Name: 6mat_3_ATP
#    Modification time : Fri May 22 19:29:26 2020

@<TRIPOS>MOLECULE
6mat_3_ATP
   31    33     1     0     1
SMALL
NO_CHARGES


@<TRIPOS>ATOM
      1 PG        124.0800  161.4770  110.5010 P.3       1 ATP901      0.0000 
      2 O1G       124.4050  160.0950  110.0150 O.co2     1 ATP901      0.0000 
      3 O2G       123.6310  161.4770  111.9550 O.co2     1 ATP901      0.0000 
      4 O3G       125.0840  162.5620  110.1370 O.co2     1 ATP901      0.0000 
      5 PB        121.4220  162.3230  109.9990 P.3       1 ATP901      0.0000 
      6 O1B       120.6090  162.2560  108.7350 O.co2     1 ATP901      0.0000 
      7 O2B       121.0470  161.6190  111.2960 O.co2     1 ATP901      0.0000 
      8 O3B       122.8370  161.7520  109.5240 O.3       1 ATP901      0.0000 
      9 PA        121.5840  164.4980  111.7430 P.3       1 ATP901      0.0000 
     10 O1A       120.1800  164.7830  112.1630 O.co2     1 ATP901      0.0000 
     11 O2A       122.4890  163.7050  112.6600 O.co2     1 ATP901      0.0000 
     12 O3A       121.6240  163.8980  110.2540 O.3       1 ATP901      0.0000 
     13 O5'       122.2840  165.8930  111.4630 O.3       1 ATP901      0.0000 
     14 C5'       123.7040  165.8660  111.4910 C.3       1 ATP901      0.0000 
     15 C4'       124.2210  167.2960  111.4070 C.3       1 ATP901      0.0000 
     16 O4'       123.9510  167.8140  110.0990 O.3       1 ATP901      0.0000 
     17 C3'       123.6260  168.2480  112.4590 C.3       1 ATP901      0.0000 
     18 O3'       124.5760  168.5940  113.4950 O.3       1 ATP901      0.0000 
     19 C2'       123.1780  169.4780  111.6660 C.3       1 ATP901      0.0000 
     20 O2'       123.8650  170.6670  112.1050 O.3       1 ATP901      0.0000 
     21 C1'       123.4490  169.1580  110.1870 C.3       1 ATP901      0.0000 
     22 N9        122.1900  169.2200  109.4070 N.pl3     1 ATP901      0.0000 
     23 C8        121.8200  168.3300  108.4680 C.2       1 ATP901      0.0000 
     24 N7        120.6170  168.6650  107.9410 N.2       1 ATP901      0.0000 
     25 C5        120.2050  169.7960  108.5550 C.ar      1 ATP901      0.0000 
     26 C6        119.0210  170.6840  108.4720 C.ar      1 ATP901      0.0000 
     27 N6        118.0130  170.4220  107.6050 N.pl3     1 ATP901      0.0000 
     28 N1        118.9880  171.7600  109.2910 N.ar      1 ATP901      0.0000 
     29 C2        119.9900  172.0260  110.1560 C.ar      1 ATP901      0.0000 
     30 N3        121.0940  171.2690  110.2890 N.ar      1 ATP901      0.0000 
     31 C4        121.2510  170.1590  109.5250 C.ar      1 ATP901      0.0000 
@<TRIPOS>BOND
     1    1    2 ar   
     2    1    3 ar   
     3    1    4 ar   
     4    1    8 1    
     5    5    6 ar   
     6    5    7 ar   
     7    5    8 1    
     8    5   12 1    
     9    9   10 ar   
    10    9   11 ar   
    11    9   12 1    
    12    9   13 1    
    13   13   14 1    
    14   14   15 1    
    15   15   16 1    
    16   15   17 1    
    17   16   21 1    
    18   17   18 1    
    19   17   19 1    
    20   19   20 1    
    21   19   21 1    
    22   21   22 1    
    23   22   23 1    
    24   22   31 1    
    25   23   24 2    
    26   24   25 1    
    27   25   26 ar   
    28   25   31 ar   
    29   26   27 1    
    30   26   28 ar   
    31   28   29 ar   
    32   29   30 ar   
    33   30   31 ar   
@<TRIPOS>SUBSTRUCTURE
     1 ATP901      1 GROUP   
@<TRIPOS>SET
ATOM$ORANGE STATIC     ATOMS   COLORGROUP SYSTEM 
20 14 14 15 15 17 17 19 19 21 21 23 23 25 25 26 26 29 \
29 31 31 

