#    Name: 6o91_1_NAJ
#    Modification time : Fri May 22 19:26:27 2020

@<TRIPOS>MOLECULE
6o91_1_NAJ
   44    48     1     0     0
SMALL
NO_CHARGES


@<TRIPOS>ATOM
      1 PA         14.7950  -26.0280   -1.3980 P.3       1 NAJ403      0.0000 
      2 O1A        16.1170  -26.5740   -1.0470 O.co2     1 NAJ403      0.0000 
      3 O2A        13.6130  -26.2770   -0.5320 O.co2     1 NAJ403      0.0000 
      4 O5B        14.3750  -26.5390   -2.8220 O.3       1 NAJ403      0.0000 
      5 C5B        15.3050  -26.8060   -3.8770 C.3       1 NAJ403      0.0000 
      6 C4B        14.8170  -28.0150   -4.6410 C.3       1 NAJ403      0.0000 
      7 O4B        15.7480  -28.2400   -5.7240 O.3       1 NAJ403      0.0000 
      8 C3B        14.7350  -29.3190   -3.8440 C.3       1 NAJ403      0.0000 
      9 O3B        13.4050  -29.8570   -3.8510 O.3       1 NAJ403      0.0000 
     10 C2B        15.7680  -30.2130   -4.5420 C.3       1 NAJ403      0.0000 
     11 O2B        15.4760  -31.6020   -4.5470 O.3       1 NAJ403      0.0000 
     12 C1B        15.8030  -29.6290   -5.9380 C.3       1 NAJ403      0.0000 
     13 N9A        17.0100  -29.9410   -6.6770 N.pl3     1 NAJ403      0.0000 
     14 C8A        18.2960  -29.9940   -6.2070 C.2       1 NAJ403      0.0000 
     15 N7A        19.1160  -30.2720   -7.2580 N.2       1 NAJ403      0.0000 
     16 C5A        18.3430  -30.4060   -8.3850 C.ar      1 NAJ403      0.0000 
     17 C6A        18.5560  -30.7420   -9.8030 C.ar      1 NAJ403      0.0000 
     18 N6A        19.7780  -30.9570  -10.2400 N.pl3     1 NAJ403      0.0000 
     19 N1A        17.4660  -30.7000  -10.6210 N.ar      1 NAJ403      0.0000 
     20 C2A        16.2430  -30.4560  -10.1820 C.ar      1 NAJ403      0.0000 
     21 N3A        15.9970  -30.2660   -8.9020 N.ar      1 NAJ403      0.0000 
     22 C4A        17.0310  -30.2060   -8.0160 C.ar      1 NAJ403      0.0000 
     23 O3         15.0040  -24.4630   -1.5830 O.3       1 NAJ403      0.0000 
     24 PN         14.0500  -23.1860   -1.6040 P.3       1 NAJ403      0.0000 
     25 O1N        13.9180  -22.6460   -0.2290 O.co2     1 NAJ403      0.0000 
     26 O2N        12.8450  -23.4960   -2.4260 O.co2     1 NAJ403      0.0000 
     27 O5D        15.0280  -22.1980   -2.3650 O.3       1 NAJ403      0.0000 
     28 C5D        15.3440  -22.4880   -3.7360 C.3       1 NAJ403      0.0000 
     29 C4D        16.4690  -21.5610   -4.1800 C.3       1 NAJ403      0.0000 
     30 O4D        15.9650  -20.2200   -4.3050 O.3       1 NAJ403      0.0000 
     31 C3D        17.6870  -21.4860   -3.2430 C.3       1 NAJ403      0.0000 
     32 O3D        18.9050  -21.3240   -3.9950 O.3       1 NAJ403      0.0000 
     33 C2D        17.4360  -20.1870   -2.5020 C.3       1 NAJ403      0.0000 
     34 O2D        18.6080  -19.6230   -1.9790 O.3       1 NAJ403      0.0000 
     35 C1D        16.8310  -19.3360   -3.6180 C.3       1 NAJ403      0.0000 
     36 N1N        16.0500  -18.1990   -3.1660 N.pl3     1 NAJ403      0.0000 
     37 C2N        16.1140  -17.0630   -3.9080 C.ar      1 NAJ403      0.0000 
     38 C3N        15.3190  -15.9640   -3.6180 C.ar      1 NAJ403      0.0000 
     39 C7N        15.3090  -14.7790   -4.4430 C.2       1 NAJ403      0.0000 
     40 O7N        14.8220  -13.6970   -4.0080 O.2       1 NAJ403      0.0000 
     41 N7N        15.8070  -14.8400   -5.6880 N.am      1 NAJ403      0.0000 
     42 C4N        14.3830  -16.0380   -2.5280 C.ar      1 NAJ403      0.0000 
     43 C5N        14.2610  -17.2830   -1.8790 C.ar      1 NAJ403      0.0000 
     44 C6N        15.0770  -18.3560   -2.1760 C.ar      1 NAJ403      0.0000 
@<TRIPOS>BOND
     1    1    2 ar   
     2    1    3 ar   
     3    1    4 1    
     4    1   23 1    
     5    4    5 1    
     6    5    6 1    
     7    6    7 1    
     8    6    8 1    
     9    7   12 1    
    10    8    9 1    
    11    8   10 1    
    12   10   11 1    
    13   10   12 1    
    14   12   13 1    
    15   13   14 1    
    16   13   22 1    
    17   14   15 2    
    18   15   16 1    
    19   16   17 ar   
    20   16   22 ar   
    21   17   18 1    
    22   17   19 ar   
    23   19   20 ar   
    24   20   21 ar   
    25   21   22 ar   
    26   23   24 1    
    27   24   25 ar   
    28   24   26 ar   
    29   24   27 1    
    30   27   28 1    
    31   28   29 1    
    32   29   30 1    
    33   29   31 1    
    34   30   35 1    
    35   31   32 1    
    36   31   33 1    
    37   33   34 1    
    38   33   35 1    
    39   35   36 1    
    40   36   37 ar   
    41   36   44 ar   
    42   37   38 ar   
    43   38   39 1    
    44   38   42 ar   
    45   39   40 2    
    46   39   41 am   
    47   42   43 ar   
    48   43   44 ar   
@<TRIPOS>SUBSTRUCTURE
     1 NAJ403      1 GROUP   
@<TRIPOS>SET

