#    Name: 6o91_2_PFB
#    Modification time : Fri May 22 19:26:38 2020

@<TRIPOS>MOLECULE
6o91_2_PFB
   13    13     1     0     0
SMALL
NO_CHARGES


@<TRIPOS>ATOM
      1 C1         17.8740  -14.4600   -0.4340 C.ar      1 PFB404      0.0000 
      2 C2         18.2490  -14.1420   -1.7170 C.ar      1 PFB404      0.0000 
      3 C3         19.5530  -13.9690   -2.0920 C.ar      1 PFB404      0.0000 
      4 C4         20.5140  -14.1100   -1.1410 C.ar      1 PFB404      0.0000 
      5 C5         20.2040  -14.4060    0.1350 C.ar      1 PFB404      0.0000 
      6 C6         18.8840  -14.5710    0.5050 C.ar      1 PFB404      0.0000 
      7 C7         16.4220  -14.7300   -0.0480 C.3       1 PFB404      0.0000 
      8 F2         17.3190  -13.9770   -2.6700 F         1 PFB404      0.0000 
      9 F3         19.8820  -13.6500   -3.3420 F         1 PFB404      0.0000 
     10 F4         21.7960  -13.9280   -1.4750 F         1 PFB404      0.0000 
     11 F5         21.1490  -14.5020    1.1130 F         1 PFB404      0.0000 
     12 F6         18.5690  -14.8090    1.7770 F         1 PFB404      0.0000 
     13 O1         16.2060  -16.1210    0.2010 O.3       1 PFB404      0.0000 
@<TRIPOS>BOND
     1    1    2 ar   
     2    1    6 ar   
     3    1    7 1    
     4    2    3 ar   
     5    2    8 1    
     6    3    4 ar   
     7    3    9 1    
     8    4    5 ar   
     9    4   10 1    
    10    5    6 ar   
    11    5   11 1    
    12    6   12 1    
    13    7   13 1    
@<TRIPOS>SUBSTRUCTURE
     1 PFB404      1 GROUP   
@<TRIPOS>SET

