#    Name: 5uut_2_MYA
#    Modification time : Fri May 22 19:19:19 2020

@<TRIPOS>MOLECULE
5uut_2_MYA
   63    65     1     0     0
SMALL
NO_CHARGES


@<TRIPOS>ATOM
      1 S1        -19.7440   79.6570  -12.1980 S.3       1 MYA501      0.0000 
      2 C2        -21.2790   80.6330  -12.2520 C.3       1 MYA501      0.0000 
      3 C3        -21.5760   81.0840  -10.7990 C.3       1 MYA501      0.0000 
      4 N4        -23.0200   81.3470  -10.6860 N.am      1 MYA501      0.0000 
      5 C5        -23.4920   82.7300  -10.7940 C.2       1 MYA501      0.0000 
      6 O5        -22.6900   83.5980  -10.9530 O.2       1 MYA501      0.0000 
      7 C6        -25.0070   83.0410  -10.6890 C.3       1 MYA501      0.0000 
      8 C7        -25.2920   84.3670   -9.9540 C.3       1 MYA501      0.0000 
      9 N8        -24.5980   84.4370   -8.6520 N.am      1 MYA501      0.0000 
     10 C9        -24.9500   83.5110   -7.5710 C.2       1 MYA501      0.0000 
     11 O9        -25.8160   82.6870   -7.7190 O.2       1 MYA501      0.0000 
     12 C10       -24.1730   83.6500   -6.2290 C.3       1 MYA501      0.0000 
     13 O10       -23.5740   84.9340   -6.1820 O.3       1 MYA501      0.0000 
     14 C11       -23.0690   82.5580   -6.0720 C.3       1 MYA501      0.0000 
     15 C12       -22.1900   82.8830   -4.8470 C.3       1 MYA501      0.0000 
     16 C13       -23.7490   81.2080   -5.8220 C.3       1 MYA501      0.0000 
     17 C14       -22.1770   82.5090   -7.3180 C.3       1 MYA501      0.0000 
     18 N1A       -17.4380   79.9320   -7.8090 N.ar      1 MYA501      0.0000 
     19 O1A       -21.9080   84.3180    0.7250 O.co2     1 MYA501      0.0000 
     20 P1A       -21.7820   83.3980   -0.4740 P.3       1 MYA501      0.0000 
     21 C1X       -17.0710   82.5290   -3.3360 C.3       1 MYA501      0.0000 
     22 C2A       -16.8030   79.5980   -6.6860 C.ar      1 MYA501      0.0000 
     23 O2A       -22.9190   82.4060   -0.5120 O.co2     1 MYA501      0.0000 
     24 P2A       -23.1000   84.3930   -2.8480 P.3       1 MYA501      0.0000 
     25 C2M       -20.1720   78.0750  -11.4290 C.2       1 MYA501      0.0000 
     26 O2M       -20.9540   77.3750  -11.9760 O.2       1 MYA501      0.0000 
     27 C2X       -16.5570   83.7520   -2.3970 C.3       1 MYA501      0.0000 
     28 O2X       -15.2090   83.9960   -2.7280 O.3       1 MYA501      0.0000 
     29 N3A       -16.7990   80.3660   -5.6030 N.ar      1 MYA501      0.0000 
     30 O3A       -21.7800   84.3400   -1.8430 O.3       1 MYA501      0.0000 
     31 C3M       -19.5790   77.7360  -10.0340 C.3       1 MYA501      0.0000 
     32 C3X       -16.8150   83.3580   -1.1830 C.3       1 MYA501      0.0000 
     33 O3X       -15.8340   82.4670   -0.7140 O.3       1 MYA501      0.0000 
     34 P3X       -14.5060   83.1080   -0.0010 P.3       1 MYA501      0.0000 
     35 C4A       -17.4600   81.5310   -5.6150 C.ar      1 MYA501      0.0000 
     36 O4A       -22.9280   85.5540   -3.8120 O.co2     1 MYA501      0.0000 
     37 C4M       -18.3290   76.8510  -10.0070 C.3       1 MYA501      0.0000 
     38 C4X       -18.1430   82.5360   -1.3570 C.3       1 MYA501      0.0000 
     39 O4X       -18.1990   82.0660   -2.8380 O.3       1 MYA501      0.0000 
     40 C5A       -18.1390   81.9340   -6.7590 C.ar      1 MYA501      0.0000 
     41 O5A       -24.3770   84.4780   -2.0480 O.co2     1 MYA501      0.0000 
     42 C5M       -18.3960   76.0490   -8.6880 C.3       1 MYA501      0.0000 
     43 C5X       -19.3030   83.4820   -1.0190 C.3       1 MYA501      0.0000 
     44 O5X       -20.3140   82.6740   -0.4610 O.3       1 MYA501      0.0000 
     45 C6A       -18.1010   81.0790   -7.8780 C.ar      1 MYA501      0.0000 
     46 N6A       -18.7950   81.4500   -9.1070 N.pl3     1 MYA501      0.0000 
     47 O6A       -23.0960   82.9880   -3.7500 O.3       1 MYA501      0.0000 
     48 C6M       -17.2600   76.3780   -7.6770 C.3       1 MYA501      0.0000 
     49 N7A       -18.7030   83.1220   -6.4910 N.2       1 MYA501      0.0000 
     50 O7A       -13.3600   82.1220    0.0120 O.co2     1 MYA501      0.0000 
     51 C7M       -16.9650   75.1320   -6.7980 C.3       1 MYA501      0.0000 
     52 C8A       -18.3930   83.4500   -5.2430 C.2       1 MYA501      0.0000 
     53 O8A       -14.0800   84.2870   -0.8460 O.co2     1 MYA501      0.0000 
     54 C8M       -15.9250   74.1820   -7.4650 C.3       1 MYA501      0.0000 
     55 N9A       -17.6700   82.4810   -4.6880 N.pl3     1 MYA501      0.0000 
     56 O9A       -14.9100   83.5590    1.4100 O.co2     1 MYA501      0.0000 
     57 C9M       -15.4210   73.0630   -6.4920 C.3       1 MYA501      0.0000 
     58 CAM       -15.4500   71.6670   -7.1890 C.3       1 MYA501      0.0000 
     59 CBM       -16.0660   70.4970   -6.3310 C.3       1 MYA501      0.0000 
     60 CCM       -15.0490   69.3000   -6.3940 C.3       1 MYA501      0.0000 
     61 CDM       -15.6930   67.8950   -6.2830 C.3       1 MYA501      0.0000 
     62 CEM       -14.8020   66.7790   -6.8870 C.3       1 MYA501      0.0000 
     63 CFM       -13.5750   66.4500   -6.0170 C.3       1 MYA501      0.0000 
@<TRIPOS>BOND
     1    1    2 1    
     2    1   25 1    
     3    2    3 1    
     4    3    4 1    
     5    4    5 am   
     6    5    6 2    
     7    5    7 1    
     8    7    8 1    
     9    8    9 1    
    10    9   10 am   
    11   10   11 2    
    12   10   12 1    
    13   12   13 1    
    14   12   14 1    
    15   14   15 1    
    16   14   16 1    
    17   14   17 1    
    18   15   47 1    
    19   18   22 ar   
    20   18   45 ar   
    21   19   20 ar   
    22   20   23 ar   
    23   20   30 1    
    24   20   44 1    
    25   21   27 1    
    26   21   39 1    
    27   21   55 1    
    28   22   29 ar   
    29   24   30 1    
    30   24   36 ar   
    31   24   41 ar   
    32   24   47 1    
    33   25   26 2    
    34   25   31 1    
    35   27   28 1    
    36   27   32 1    
    37   29   35 ar   
    38   31   37 1    
    39   32   33 1    
    40   32   38 1    
    41   33   34 1    
    42   34   50 ar   
    43   34   53 ar   
    44   34   56 ar   
    45   35   40 ar   
    46   35   55 1    
    47   37   42 1    
    48   38   39 1    
    49   38   43 1    
    50   40   45 ar   
    51   40   49 1    
    52   42   48 1    
    53   43   44 1    
    54   45   46 1    
    55   48   51 1    
    56   49   52 2    
    57   51   54 1    
    58   52   55 1    
    59   54   57 1    
    60   57   58 1    
    61   58   59 1    
    62   59   60 1    
    63   60   61 1    
    64   61   62 1    
    65   62   63 1    
@<TRIPOS>SUBSTRUCTURE
     1 MYA501      1 GROUP   
@<TRIPOS>SET

