#    Name: 5uut_1_MYA
#    Modification time : Fri May 22 19:19:14 2020

@<TRIPOS>MOLECULE
5uut_1_MYA
   63    65     1     0     0
SMALL
NO_CHARGES


@<TRIPOS>ATOM
      1 S1        -16.9640   32.7730  -17.9130 S.3       1 MYA501      0.0000 
      2 C2        -18.3630   31.6080  -17.8820 C.3       1 MYA501      0.0000 
      3 C3        -18.7080   31.2320  -19.3400 C.3       1 MYA501      0.0000 
      4 N4        -20.0790   30.6950  -19.3100 N.am      1 MYA501      0.0000 
      5 C5        -20.2930   29.2500  -19.2870 C.2       1 MYA501      0.0000 
      6 O5        -19.3570   28.5080  -19.2980 O.2       1 MYA501      0.0000 
      7 C6        -21.7390   28.7220  -19.2610 C.3       1 MYA501      0.0000 
      8 C7        -21.8610   27.3440  -19.9500 C.3       1 MYA501      0.0000 
      9 N8        -21.1590   27.3610  -21.2510 N.am      1 MYA501      0.0000 
     10 C9        -21.6520   28.1990  -22.3640 C.2       1 MYA501      0.0000 
     11 O9        -22.6440   28.8740  -22.2420 O.2       1 MYA501      0.0000 
     12 C10       -20.8720   28.1800  -23.7110 C.3       1 MYA501      0.0000 
     13 O10       -20.0890   27.0100  -23.7610 O.3       1 MYA501      0.0000 
     14 C11       -19.9360   29.4230  -23.9300 C.3       1 MYA501      0.0000 
     15 C12       -19.1070   29.2090  -25.2150 C.3       1 MYA501      0.0000 
     16 C13       -20.8030   30.6810  -24.0990 C.3       1 MYA501      0.0000 
     17 C14       -18.9470   29.5770  -22.7590 C.3       1 MYA501      0.0000 
     18 N1A       -14.5610   32.8300  -22.2990 N.ar      1 MYA501      0.0000 
     19 O1A       -19.8680   29.6650  -29.5920 O.co2     1 MYA501      0.0000 
     20 P1A       -18.6380   28.7760  -29.6260 P.3       1 MYA501      0.0000 
     21 C1X       -14.0490   30.2240  -26.6800 C.3       1 MYA501      0.0000 
     22 C2A       -14.0100   33.2250  -23.4510 C.ar      1 MYA501      0.0000 
     23 O2A       -18.6650   27.8910  -30.8600 O.co2     1 MYA501      0.0000 
     24 P2A       -19.8160   27.6120  -27.2200 P.3       1 MYA501      0.0000 
     25 C2M       -17.5860   34.4430  -18.3190 C.2       1 MYA501      0.0000 
     26 O2M       -18.7440   34.7310  -18.2270 O.2       1 MYA501      0.0000 
     27 C2X       -13.3180   29.0880  -27.5580 C.3       1 MYA501      0.0000 
     28 O2X       -11.9610   29.1420  -27.1770 O.3       1 MYA501      0.0000 
     29 N3A       -13.9580   32.4330  -24.5260 N.ar      1 MYA501      0.0000 
     30 O3A       -18.5440   27.8450  -28.2550 O.3       1 MYA501      0.0000 
     31 C3M       -16.5730   35.4770  -18.8310 C.3       1 MYA501      0.0000 
     32 C3X       -13.6440   29.3860  -28.7860 C.3       1 MYA501      0.0000 
     33 O3X       -12.8140   30.3880  -29.3350 O.3       1 MYA501      0.0000 
     34 P3X       -11.3970   29.9270  -30.0380 P.3       1 MYA501      0.0000 
     35 C4A       -14.4830   31.2030  -24.4360 C.ar      1 MYA501      0.0000 
     36 O4A       -19.4260   26.4430  -26.3570 O.co2     1 MYA501      0.0000 
     37 C4M       -16.3970   35.2820  -20.3500 C.3       1 MYA501      0.0000 
     38 C4X       -15.0780   30.0100  -28.6460 C.3       1 MYA501      0.0000 
     39 O4X       -15.2570   30.3460  -27.1420 O.3       1 MYA501      0.0000 
     40 C5A       -15.0740   30.7520  -23.2540 C.ar      1 MYA501      0.0000 
     41 O5A       -21.0640   27.3670  -28.0440 O.co2     1 MYA501      0.0000 
     42 C5M       -15.4430   36.3620  -20.9220 C.3       1 MYA501      0.0000 
     43 C5X       -16.1090   28.9720  -29.1090 C.3       1 MYA501      0.0000 
     44 O5X       -17.2500   29.6700  -29.5790 O.3       1 MYA501      0.0000 
     45 C6A       -15.0990   31.6270  -22.1590 C.ar      1 MYA501      0.0000 
     46 N6A       -15.6920   31.2030  -20.8820 N.pl3     1 MYA501      0.0000 
     47 O6A       -20.0320   28.9790  -26.2770 O.3       1 MYA501      0.0000 
     48 C6M       -15.5870   36.4590  -22.4750 C.3       1 MYA501      0.0000 
     49 N7A       -15.4990   29.4880  -23.4700 N.2       1 MYA501      0.0000 
     50 O7A       -10.4780   31.1230  -30.1760 O.co2     1 MYA501      0.0000 
     51 C7M       -14.3740   37.2420  -23.0560 C.3       1 MYA501      0.0000 
     52 C8A       -15.1950   29.1690  -24.7200 C.2       1 MYA501      0.0000 
     53 O8A       -10.7130   28.8880  -29.1900 O.co2     1 MYA501      0.0000 
     54 C8M       -14.4340   38.7410  -22.6090 C.3       1 MYA501      0.0000 
     55 N9A       -14.6140   30.2070  -25.3200 N.pl3     1 MYA501      0.0000 
     56 O9A       -11.7470   29.3620  -31.4050 O.co2     1 MYA501      0.0000 
     57 C9M       -13.3430   39.5900  -23.3560 C.3       1 MYA501      0.0000 
     58 CAM       -13.4950   41.0910  -22.9720 C.3       1 MYA501      0.0000 
     59 CBM       -14.6530   41.7700  -23.7740 C.3       1 MYA501      0.0000 
     60 CCM       -14.7770   43.2620  -23.3200 C.3       1 MYA501      0.0000 
     61 CDM       -13.6090   44.1450  -23.8800 C.3       1 MYA501      0.0000 
     62 CEM       -13.8440   45.6480  -23.5610 C.3       1 MYA501      0.0000 
     63 CFM       -12.6060   46.5400  -23.8650 C.3       1 MYA501      0.0000 
@<TRIPOS>BOND
     1   48   51 1    
     2   49   52 2    
     3   51   54 1    
     4   52   55 1    
     5   54   57 1    
     6   57   58 1    
     7   58   59 1    
     8   59   60 1    
     9   60   61 1    
    10   61   62 1    
    11   62   63 1    
    12    1    2 1    
    13    1   25 1    
    14    2    3 1    
    15    3    4 1    
    16    4    5 am   
    17    5    6 2    
    18    5    7 1    
    19    7    8 1    
    20    8    9 1    
    21    9   10 am   
    22   10   11 2    
    23   10   12 1    
    24   12   13 1    
    25   12   14 1    
    26   14   15 1    
    27   14   16 1    
    28   14   17 1    
    29   15   47 1    
    30   18   22 ar   
    31   18   45 ar   
    32   19   20 ar   
    33   20   23 ar   
    34   20   30 1    
    35   20   44 1    
    36   21   27 1    
    37   21   39 1    
    38   21   55 1    
    39   22   29 ar   
    40   24   30 1    
    41   24   36 ar   
    42   24   41 ar   
    43   24   47 1    
    44   25   26 2    
    45   25   31 1    
    46   27   28 1    
    47   27   32 1    
    48   29   35 ar   
    49   31   37 1    
    50   32   33 1    
    51   32   38 1    
    52   33   34 1    
    53   34   50 ar   
    54   34   53 ar   
    55   34   56 ar   
    56   35   40 ar   
    57   35   55 1    
    58   37   42 1    
    59   38   39 1    
    60   38   43 1    
    61   40   45 ar   
    62   40   49 1    
    63   42   48 1    
    64   43   44 1    
    65   45   46 1    
@<TRIPOS>SUBSTRUCTURE
     1 MYA501      1 GROUP   
@<TRIPOS>SET

