#    Name: 6pk0_3_HIW_CAVITY_N1_8
#    Modification time : Fri May 22 19:26:01 2020

@<TRIPOS>MOLECULE
6pk0_3_HIW_CAVITY_N1_8
   83     0     6     0     0
SMALL
NO_CHARGES


@<TRIPOS>ATOM
      1 OG         26.5400   15.8500   22.9800 O.3       1 SER1        0.0000 
      2 OG         32.2500   24.2300   18.9300 O.3       1 SER1        0.0000 
      3 OG         27.4400   17.5400   23.8800 O.3       1 SER1        0.0000 
      4 OG         27.0200   16.1900   24.3600 O.3       1 SER1        0.0000 
      5 OG         28.8000   16.9900   23.5400 O.3       1 SER1        0.0000 
      6 OG         32.7300   24.5700   20.3100 O.3       1 SER1        0.0000 
      7 OG         32.3000   23.2100   20.7900 O.3       1 SER1        0.0000 
      8 OG         31.4900   19.4900   23.6200 O.3       1 SER1        0.0000 
      9 OG         31.0600   18.1400   24.1100 O.3       1 SER1        0.0000 
     10 OG         32.8500   18.9500   23.2900 O.3       1 SER1        0.0000 
     11 OG         31.9700   19.8400   25.0000 O.3       1 SER1        0.0000 
     12 N          26.0900   18.0900   24.2100 N.am      2 ALA2        0.0000 
     13 N          31.8700   21.8600   21.2800 N.am      2 ALA2        0.0000 
     14 O          30.5800   17.8000   22.7300 O.2       2 ALA2        0.0000 
     15 N          25.2100   18.9800   25.9200 N.am      2 ALA2        0.0000 
     16 N          27.0000   19.7800   25.1100 N.am      2 ALA2        0.0000 
     17 N          32.3500   22.2000   22.6600 N.am      2 ALA2        0.0000 
     18 N          31.9200   20.8500   23.1400 N.am      2 ALA2        0.0000 
     19 N          33.7000   21.6500   22.3200 N.am      2 ALA2        0.0000 
     20 N          33.2800   20.3000   22.8100 N.am      2 ALA2        0.0000 
     21 OD1        25.1300   17.4100   21.4500 O.co2     3 ASP3        0.0000 
     22 OD1        26.4900   16.8600   21.1200 O.co2     3 ASP3        0.0000 
     23 OD1        26.9700   17.2000   22.5000 O.co2     3 ASP3        0.0000 
     24 OD1        28.7500   18.0100   21.6800 O.co2     3 ASP3        0.0000 
     25 OD1        28.3200   16.6500   22.1600 O.co2     3 ASP3        0.0000 
     26 CZ         28.6800   22.6200   20.5600 C.ar      4 PHE5        0.0000 
     27 CZ         28.2500   21.2600   21.0500 C.ar      4 PHE5        0.0000 
     28 CZ         30.4700   23.4200   19.7500 C.ar      4 PHE5        0.0000 
     29 CZ         30.0400   22.0700   20.2300 C.ar      4 PHE5        0.0000 
     30 CZ         29.6100   20.7100   20.7100 C.ar      4 PHE5        0.0000 
     31 CZ         30.5200   22.4100   21.6100 C.ar      4 PHE5        0.0000 
     32 CZ         30.0900   21.0600   22.0900 C.ar      4 PHE5        0.0000 
     33 CZ         30.9900   22.7500   22.9900 C.ar      4 PHE5        0.0000 
     34 CZ         30.5600   21.4000   23.4700 C.ar      4 PHE5        0.0000 
     35 CZ         30.1400   20.0400   23.9600 C.ar      4 PHE5        0.0000 
     36 CZ         30.5400   24.9900   24.2200 C.ar      4 PHE5        0.0000 
     37 CZ         31.4700   23.0900   24.3700 C.ar      4 PHE5        0.0000 
     38 CZ         31.0400   21.7400   24.8500 C.ar      4 PHE5        0.0000 
     39 CZ         30.6100   20.3800   25.3400 C.ar      4 PHE5        0.0000 
     40 CA         25.5600   18.7600   20.9700 C.3       5 GLY6        0.0000 
     41 CA         27.7700   20.9200   19.6700 C.3       5 GLY6        0.0000 
     42 CA         26.9200   18.2100   20.6300 C.3       5 GLY6        0.0000 
     43 CA         28.7000   19.0200   19.8200 C.3       5 GLY6        0.0000 
     44 CA         28.2700   17.6700   20.3000 C.3       5 GLY6        0.0000 
     45 CA         26.9000   21.8100   21.3800 C.3       5 GLY6        0.0000 
     46 CA         26.4700   20.4600   21.8600 C.3       5 GLY6        0.0000 
     47 CA         27.8200   19.9100   21.5300 C.3       5 GLY6        0.0000 
     48 CA         27.4000   18.5500   22.0100 C.3       5 GLY6        0.0000 
     49 CA         29.1800   19.3600   21.2000 C.3       5 GLY6        0.0000 
     50 CA         31.8200   22.8700   19.4100 C.3       5 GLY6        0.0000 
     51 CA         30.1100   17.4600   21.3500 C.3       5 GLY6        0.0000 
     52 CA         25.1600   19.9900   24.0600 C.3       5 GLY6        0.0000 
     53 CA         26.9500   20.8000   23.2400 C.3       5 GLY6        0.0000 
     54 CA         29.5900   24.3100   21.4600 C.3       5 GLY6        0.0000 
     55 CA         29.1600   22.9600   21.9400 C.3       5 GLY6        0.0000 
     56 CA         28.7300   21.6000   22.4300 C.3       5 GLY6        0.0000 
     57 CA         28.3000   20.2500   22.9100 C.3       5 GLY6        0.0000 
     58 CA         29.6600   19.7000   22.5800 C.3       5 GLY6        0.0000 
     59 CA         29.2300   18.3500   23.0600 C.3       5 GLY6        0.0000 
     60 CA         31.4400   20.5100   21.7600 C.3       5 GLY6        0.0000 
     61 CA         31.0100   19.1500   22.2400 C.3       5 GLY6        0.0000 
     62 CA         28.7100   25.2000   23.1800 C.3       5 GLY6        0.0000 
     63 CA         30.0700   24.6500   22.8400 C.3       5 GLY6        0.0000 
     64 CA         29.6400   23.3000   23.3300 C.3       5 GLY6        0.0000 
     65 CA         28.7800   20.5900   24.2900 C.3       5 GLY6        0.0000 
     66 CA         28.3500   19.2400   24.7700 C.3       5 GLY6        0.0000 
     67 CA         29.7100   18.6900   24.4400 C.3       5 GLY6        0.0000 
     68 CA         32.4000   21.1900   24.5200 C.3       5 GLY6        0.0000 
     69 DU         26.0400   19.1000   22.3500 H         6 CUB7        0.0000 
     70 DU         25.6100   17.7500   22.8300 H         6 CUB7        0.0000 
     71 DU         25.1800   16.3900   23.3100 H         6 CUB7        0.0000 
     72 DU         29.1100   23.9700   20.0800 H         6 CUB7        0.0000 
     73 DU         30.8900   24.7800   19.2600 H         6 CUB7        0.0000 
     74 DU         26.5200   19.4400   23.7300 H         6 CUB7        0.0000 
     75 DU         25.6600   16.7400   24.6900 H         6 CUB7        0.0000 
     76 DU         27.8700   18.9000   23.3900 H         6 CUB7        0.0000 
     77 DU         31.3700   25.1200   20.6400 H         6 CUB7        0.0000 
     78 DU         30.9400   23.7600   21.1300 H         6 CUB7        0.0000 
     79 DU         30.4900   26.0100   22.3600 H         6 CUB7        0.0000 
     80 DU         31.8500   25.4600   22.0300 H         6 CUB7        0.0000 
     81 DU         31.4200   24.1000   22.5100 H         6 CUB7        0.0000 
     82 DU         32.7800   23.5600   22.1700 H         6 CUB7        0.0000 
     83 DU         30.9700   26.3500   23.7400 H         6 CUB7        0.0000 
@<TRIPOS>BOND
@<TRIPOS>SUBSTRUCTURE
     1 SER1        1 GROUP   
     2 ALA2       12 GROUP   
     3 ASP3       21 GROUP   
     4 PHE5       26 GROUP   
     5 GLY6       40 GROUP   
     6 CUB7       69 GROUP   
@<TRIPOS>SET

