#    Name: 6pk0_4_HIW_CAVITY_N1_6
#    Modification time : Fri May 22 19:26:05 2020

@<TRIPOS>MOLECULE
6pk0_4_HIW_CAVITY_N1_6
   70     0     6     0     0
SMALL
NO_CHARGES


@<TRIPOS>ATOM
      1 OG         49.1400  -15.4400   71.7900 O.3       1 SER1        0.0000 
      2 OG         50.0500  -13.7500   72.6900 O.3       1 SER1        0.0000 
      3 OG         50.5200  -13.4100   74.0700 O.3       1 SER1        0.0000 
      4 OG         51.0000  -13.0700   75.4500 O.3       1 SER1        0.0000 
      5 OG         47.4800  -15.6900   78.9400 O.3       1 SER1        0.0000 
      6 OG         47.9600  -15.3500   80.3200 O.3       1 SER1        0.0000 
      7 N          50.0200  -16.3300   70.0700 N.am      2 ALA2        0.0000 
      8 N          51.3700  -16.8800   69.7400 N.am      2 ALA2        0.0000 
      9 N          50.9500  -18.2400   70.2200 N.am      2 ALA2        0.0000 
     10 N          50.9200  -14.6400   70.9700 N.am      2 ALA2        0.0000 
     11 N          50.5000  -15.9900   71.4500 N.am      2 ALA2        0.0000 
     12 N          51.8500  -16.5400   71.1200 N.am      2 ALA2        0.0000 
     13 N          51.4200  -17.8900   71.6000 N.am      2 ALA2        0.0000 
     14 N          52.7800  -18.4400   71.2700 N.am      2 ALA2        0.0000 
     15 O          51.4000  -14.3000   72.3500 O.2       2 ALA2        0.0000 
     16 N          48.3100  -15.5700   75.3700 N.am      2 ALA2        0.0000 
     17 N          48.7900  -15.2300   76.7500 N.am      2 ALA2        0.0000 
     18 N          47.9100  -14.3400   78.4600 N.am      2 ALA2        0.0000 
     19 N          49.2700  -14.8900   78.1300 N.am      2 ALA2        0.0000 
     20 OD1        52.3600  -13.6200   75.1100 O.co2     3 ASP3        0.0000 
     21 OD1        52.8400  -13.2700   76.4900 O.co2     3 ASP3        0.0000 
     22 CZ         48.7100  -16.8000   72.2700 C.ar      4 PHE5        0.0000 
     23 CZ         50.0700  -17.3500   71.9400 C.ar      4 PHE5        0.0000 
     24 CZ         49.6400  -18.7000   72.4200 C.ar      4 PHE5        0.0000 
     25 CZ         49.1900  -16.4600   73.6500 C.ar      4 PHE5        0.0000 
     26 CZ         53.2600  -18.1000   72.6500 C.ar      4 PHE5        0.0000 
     27 CZ         54.6100  -18.6500   72.3200 C.ar      4 PHE5        0.0000 
     28 CZ         52.3800  -17.2100   74.3600 C.ar      4 PHE5        0.0000 
     29 CZ         53.7300  -17.7600   74.0300 C.ar      4 PHE5        0.0000 
     30 CZ         54.6600  -19.6600   74.1800 C.ar      4 PHE5        0.0000 
     31 CZ         48.3900  -14.0000   79.8400 C.ar      4 PHE5        0.0000 
     32 CA         49.5900  -17.6900   70.5600 C.3       5 GLY6        0.0000 
     33 CA         49.6200  -15.1000   73.1700 C.3       5 GLY6        0.0000 
     34 CA         50.9700  -15.6500   72.8300 C.3       5 GLY6        0.0000 
     35 CA         50.5500  -17.0100   73.3200 C.3       5 GLY6        0.0000 
     36 CA         50.1200  -18.3600   73.8000 C.3       5 GLY6        0.0000 
     37 CA         52.3300  -16.2000   72.5000 C.3       5 GLY6        0.0000 
     38 CA         51.4700  -18.9100   73.4700 C.3       5 GLY6        0.0000 
     39 CA         51.0400  -20.2600   73.9500 C.3       5 GLY6        0.0000 
     40 CA         50.1000  -14.7600   74.5500 C.3       5 GLY6        0.0000 
     41 CA         49.6700  -16.1200   75.0300 C.3       5 GLY6        0.0000 
     42 CA         51.8800  -13.9600   73.7300 C.3       5 GLY6        0.0000 
     43 CA         51.4500  -15.3100   74.2100 C.3       5 GLY6        0.0000 
     44 CA         51.0200  -16.6600   74.7000 C.3       5 GLY6        0.0000 
     45 CA         52.8100  -15.8600   73.8800 C.3       5 GLY6        0.0000 
     46 CA         51.9500  -18.5700   74.8500 C.3       5 GLY6        0.0000 
     47 CA         49.2200  -13.8700   76.2600 C.3       5 GLY6        0.0000 
     48 CA         48.3600  -16.5800   77.2300 C.3       5 GLY6        0.0000 
     49 CA         50.1500  -15.7700   76.4100 C.3       5 GLY6        0.0000 
     50 CA         51.5000  -16.3200   76.0800 C.3       5 GLY6        0.0000 
     51 CA         53.2900  -15.5200   75.2600 C.3       5 GLY6        0.0000 
     52 CA         52.8600  -16.8700   75.7400 C.3       5 GLY6        0.0000 
     53 CA         48.8400  -16.2400   78.6100 C.3       5 GLY6        0.0000 
     54 CA         50.6200  -15.4300   77.7900 C.3       5 GLY6        0.0000 
     55 CA         50.1900  -16.7900   78.2800 C.3       5 GLY6        0.0000 
     56 CA         52.4100  -14.6300   76.9800 C.3       5 GLY6        0.0000 
     57 CA         51.5500  -17.3400   77.9400 C.3       5 GLY6        0.0000 
     58 CA         49.3200  -15.9000   79.9900 C.3       5 GLY6        0.0000 
     59 CA         48.8900  -17.2500   80.4700 C.3       5 GLY6        0.0000 
     60 CA         52.8900  -14.2900   78.3600 C.3       5 GLY6        0.0000 
     61 DU         50.9900  -19.2500   72.0900 H         6 CUB7        0.0000 
     62 DU         50.5700  -20.6000   72.5700 H         6 CUB7        0.0000 
     63 DU         52.3500  -19.8000   71.7500 H         6 CUB7        0.0000 
     64 DU         51.9000  -17.5500   72.9800 H         6 CUB7        0.0000 
     65 DU         52.8300  -19.4600   73.1300 H         6 CUB7        0.0000 
     66 DU         50.5700  -14.4200   75.9300 H         6 CUB7        0.0000 
     67 DU         51.9300  -14.9700   75.6000 H         6 CUB7        0.0000 
     68 DU         51.0500  -14.0800   77.3100 H         6 CUB7        0.0000 
     69 DU         51.9800  -15.9800   77.4600 H         6 CUB7        0.0000 
     70 DU         49.7500  -14.5400   79.5100 H         6 CUB7        0.0000 
@<TRIPOS>BOND
@<TRIPOS>SUBSTRUCTURE
     1 SER1        1 GROUP   
     2 ALA2        7 GROUP   
     3 ASP3       20 GROUP   
     4 PHE5       22 GROUP   
     5 GLY6       32 GROUP   
     6 CUB7       61 GROUP   
@<TRIPOS>SET

