#    Name: 6pk0_2_HIW
#    Modification time : Fri May 22 19:25:56 2020

@<TRIPOS>MOLECULE
6pk0_2_HIW
   21    21     1     0     0
SMALL
NO_CHARGES


@<TRIPOS>ATOM
      1 O31        33.1380   -0.5940   51.0050           1 HIW302      0.0000 
      2 C31        34.1540   -0.6590   50.2570           1 HIW302      0.0000 
      3 O32        34.1160   -1.1610   49.0950           1 HIW302      0.0000 
      4 C3         35.4770   -0.0980   50.7560           1 HIW302      0.0000 
      5 N4         36.7540   -0.3700   50.0380           1 HIW302      0.0000 
      6 C2         35.6800    0.3370   52.0570           1 HIW302      0.0000 
      7 C1         37.1410    1.0890   51.8010           1 HIW302      0.0000 
      8 C5         37.8830    0.2380   50.7710           1 HIW302      0.0000 
      9 C6         38.7720    1.0060   49.7540           1 HIW302      0.0000 
     10 C7         39.2320    0.0210   48.6740           1 HIW302      0.0000 
     11 O71        40.4150    0.0450   48.2380           1 HIW302      0.0000 
     12 O72        38.4520   -0.8400   48.1960           1 HIW302      0.0000 
     13 C61        40.0420    1.6290   50.3480           1 HIW302      0.0000 
     14 O62        39.8620    2.1060   51.6550           1 HIW302      0.0000 
     15 C62        40.4910    2.8080   49.4800           1 HIW302      0.0000 
     16 S21        35.8240   -1.0550   53.2510           1 HIW302      0.0000 
     17 C22        34.2900   -2.0080   53.4840           1 HIW302      0.0000 
     18 C23        33.1950   -1.1480   54.1070           1 HIW302      0.0000 
     19 N24        33.5940   -0.6960   55.4290           1 HIW302      0.0000 
     20 C25        32.8880   -1.1180   56.4890           1 HIW302      0.0000 
     21 N26        33.2020   -0.7550   57.6430           1 HIW302      0.0000 
@<TRIPOS>BOND
     1    1    2 du   
     2    2    3 du   
     3    2    4 du   
     4    4    5 du   
     5    4    6 du   
     6    5    8 du   
     7    6    7 du   
     8    6   16 du   
     9    7    8 du   
    10    8    9 du   
    11    9   10 du   
    12    9   13 du   
    13   10   11 du   
    14   10   12 du   
    15   13   14 du   
    16   13   15 du   
    17   16   17 du   
    18   17   18 du   
    19   18   19 du   
    20   19   20 du   
    21   20   21 du   
@<TRIPOS>SUBSTRUCTURE
     1 HIW302      1 GROUP   
@<TRIPOS>SET

