#    Name: 6pk0_4_HIW
#    Modification time : Fri May 22 19:26:04 2020

@<TRIPOS>MOLECULE
6pk0_4_HIW
   21    21     1     0     0
SMALL
NO_CHARGES


@<TRIPOS>ATOM
      1 O31        52.4310  -12.1680   74.6320           1 HIW301      0.0000 
      2 C31        51.3770  -12.4240   74.0020           1 HIW301      0.0000 
      3 O32        50.6650  -11.4910   73.5560           1 HIW301      0.0000 
      4 C3         50.9410  -13.8700   73.7770           1 HIW301      0.0000 
      5 N4         49.9450  -14.2320   72.7370           1 HIW301      0.0000 
      6 C2         51.4680  -14.9550   74.4730           1 HIW301      0.0000 
      7 C1         50.6920  -16.2310   73.7570           1 HIW301      0.0000 
      8 C5         50.0030  -15.6880   72.5140           1 HIW301      0.0000 
      9 C6         50.8430  -15.8830   71.2490           1 HIW301      0.0000 
     10 C7         50.3000  -14.8620   70.2670           1 HIW301      0.0000 
     11 O71        50.8790  -13.7520   70.1260           1 HIW301      0.0000 
     12 O72        49.2450  -15.1320   69.6290           1 HIW301      0.0000 
     13 C61        50.6550  -17.2680   70.6440           1 HIW301      0.0000 
     14 O62        49.3640  -17.7130   70.9440           1 HIW301      0.0000 
     15 C62        51.7040  -18.2420   71.1850           1 HIW301      0.0000 
     16 S21        51.0270  -14.8770   76.2510           1 HIW301      0.0000 
     17 C22        49.2700  -15.1870   76.5880           1 HIW301      0.0000 
     18 C23        48.8770  -14.3250   77.7930           1 HIW301      0.0000 
     19 N24        48.0330  -15.0120   78.7550           1 HIW301      0.0000 
     20 C25        48.4070  -14.9900   80.0460           1 HIW301      0.0000 
     21 N26        47.7430  -15.5650   80.9400           1 HIW301      0.0000 
@<TRIPOS>BOND
     1    1    2 du   
     2    2    3 du   
     3    2    4 du   
     4    4    5 du   
     5    4    6 du   
     6    5    8 du   
     7    6    7 du   
     8    6   16 du   
     9    7    8 du   
    10    8    9 du   
    11    9   10 du   
    12    9   13 du   
    13   10   11 du   
    14   10   12 du   
    15   13   14 du   
    16   13   15 du   
    17   16   17 du   
    18   17   18 du   
    19   18   19 du   
    20   19   20 du   
    21   20   21 du   
@<TRIPOS>SUBSTRUCTURE
     1 HIW301      1 GROUP   
@<TRIPOS>SET

