#    Name: 6pk0_3_HIW
#    Modification time : Fri May 22 19:26:00 2020

@<TRIPOS>MOLECULE
6pk0_3_HIW
   21    21     1     0     0
SMALL
NO_CHARGES


@<TRIPOS>ATOM
      1 O31        28.2550   16.4970   21.7750           1 HIW301      0.0000 
      2 C31        29.2290   16.7720   22.5310           1 HIW301      0.0000 
      3 O32        29.9080   15.8640   23.0720           1 HIW301      0.0000 
      4 C3         29.6170   18.2130   22.8260           1 HIW301      0.0000 
      5 N4         30.7460   18.5380   23.7480           1 HIW301      0.0000 
      6 C2         28.8470   19.3080   22.4420           1 HIW301      0.0000 
      7 C1         29.6720   20.5560   23.1670           1 HIW301      0.0000 
      8 C5         30.9710   19.9920   23.7480           1 HIW301      0.0000 
      9 C6         32.2300   20.2530   22.8990           1 HIW301      0.0000 
     10 C7         33.3400   19.3410   23.4180           1 HIW301      0.0000 
     11 O71        34.1230   19.7530   24.3190           1 HIW301      0.0000 
     12 O72        33.4880   18.1800   22.9660           1 HIW301      0.0000 
     13 C61        32.7640   21.6800   23.0280           1 HIW301      0.0000 
     14 O62        32.6320   22.0950   24.3550           1 HIW301      0.0000 
     15 C62        32.0550   22.6720   22.0960           1 HIW301      0.0000 
     16 S21        27.1140   19.1800   23.0470           1 HIW301      0.0000 
     17 C22        26.9580   18.9150   24.8380           1 HIW301      0.0000 
     18 C23        25.4850   18.7480   25.2440           1 HIW301      0.0000 
     19 N24        25.0020   17.4100   24.9300           1 HIW301      0.0000 
     20 C25        23.7910   17.0110   25.3610           1 HIW301      0.0000 
     21 N26        23.3470   15.8640   25.1070           1 HIW301      0.0000 
@<TRIPOS>BOND
     1    1    2 du   
     2    2    3 du   
     3    2    4 du   
     4    4    5 du   
     5    4    6 du   
     6    5    8 du   
     7    6    7 du   
     8    6   16 du   
     9    7    8 du   
    10    8    9 du   
    11    9   10 du   
    12    9   13 du   
    13   10   11 du   
    14   10   12 du   
    15   13   14 du   
    16   13   15 du   
    17   16   17 du   
    18   17   18 du   
    19   18   19 du   
    20   19   20 du   
    21   20   21 du   
@<TRIPOS>SUBSTRUCTURE
     1 HIW301      1 GROUP   
@<TRIPOS>SET

