#    Name: 6a8a_2_ATP
#    Modification time : Fri May 22 19:27:40 2020

@<TRIPOS>MOLECULE
6a8a_2_ATP
   31    33     1     0     1
SMALL
NO_CHARGES


@<TRIPOS>ATOM
      1 PG          6.8620  -39.0170   20.3990 P.3       1 ATP401      0.0000 
      2 O1G         8.0470  -39.7290   19.7440 O.co2     1 ATP401      0.0000 
      3 O2G         6.6470  -37.5850   19.9410 O.co2     1 ATP401      0.0000 
      4 O3G         5.6200  -39.8650   20.3220 O.co2     1 ATP401      0.0000 
      5 PB          6.7100  -39.4670   23.3710 P.3       1 ATP401      0.0000 
      6 O1B         6.0850  -38.4430   24.3350 O.co2     1 ATP401      0.0000 
      7 O2B         7.8190  -40.3800   23.9210 O.co2     1 ATP401      0.0000 
      8 O3B         7.2420  -38.7960   21.9920 O.3       1 ATP401      0.0000 
      9 PA          5.2800  -41.7290   22.1250 P.3       1 ATP401      0.0000 
     10 O1A         6.2510  -42.1490   21.0740 O.co2     1 ATP401      0.0000 
     11 O2A         5.0140  -42.5260   23.4090 O.co2     1 ATP401      0.0000 
     12 O3A         5.4620  -40.2980   22.7560 O.3       1 ATP401      0.0000 
     13 O5'         3.9020  -41.6580   21.2840 O.3       1 ATP401      0.0000 
     14 C5'         2.8240  -40.8600   21.7560 C.3       1 ATP401      0.0000 
     15 C4'         1.5550  -41.3620   21.1340 C.3       1 ATP401      0.0000 
     16 O4'         1.5940  -41.1930   19.7300 O.3       1 ATP401      0.0000 
     17 C3'         1.3930  -42.8840   21.3090 C.3       1 ATP401      0.0000 
     18 O3'         0.8560  -43.1220   22.6160 O.3       1 ATP401      0.0000 
     19 C2'         0.4390  -43.1510   20.1980 C.3       1 ATP401      0.0000 
     20 O2'        -0.8550  -42.5800   20.5170 O.3       1 ATP401      0.0000 
     21 C1'         1.0320  -42.3180   19.0890 C.3       1 ATP401      0.0000 
     22 N9          2.0950  -42.9800   18.3170 N.pl3     1 ATP401      0.0000 
     23 C8          3.4180  -42.7810   18.3410 C.2       1 ATP401      0.0000 
     24 N7          4.0230  -43.5430   17.4370 N.2       1 ATP401      0.0000 
     25 C5          3.0990  -44.2630   16.8020 C.ar      1 ATP401      0.0000 
     26 C6          3.0510  -45.2660   15.7460 C.ar      1 ATP401      0.0000 
     27 N6          4.1710  -45.6560   15.1520 N.pl3     1 ATP401      0.0000 
     28 N1          1.8650  -45.7810   15.3770 N.ar      1 ATP401      0.0000 
     29 C2          0.7550  -45.3940   15.9650 C.ar      1 ATP401      0.0000 
     30 N3          0.7020  -44.4740   16.9520 N.ar      1 ATP401      0.0000 
     31 C4          1.8300  -43.8790   17.3880 C.ar      1 ATP401      0.0000 
@<TRIPOS>BOND
     1    1    2 ar   
     2    1    3 ar   
     3    1    4 ar   
     4    1    8 1    
     5    5    6 ar   
     6    5    7 ar   
     7    5    8 1    
     8    5   12 1    
     9    9   10 ar   
    10    9   11 ar   
    11    9   12 1    
    12    9   13 1    
    13   13   14 1    
    14   14   15 1    
    15   15   16 1    
    16   15   17 1    
    17   16   21 1    
    18   17   18 1    
    19   17   19 1    
    20   19   20 1    
    21   19   21 1    
    22   21   22 1    
    23   22   23 1    
    24   22   31 1    
    25   23   24 2    
    26   24   25 1    
    27   25   26 ar   
    28   25   31 ar   
    29   26   27 1    
    30   26   28 ar   
    31   28   29 ar   
    32   29   30 ar   
    33   30   31 ar   
@<TRIPOS>SUBSTRUCTURE
     1 ATP401      1 GROUP   
@<TRIPOS>SET
ATOM$ORANGE STATIC     ATOMS   COLORGROUP SYSTEM 
20 14 14 15 15 17 17 19 19 21 21 23 23 25 25 26 26 29 \
29 31 31 

