#    Name: 6qkg_4_FMN_CAVITY_N1_6
#    Modification time : Fri May 22 19:27:24 2020

@<TRIPOS>MOLECULE
6qkg_4_FMN_CAVITY_N1_6
   87     0     6     0     0
SMALL
NO_CHARGES


@<TRIPOS>ATOM
      1 OG        -13.4100  -38.8900  -41.8600 O.3       1 SER1        0.0000 
      2 OG        -11.4000  -44.1800  -38.2700 O.3       1 SER1        0.0000 
      3 OG        -12.8000  -43.7000  -38.0300 O.3       1 SER1        0.0000 
      4 OG        -13.1100  -39.0500  -39.7700 O.3       1 SER1        0.0000 
      5 OG        -14.5100  -38.5700  -39.5300 O.3       1 SER1        0.0000 
      6 OG        -10.7000  -42.1800  -38.2100 O.3       1 SER1        0.0000 
      7 OG        -12.1000  -41.7000  -37.9700 O.3       1 SER1        0.0000 
      8 OG        -10.9000  -43.2600  -37.1900 O.3       1 SER1        0.0000 
      9 OG        -11.6100  -40.7800  -36.8900 O.3       1 SER1        0.0000 
     10 N         -13.7000  -43.2100  -44.3100 N.am      2 ALA2        0.0000 
     11 N         -13.9000  -44.2900  -43.2900 N.am      2 ALA2        0.0000 
     12 O         -14.0900  -45.3700  -42.2700 O.2       2 ALA2        0.0000 
     13 N         -12.8900  -46.9400  -41.5000 N.am      2 ALA2        0.0000 
     14 N         -13.2000  -42.2900  -43.2300 N.am      2 ALA2        0.0000 
     15 N         -12.0000  -43.8500  -42.4500 N.am      2 ALA2        0.0000 
     16 N         -10.8000  -45.4200  -41.6800 N.am      2 ALA2        0.0000 
     17 N         -12.2000  -44.9400  -41.4400 N.am      2 ALA2        0.0000 
     18 N         -12.3900  -46.0200  -40.4200 N.am      2 ALA2        0.0000 
     19 N         -11.3000  -41.8500  -42.4000 N.am      2 ALA2        0.0000 
     20 N         -12.7000  -41.3700  -42.1600 N.am      2 ALA2        0.0000 
     21 N         -11.5000  -42.9300  -41.3800 N.am      2 ALA2        0.0000 
     22 O         -11.7000  -44.0200  -40.3600 O.2       2 ALA2        0.0000 
     23 N         -11.9000  -45.1000  -39.3400 N.am      2 ALA2        0.0000 
     24 N         -10.6000  -39.8500  -42.3400 N.am      2 ALA2        0.0000 
     25 N         -10.8000  -40.9300  -41.3200 N.am      2 ALA2        0.0000 
     26 N         -11.0000  -42.0100  -40.3000 N.am      2 ALA2        0.0000 
     27 O          -9.8000  -43.5800  -39.5200 O.2       2 ALA2        0.0000 
     28 O         -10.0000  -44.6600  -38.5100 O.2       2 ALA2        0.0000 
     29 N         -10.5000  -41.0900  -39.2300 N.am      2 ALA2        0.0000 
     30 N          -9.3000  -42.6600  -38.4500 N.am      2 ALA2        0.0000 
     31 N          -8.6000  -40.6600  -38.3900 N.am      2 ALA2        0.0000 
     32 OD1       -14.4000  -40.7200  -44.0100 O.co2     3 ASP3        0.0000 
     33 OD1       -11.5100  -38.4500  -41.0200 O.co2     3 ASP3        0.0000 
     34 OD1       -10.3100  -40.0100  -40.2400 O.co2     3 ASP3        0.0000 
     35 OD1       -11.7100  -39.5300  -40.0100 O.co2     3 ASP3        0.0000 
     36 CZ        -15.3000  -43.8100  -43.0500 C.ar      4 PHE5        0.0000 
     37 CZ        -14.6000  -41.8100  -43.0000 C.ar      4 PHE5        0.0000 
     38 CZ        -13.4000  -43.3700  -42.2200 C.ar      4 PHE5        0.0000 
     39 CZ        -13.6000  -44.4600  -41.2000 C.ar      4 PHE5        0.0000 
     40 CZ        -13.8000  -45.5400  -40.1800 C.ar      4 PHE5        0.0000 
     41 CZ        -13.9900  -46.6200  -39.1600 C.ar      4 PHE5        0.0000 
     42 CZ        -13.9000  -39.8000  -42.9400 C.ar      4 PHE5        0.0000 
     43 CZ        -15.3100  -39.3200  -42.7000 C.ar      4 PHE5        0.0000 
     44 CZ        -14.1000  -40.8900  -41.9200 C.ar      4 PHE5        0.0000 
     45 CZ        -12.9000  -42.4500  -41.1400 C.ar      4 PHE5        0.0000 
     46 CZ        -13.1000  -43.5400  -40.1200 C.ar      4 PHE5        0.0000 
     47 CZ        -13.3000  -44.6200  -39.1100 C.ar      4 PHE5        0.0000 
     48 CZ        -14.7000  -44.1400  -38.8700 C.ar      4 PHE5        0.0000 
     49 CZ        -13.5000  -45.7000  -38.0900 C.ar      4 PHE5        0.0000 
     50 CZ        -13.2100  -37.8000  -42.8800 C.ar      4 PHE5        0.0000 
     51 CZ        -14.8100  -38.4100  -41.6200 C.ar      4 PHE5        0.0000 
     52 CZ        -13.6100  -39.9700  -40.8400 C.ar      4 PHE5        0.0000 
     53 CZ        -15.0100  -39.4900  -40.6100 C.ar      4 PHE5        0.0000 
     54 CZ        -13.8000  -41.0500  -39.8300 C.ar      4 PHE5        0.0000 
     55 CZ        -14.0000  -42.1400  -38.8100 C.ar      4 PHE5        0.0000 
     56 CZ        -14.2000  -43.2200  -37.7900 C.ar      4 PHE5        0.0000 
     57 CZ        -11.6000  -45.2700  -37.2500 C.ar      4 PHE5        0.0000 
     58 CZ        -14.7100  -39.6500  -38.5100 C.ar      4 PHE5        0.0000 
     59 CZ        -13.5000  -41.2200  -37.7300 C.ar      4 PHE5        0.0000 
     60 CZ        -10.2000  -41.2600  -37.1300 C.ar      4 PHE5        0.0000 
     61 CA        -14.3900  -45.2100  -44.3700 C.3       5 GLY6        0.0000 
     62 CA        -13.1900  -46.7700  -43.5900 C.3       5 GLY6        0.0000 
     63 CA        -14.5900  -46.2900  -43.3500 C.3       5 GLY6        0.0000 
     64 CA        -12.5000  -44.7700  -43.5300 C.3       5 GLY6        0.0000 
     65 CA        -12.6900  -45.8500  -42.5100 C.3       5 GLY6        0.0000 
     66 CA        -14.2900  -46.4600  -41.2600 C.3       5 GLY6        0.0000 
     67 CA        -13.5100  -37.6400  -44.9700 C.3       5 GLY6        0.0000 
     68 CA        -13.7100  -38.7200  -43.9500 C.3       5 GLY6        0.0000 
     69 CA        -15.1100  -38.2400  -43.7200 C.3       5 GLY6        0.0000 
     70 CA        -12.5000  -40.2800  -43.1800 C.3       5 GLY6        0.0000 
     71 CA        -12.0900  -46.1800  -38.3300 C.3       5 GLY6        0.0000 
     72 CA        -11.8100  -38.2800  -43.1200 C.3       5 GLY6        0.0000 
     73 CA        -12.0100  -39.3700  -42.1000 C.3       5 GLY6        0.0000 
     74 CA         -9.5000  -43.7400  -37.4300 C.3       5 GLY6        0.0000 
     75 CA        -11.2100  -38.6100  -38.9300 C.3       5 GLY6        0.0000 
     76 CA        -10.0100  -40.1800  -38.1500 C.3       5 GLY6        0.0000 
     77 CA        -11.4100  -39.7000  -37.9100 C.3       5 GLY6        0.0000 
     78 CA        -12.8100  -39.2200  -37.6700 C.3       5 GLY6        0.0000 
     79 CA         -8.8000  -41.7400  -37.3700 C.3       5 GLY6        0.0000 
     80 CA        -13.0100  -40.3000  -36.6600 C.3       5 GLY6        0.0000 
     81 CA         -9.5100  -39.2600  -37.0700 C.3       5 GLY6        0.0000 
     82 DU        -12.2000  -40.4500  -41.0800 H         6 CUB7        0.0000 
     83 DU        -12.4000  -41.5300  -40.0600 H         6 CUB7        0.0000 
     84 DU        -11.2000  -43.1000  -39.2900 H         6 CUB7        0.0000 
     85 DU        -12.6000  -42.6200  -39.0500 H         6 CUB7        0.0000 
     86 DU        -11.9000  -40.6100  -38.9900 H         6 CUB7        0.0000 
     87 DU        -13.3100  -40.1300  -38.7500 H         6 CUB7        0.0000 
@<TRIPOS>BOND
@<TRIPOS>SUBSTRUCTURE
     1 SER1        1 GROUP   
     2 ALA2       10 GROUP   
     3 ASP3       32 GROUP   
     4 PHE5       36 GROUP   
     5 GLY6       61 GROUP   
     6 CUB7       82 GROUP   
@<TRIPOS>SET

