#    Name: 6qkg_2_FMN_CAVITY_N1_4
#    Modification time : Fri May 22 19:27:02 2020

@<TRIPOS>MOLECULE
6qkg_2_FMN_CAVITY_N1_4
   73     0     6     0     0
SMALL
NO_CHARGES


@<TRIPOS>ATOM
      1 OG        -28.6700  -10.0600   -0.8600 O.3       1 SER1        0.0000 
      2 OG        -26.7800   -9.6200   -0.0200 O.3       1 SER1        0.0000 
      3 OG        -28.1800   -9.1400    0.2100 O.3       1 SER1        0.0000 
      4 OG        -26.4800   -9.7900    2.0700 O.3       1 SER1        0.0000 
      5 OG        -27.8800   -9.3100    2.3100 O.3       1 SER1        0.0000 
      6 OG        -27.1800   -7.3000    2.3700 O.3       1 SER1        0.0000 
      7 OG        -28.5800   -6.8200    2.6000 O.3       1 SER1        0.0000 
      8 OG        -29.9800   -6.3400    2.8400 O.3       1 SER1        0.0000 
      9 OG        -27.8900   -4.8200    2.6600 O.3       1 SER1        0.0000 
     10 OG        -29.2900   -4.3400    2.9000 O.3       1 SER1        0.0000 
     11 O         -26.1700  -10.8500   -3.4300 O.2       2 ALA2        0.0000 
     12 N         -29.8800   -8.5000   -1.6400 N.am      2 ALA2        0.0000 
     13 N         -27.7800   -6.9700   -1.8200 N.am      2 ALA2        0.0000 
     14 N         -29.1800   -6.4900   -1.5800 N.am      2 ALA2        0.0000 
     15 N         -29.3800   -7.5800   -0.5700 N.am      2 ALA2        0.0000 
     16 N         -32.3800   -7.7000    0.9300 N.am      2 ALA2        0.0000 
     17 N         -28.4800   -4.4900   -1.5200 N.am      2 ALA2        0.0000 
     18 N         -28.6800   -5.5700   -0.5100 N.am      2 ALA2        0.0000 
     19 N         -30.0800   -5.0900   -0.2700 N.am      2 ALA2        0.0000 
     20 N         -30.2800   -6.1800    0.7500 N.am      2 ALA2        0.0000 
     21 N         -31.6800   -5.7000    0.9900 N.am      2 ALA2        0.0000 
     22 N         -30.4800   -7.2600    1.7700 N.am      2 ALA2        0.0000 
     23 N         -31.8800   -6.7800    2.0100 N.am      2 ALA2        0.0000 
     24 O         -26.3900   -2.9700   -1.7000 O.2       2 ALA2        0.0000 
     25 N         -27.7900   -2.4900   -1.4700 N.am      2 ALA2        0.0000 
     26 N         -29.3900   -3.0900   -0.2100 N.am      2 ALA2        0.0000 
     27 OD1       -25.9700   -9.7700   -4.4500 O.co2     3 ASP3        0.0000 
     28 OD1       -29.1700  -10.9800   -1.9400 O.co2     3 ASP3        0.0000 
     29 OD1       -25.4800   -8.8500   -3.3700 O.co2     3 ASP3        0.0000 
     30 OD1       -29.5800   -8.6600    0.4500 O.co2     3 ASP3        0.0000 
     31 OD1       -30.9800   -8.1800    0.6900 O.co2     3 ASP3        0.0000 
     32 OD1       -29.7800   -9.7400    1.4700 O.co2     3 ASP3        0.0000 
     33 CZ        -27.7700  -11.4600   -2.1800 C.ar      4 PHE5        0.0000 
     34 CZ        -27.2700  -10.5400   -1.1000 C.ar      4 PHE5        0.0000 
     35 CZ        -26.3800   -7.4500   -2.0600 C.ar      4 PHE5        0.0000 
     36 CZ        -26.5800   -8.5400   -1.0400 C.ar      4 PHE5        0.0000 
     37 CZ        -25.3700  -10.1000   -0.2600 C.ar      4 PHE5        0.0000 
     38 CZ        -27.0800   -4.9700   -1.7600 C.ar      4 PHE5        0.0000 
     39 CZ        -27.2800   -6.0500   -0.7500 C.ar      4 PHE5        0.0000 
     40 CZ        -27.4800   -7.1400    0.2700 C.ar      4 PHE5        0.0000 
     41 CZ        -24.8800   -9.1800    0.8100 C.ar      4 PHE5        0.0000 
     42 CZ        -26.2800   -8.7000    1.0500 C.ar      4 PHE5        0.0000 
     43 CZ        -26.5900   -4.0500   -0.6900 C.ar      4 PHE5        0.0000 
     44 CZ        -28.1900   -4.6500    0.5700 C.ar      4 PHE5        0.0000 
     45 CZ        -26.9800   -6.2200    1.3500 C.ar      4 PHE5        0.0000 
     46 CZ        -25.7800   -7.7800    2.1300 C.ar      4 PHE5        0.0000 
     47 CZ        -27.4900   -2.6500    0.6300 C.ar      4 PHE5        0.0000 
     48 CZ        -27.6900   -3.7400    1.6500 C.ar      4 PHE5        0.0000 
     49 CZ        -26.4800   -5.3000    2.4200 C.ar      4 PHE5        0.0000 
     50 CZ        -27.1900   -2.8200    2.7200 C.ar      4 PHE5        0.0000 
     51 CA        -28.0700  -11.2900   -4.2700 C.3       5 GLY6        0.0000 
     52 CA        -27.5700  -10.3700   -3.1900 C.3       5 GLY6        0.0000 
     53 CA        -28.9700   -9.8900   -2.9600 C.3       5 GLY6        0.0000 
     54 CA        -26.8800   -8.3700   -3.1400 C.3       5 GLY6        0.0000 
     55 CA        -25.6700   -9.9400   -2.3600 C.3       5 GLY6        0.0000 
     56 CA        -27.0800   -9.4600   -2.1200 C.3       5 GLY6        0.0000 
     57 CA        -28.4800   -8.9800   -1.8800 C.3       5 GLY6        0.0000 
     58 CA        -28.2900   -3.4100   -2.5400 C.3       5 GLY6        0.0000 
     59 CA        -29.8900   -4.0100   -1.2900 C.3       5 GLY6        0.0000 
     60 CA        -29.2800   -8.8300    2.5500 C.3       5 GLY6        0.0000 
     61 CA        -30.6800   -8.3500    2.7800 C.3       5 GLY6        0.0000 
     62 CA        -29.5900   -4.1700    0.8100 C.3       5 GLY6        0.0000 
     63 CA        -29.7800   -5.2600    1.8300 C.3       5 GLY6        0.0000 
     64 CA        -31.1900   -4.7800    2.0600 C.3       5 GLY6        0.0000 
     65 CA        -31.3800   -5.8600    3.0800 C.3       5 GLY6        0.0000 
     66 CA        -28.8900   -2.1700    0.8700 C.3       5 GLY6        0.0000 
     67 CA        -29.0900   -3.2600    1.8800 C.3       5 GLY6        0.0000 
     68 DU        -27.9800   -8.0600   -0.8000 H         6 CUB7        0.0000 
     69 DU        -28.8800   -6.6600    0.5100 H         6 CUB7        0.0000 
     70 DU        -27.6800   -8.2200    1.2900 H         6 CUB7        0.0000 
     71 DU        -29.0800   -7.7400    1.5300 H         6 CUB7        0.0000 
     72 DU        -27.9900   -3.5700   -0.4500 H         6 CUB7        0.0000 
     73 DU        -28.3800   -5.7400    1.5900 H         6 CUB7        0.0000 
@<TRIPOS>BOND
@<TRIPOS>SUBSTRUCTURE
     1 SER1        1 GROUP   
     2 ALA2       11 GROUP   
     3 ASP3       27 GROUP   
     4 PHE5       33 GROUP   
     5 GLY6       51 GROUP   
     6 CUB7       68 GROUP   
@<TRIPOS>SET

