#    Name: 6qkg_4_FMN
#    Modification time : Fri May 22 19:27:22 2020

@<TRIPOS>MOLECULE
6qkg_4_FMN
   31    33     1     0     1
SMALL
NO_CHARGES


@<TRIPOS>ATOM
      1 N1         -9.7010  -40.2020  -39.1060 N.2       1 FMN803      0.0000 
      2 C2         -8.5070  -40.1870  -38.4360 C.2       1 FMN803      0.0000 
      3 O2         -8.0000  -39.1230  -38.0500 O.2       1 FMN803      0.0000 
      4 N3         -7.8200  -41.3830  -38.2190 N.am      1 FMN803      0.0000 
      5 C4         -8.2250  -42.6380  -38.6360 C.2       1 FMN803      0.0000 
      6 O4         -7.4510  -43.5910  -38.5620 O.2       1 FMN803      0.0000 
      7 C4A        -9.5260  -42.6500  -39.2910 C.2       1 FMN803      0.0000 
      8 N5        -10.0150  -43.8040  -39.6750 N.2       1 FMN803      0.0000 
      9 C5A       -11.1890  -43.7990  -40.4110 C.ar      1 FMN803      0.0000 
     10 C6        -11.6720  -45.0150  -40.8940 C.ar      1 FMN803      0.0000 
     11 C7        -12.7380  -45.0650  -41.7880 C.ar      1 FMN803      0.0000 
     12 C7M       -13.1910  -46.3990  -42.3280 C.3       1 FMN803      0.0000 
     13 C8        -13.3560  -43.8640  -42.1950 C.ar      1 FMN803      0.0000 
     14 C8M       -14.4100  -43.8540  -43.2800 C.3       1 FMN803      0.0000 
     15 C9        -12.9220  -42.6560  -41.6550 C.ar      1 FMN803      0.0000 
     16 C9A       -11.8440  -42.6040  -40.7710 C.ar      1 FMN803      0.0000 
     17 N10       -11.3100  -41.3730  -40.2840 N.pl3     1 FMN803      0.0000 
     18 C10       -10.1750  -41.3630  -39.5250 C.2       1 FMN803      0.0000 
     19 C1'       -11.8810  -40.0680  -40.6880 C.3       1 FMN803      0.0000 
     20 C2'       -11.4580  -39.7400  -42.1210 C.3       1 FMN803      0.0000 
     21 O2'       -10.0420  -39.5540  -42.2120 O.3       1 FMN803      0.0000 
     22 C3'       -12.2140  -38.5560  -42.7300 C.3       1 FMN803      0.0000 
     23 O3'       -11.7510  -37.3550  -42.1200 O.3       1 FMN803      0.0000 
     24 C4'       -13.7460  -38.6220  -42.7110 C.3       1 FMN803      0.0000 
     25 O4'       -14.2260  -39.8670  -43.2170 O.3       1 FMN803      0.0000 
     26 C5'       -14.4270  -37.4890  -43.4440 C.3       1 FMN803      0.0000 
     27 O5'       -13.8870  -37.3110  -44.7620 O.3       1 FMN803      0.0000 
     28 P         -14.5040  -37.9320  -46.1050 P.3       1 FMN803      0.0000 
     29 O1P       -15.8230  -37.4080  -46.3370 O.co2     1 FMN803      0.0000 
     30 O2P       -14.5170  -39.4480  -45.8710 O.co2     1 FMN803      0.0000 
     31 O3P       -13.5200  -37.6360  -47.2370 O.co2     1 FMN803      0.0000 
@<TRIPOS>BOND
     1    1    2 1    
     2    1   18 2    
     3    2    3 2    
     4    2    4 am   
     5    4    5 am   
     6    5    6 2    
     7    5    7 1    
     8    7    8 2    
     9    7   18 1    
    10    8    9 1    
    11    9   10 ar   
    12    9   16 ar   
    13   10   11 ar   
    14   11   12 1    
    15   11   13 ar   
    16   13   14 1    
    17   13   15 ar   
    18   15   16 ar   
    19   16   17 1    
    20   17   18 1    
    21   17   19 1    
    22   19   20 1    
    23   20   21 1    
    24   20   22 1    
    25   22   23 1    
    26   22   24 1    
    27   24   25 1    
    28   24   26 1    
    29   26   27 1    
    30   27   28 1    
    31   28   29 ar   
    32   28   30 ar   
    33   28   31 ar   
@<TRIPOS>SUBSTRUCTURE
     1 FMN803      1 GROUP   
@<TRIPOS>SET
ATOM$ORANGE STATIC     ATOMS   COLORGROUP SYSTEM 
34 2 2 5 5 7 7 9 9 10 10 11 11 12 12 13 13 14 \
14 15 15 16 16 18 18 19 19 20 20 22 22 24 24 26 26 

