#    Name: 6qkg_3_FAD
#    Modification time : Fri May 22 19:27:10 2020

@<TRIPOS>MOLECULE
6qkg_3_FAD
   53    58     1     0     1
SMALL
NO_CHARGES


@<TRIPOS>ATOM
      1 PA        -30.4950  -54.7120  -61.4030 P.3       1 FAD802      0.0000 
      2 O1A       -30.1050  -53.4370  -60.7600 O.co2     1 FAD802      0.0000 
      3 O2A       -31.9490  -55.0480  -61.0900 O.co2     1 FAD802      0.0000 
      4 O5B       -30.2920  -54.6320  -62.9970 O.3       1 FAD802      0.0000 
      5 C5B       -30.6400  -55.7430  -63.8450 C.3       1 FAD802      0.0000 
      6 C4B       -30.8880  -55.1860  -65.2220 C.3       1 FAD802      0.0000 
      7 O4B       -31.2150  -56.2640  -66.1250 O.3       1 FAD802      0.0000 
      8 C3B       -32.0100  -54.1450  -65.3500 C.3       1 FAD802      0.0000 
      9 O3B       -31.5130  -52.9750  -66.0000 O.3       1 FAD802      0.0000 
     10 C2B       -33.0870  -54.8850  -66.1600 C.3       1 FAD802      0.0000 
     11 O2B       -33.8670  -54.0380  -66.9980 O.3       1 FAD802      0.0000 
     12 C1B       -32.2190  -55.8110  -67.0040 C.3       1 FAD802      0.0000 
     13 N9A       -32.8940  -56.9770  -67.5580 N.pl3     1 FAD802      0.0000 
     14 C8A       -33.6990  -57.8680  -66.8940 C.2       1 FAD802      0.0000 
     15 N7A       -34.0460  -58.9110  -67.6130 N.2       1 FAD802      0.0000 
     16 C5A       -33.4350  -58.6840  -68.8380 C.ar      1 FAD802      0.0000 
     17 C6A       -33.4060  -59.4260  -70.0400 C.ar      1 FAD802      0.0000 
     18 N6A       -33.9820  -60.6250  -70.1870 N.pl3     1 FAD802      0.0000 
     19 N1A       -32.7280  -58.8980  -71.0890 N.ar      1 FAD802      0.0000 
     20 C2A       -32.0970  -57.7290  -70.9290 C.ar      1 FAD802      0.0000 
     21 N3A       -32.0320  -56.9560  -69.8400 N.ar      1 FAD802      0.0000 
     22 C4A       -32.7320  -57.4900  -68.8220 C.ar      1 FAD802      0.0000 
     23 N1        -29.2350  -51.4120  -52.3450 N.2       1 FAD802      0.0000 
     24 C2        -28.3590  -50.9900  -51.3810 C.2       1 FAD802      0.0000 
     25 O2        -27.4110  -51.6890  -51.0210 O.2       1 FAD802      0.0000 
     26 N3        -28.5580  -49.7800  -50.7550 N.am      1 FAD802      0.0000 
     27 C4        -29.6140  -48.9160  -50.9810 C.2       1 FAD802      0.0000 
     28 O4        -29.7030  -47.8670  -50.3350 O.2       1 FAD802      0.0000 
     29 C4X       -30.5530  -49.3850  -52.0010 C.2       1 FAD802      0.0000 
     30 N5        -31.5680  -48.6200  -52.3040 N.2       1 FAD802      0.0000 
     31 C5X       -32.4190  -49.0380  -53.3110 C.ar      1 FAD802      0.0000 
     32 C6        -33.4980  -48.2250  -53.6540 C.ar      1 FAD802      0.0000 
     33 C7        -34.3850  -48.5810  -54.6640 C.ar      1 FAD802      0.0000 
     34 C7M       -35.5430  -47.6660  -54.9730 C.3       1 FAD802      0.0000 
     35 C8        -34.1870  -49.7940  -55.3630 C.ar      1 FAD802      0.0000 
     36 C8M       -35.1040  -50.2200  -56.4850 C.3       1 FAD802      0.0000 
     37 C9        -33.1130  -50.6100  -55.0140 C.ar      1 FAD802      0.0000 
     38 C9A       -32.2290  -50.2500  -53.9950 C.ar      1 FAD802      0.0000 
     39 N10       -31.1380  -51.0580  -53.6140 N.pl3     1 FAD802      0.0000 
     40 C10       -30.2760  -50.6510  -52.6330 C.2       1 FAD802      0.0000 
     41 C1'       -30.9100  -52.3470  -54.2900 C.3       1 FAD802      0.0000 
     42 C2'       -29.8790  -52.2660  -55.4130 C.3       1 FAD802      0.0000 
     43 O2'       -30.2120  -51.2070  -56.3180 O.3       1 FAD802      0.0000 
     44 C3'       -29.8110  -53.6010  -56.1550 C.3       1 FAD802      0.0000 
     45 O3'       -29.4710  -54.6130  -55.2070 O.3       1 FAD802      0.0000 
     46 C4'       -28.8790  -53.7130  -57.3650 C.3       1 FAD802      0.0000 
     47 O4'       -29.2370  -52.7300  -58.3420 O.3       1 FAD802      0.0000 
     48 C5'       -28.8850  -55.0960  -57.9750 C.3       1 FAD802      0.0000 
     49 O5'       -27.9430  -55.0560  -59.0640 O.3       1 FAD802      0.0000 
     50 P         -28.1060  -56.0560  -60.3020 P.3       1 FAD802      0.0000 
     51 O1P       -27.0620  -55.6670  -61.2620 O.co2     1 FAD802      0.0000 
     52 O2P       -27.9720  -57.4840  -59.8000 O.co2     1 FAD802      0.0000 
     53 O3P       -29.5710  -55.9140  -60.9150 O.3       1 FAD802      0.0000 
@<TRIPOS>BOND
     1    1    2 ar   
     2    1    3 ar   
     3    1    4 1    
     4    1   53 1    
     5    4    5 1    
     6    5    6 1    
     7    6    7 1    
     8    6    8 1    
     9    7   12 1    
    10    8    9 1    
    11    8   10 1    
    12   10   11 1    
    13   10   12 1    
    14   12   13 1    
    15   13   14 1    
    16   13   22 1    
    17   14   15 2    
    18   15   16 1    
    19   16   17 ar   
    20   16   22 ar   
    21   17   18 1    
    22   17   19 ar   
    23   19   20 ar   
    24   20   21 ar   
    25   21   22 ar   
    26   23   24 1    
    27   23   40 2    
    28   24   25 2    
    29   24   26 am   
    30   26   27 am   
    31   27   28 2    
    32   27   29 1    
    33   29   30 2    
    34   29   40 1    
    35   30   31 1    
    36   31   32 ar   
    37   31   38 ar   
    38   32   33 ar   
    39   33   34 1    
    40   33   35 ar   
    41   35   36 1    
    42   35   37 ar   
    43   37   38 ar   
    44   38   39 1    
    45   39   40 1    
    46   39   41 1    
    47   41   42 1    
    48   42   43 1    
    49   42   44 1    
    50   44   45 1    
    51   44   46 1    
    52   46   47 1    
    53   46   48 1    
    54   48   49 1    
    55   49   50 1    
    56   50   51 ar   
    57   50   52 ar   
    58   50   53 1    
@<TRIPOS>SUBSTRUCTURE
     1 FAD802      1 GROUP   
@<TRIPOS>SET
ATOM$ORANGE STATIC     ATOMS   COLORGROUP SYSTEM 
54 5 5 6 6 8 8 10 10 12 12 14 14 16 16 17 17 20 \
20 22 22 24 24 27 27 29 29 31 31 32 32 33 33 34 34 35 \
35 36 36 37 37 38 38 40 40 41 41 42 42 44 44 46 46 48 \
48 

