#    Name: 6qkg_2_FMN
#    Modification time : Fri May 22 19:27:00 2020

@<TRIPOS>MOLECULE
6qkg_2_FMN
   31    33     1     0     1
SMALL
NO_CHARGES


@<TRIPOS>ATOM
      1 N1        -31.1990   -8.1230    1.5490 N.2       1 FMN803      0.0000 
      2 C2        -32.4060   -8.1390    2.1850 C.2       1 FMN803      0.0000 
      3 O2        -32.9010   -9.2000    2.6090 O.2       1 FMN803      0.0000 
      4 N3        -33.1200   -6.9600    2.3310 N.am      1 FMN803      0.0000 
      5 C4        -32.7140   -5.7120    1.8950 C.2       1 FMN803      0.0000 
      6 O4        -33.4950   -4.7600    1.9330 O.2       1 FMN803      0.0000 
      7 C4A       -31.3950   -5.7030    1.2670 C.2       1 FMN803      0.0000 
      8 N5        -30.9160   -4.5570    0.8510 N.2       1 FMN803      0.0000 
      9 C5A       -29.7120   -4.5640    0.1600 C.ar      1 FMN803      0.0000 
     10 C6        -29.2450   -3.3630   -0.3750 C.ar      1 FMN803      0.0000 
     11 C7        -28.1620   -3.3270   -1.2500 C.ar      1 FMN803      0.0000 
     12 C7M       -27.7110   -2.0040   -1.8150 C.3       1 FMN803      0.0000 
     13 C8        -27.4980   -4.5250   -1.5750 C.ar      1 FMN803      0.0000 
     14 C8M       -26.3880   -4.5430   -2.5990 C.3       1 FMN803      0.0000 
     15 C9        -27.9180   -5.7150   -0.9870 C.ar      1 FMN803      0.0000 
     16 C9A       -29.0230   -5.7550   -0.1250 C.ar      1 FMN803      0.0000 
     17 N10       -29.5600   -6.9790    0.3860 N.pl3     1 FMN803      0.0000 
     18 C10       -30.7260   -6.9760    1.1020 C.2       1 FMN803      0.0000 
     19 C1'       -28.9580   -8.2900    0.0570 C.3       1 FMN803      0.0000 
     20 C2'       -29.3180   -8.6680   -1.3840 C.3       1 FMN803      0.0000 
     21 O2'       -30.7240   -8.8990   -1.5310 O.3       1 FMN803      0.0000 
     22 C3'       -28.5160   -9.8560   -1.9170 C.3       1 FMN803      0.0000 
     23 O3'       -28.9760  -11.0340   -1.2660 O.3       1 FMN803      0.0000 
     24 C4'       -26.9880   -9.7640   -1.8560 C.3       1 FMN803      0.0000 
     25 O4'       -26.5230   -8.5280   -2.4090 O.3       1 FMN803      0.0000 
     26 C5'       -26.2770  -10.9320   -2.5110 C.3       1 FMN803      0.0000 
     27 O5'       -26.7770  -11.1410   -3.8570 O.3       1 FMN803      0.0000 
     28 P         -26.1150  -10.5210   -5.1990 P.3       1 FMN803      0.0000 
     29 O1P       -24.7580  -11.0470   -5.3850 O.co2     1 FMN803      0.0000 
     30 O2P       -26.1420   -9.0270   -5.0140 O.co2     1 FMN803      0.0000 
     31 O3P       -27.0490  -10.8700   -6.3530 O.co2     1 FMN803      0.0000 
@<TRIPOS>BOND
     1    1    2 1    
     2    1   18 2    
     3    2    3 2    
     4    2    4 am   
     5    4    5 am   
     6    5    6 2    
     7    5    7 1    
     8    7    8 2    
     9    7   18 1    
    10    8    9 1    
    11    9   10 ar   
    12    9   16 ar   
    13   10   11 ar   
    14   11   12 1    
    15   11   13 ar   
    16   13   14 1    
    17   13   15 ar   
    18   15   16 ar   
    19   16   17 1    
    20   17   18 1    
    21   17   19 1    
    22   19   20 1    
    23   20   21 1    
    24   20   22 1    
    25   22   23 1    
    26   22   24 1    
    27   24   25 1    
    28   24   26 1    
    29   26   27 1    
    30   27   28 1    
    31   28   29 ar   
    32   28   30 ar   
    33   28   31 ar   
@<TRIPOS>SUBSTRUCTURE
     1 FMN803      1 GROUP   
@<TRIPOS>SET
ATOM$ORANGE STATIC     ATOMS   COLORGROUP SYSTEM 
34 2 2 5 5 7 7 9 9 10 10 11 11 12 12 13 13 14 \
14 15 15 16 16 18 18 19 19 20 20 22 22 24 24 26 26 

