#    Name: 6qkg_1_FAD
#    Modification time : Fri May 22 19:26:47 2020

@<TRIPOS>MOLECULE
6qkg_1_FAD
   53    58     1     0     1
SMALL
NO_CHARGES


@<TRIPOS>ATOM
      1 PA        -10.0010    6.1480  -20.7660 P.3       1 FAD802      0.0000 
      2 O1A       -10.5180    4.8960  -20.1520 O.co2     1 FAD802      0.0000 
      3 O2A        -8.5970    6.4880  -20.3430 O.co2     1 FAD802      0.0000 
      4 O5B       -10.1520    6.0810  -22.3410 O.3       1 FAD802      0.0000 
      5 C5B        -9.6260    7.0950  -23.2090 C.3       1 FAD802      0.0000 
      6 C4B        -9.5570    6.4900  -24.5910 C.3       1 FAD802      0.0000 
      7 O4B        -9.2180    7.5150  -25.5510 O.3       1 FAD802      0.0000 
      8 C3B        -8.5220    5.3690  -24.7570 C.3       1 FAD802      0.0000 
      9 O3B        -9.0660    4.1940  -25.3620 O.3       1 FAD802      0.0000 
     10 C2B        -7.3870    6.0500  -25.5330 C.3       1 FAD802      0.0000 
     11 O2B        -6.6860    5.1140  -26.3410 O.3       1 FAD802      0.0000 
     12 C1B        -8.1880    7.0310  -26.3880 C.3       1 FAD802      0.0000 
     13 N9A        -7.4630    8.1690  -26.9410 N.pl3     1 FAD802      0.0000 
     14 C8A        -6.6840    9.0850  -26.2770 C.2       1 FAD802      0.0000 
     15 N7A        -6.3200   10.1090  -27.0140 N.2       1 FAD802      0.0000 
     16 C5A        -6.8910    9.8450  -28.2510 C.ar      1 FAD802      0.0000 
     17 C6A        -6.9210   10.5700  -29.4620 C.ar      1 FAD802      0.0000 
     18 N6A        -6.4070   11.7920  -29.6070 N.pl3     1 FAD802      0.0000 
     19 N1A        -7.5880   10.0240  -30.5060 N.ar      1 FAD802      0.0000 
     20 C2A        -8.2070    8.8500  -30.3360 C.ar      1 FAD802      0.0000 
     21 N3A        -8.2710    8.0900  -29.2390 N.ar      1 FAD802      0.0000 
     22 C4A        -7.5870    8.6450  -28.2230 C.ar      1 FAD802      0.0000 
     23 N1        -11.4460    3.3030  -11.5700 N.2       1 FAD802      0.0000 
     24 C2        -12.4130    2.8540  -10.6900 C.2       1 FAD802      0.0000 
     25 O2        -13.3130    3.5930  -10.2860 O.2       1 FAD802      0.0000 
     26 N3        -12.2890    1.6150  -10.1030 N.am      1 FAD802      0.0000 
     27 C4        -11.2140    0.7590  -10.2380 C.2       1 FAD802      0.0000 
     28 O4        -11.2200   -0.3130   -9.6480 O.2       1 FAD802      0.0000 
     29 C4X       -10.1770    1.2410  -11.1430 C.2       1 FAD802      0.0000 
     30 N5         -9.1900    0.4360  -11.4370 N.2       1 FAD802      0.0000 
     31 C5X        -8.3230    0.8160  -12.4620 C.ar      1 FAD802      0.0000 
     32 C6         -7.2860   -0.0500  -12.8150 C.ar      1 FAD802      0.0000 
     33 C7         -6.3810    0.2690  -13.8220 C.ar      1 FAD802      0.0000 
     34 C7M        -5.1950   -0.6300  -14.0350 C.3       1 FAD802      0.0000 
     35 C8         -6.5380    1.4790  -14.5380 C.ar      1 FAD802      0.0000 
     36 C8M        -5.5600    1.8920  -15.6160 C.3       1 FAD802      0.0000 
     37 C9         -7.5840    2.3360  -14.2020 C.ar      1 FAD802      0.0000 
     38 C9A        -8.4660    2.0290  -13.1590 C.ar      1 FAD802      0.0000 
     39 N10        -9.5190    2.8950  -12.7750 N.pl3     1 FAD802      0.0000 
     40 C10       -10.3960    2.5360  -11.7900 C.2       1 FAD802      0.0000 
     41 C1'        -9.7190    4.1650  -13.5010 C.3       1 FAD802      0.0000 
     42 C2'       -10.7470    4.0340  -14.6230 C.3       1 FAD802      0.0000 
     43 O2'       -10.4100    2.9380  -15.4830 O.3       1 FAD802      0.0000 
     44 C3'       -10.8580    5.3390  -15.4130 C.3       1 FAD802      0.0000 
     45 O3'       -11.3110    6.3420  -14.5080 O.3       1 FAD802      0.0000 
     46 C4'       -11.7260    5.3750  -16.6720 C.3       1 FAD802      0.0000 
     47 O4'       -11.3740    4.2960  -17.5440 O.3       1 FAD802      0.0000 
     48 C5'       -11.6210    6.6850  -17.4190 C.3       1 FAD802      0.0000 
     49 O5'       -12.5850    6.5750  -18.4860 O.3       1 FAD802      0.0000 
     50 P         -12.4320    7.4840  -19.7930 P.3       1 FAD802      0.0000 
     51 O1P       -13.4350    7.1360  -20.8170 O.co2     1 FAD802      0.0000 
     52 O2P       -12.5790    8.9160  -19.4170 O.co2     1 FAD802      0.0000 
     53 O3P       -10.9400    7.3560  -20.3350 O.3       1 FAD802      0.0000 
@<TRIPOS>BOND
     1    1    2 ar   
     2    1    3 ar   
     3    1    4 1    
     4    1   53 1    
     5    4    5 1    
     6    5    6 1    
     7    6    7 1    
     8    6    8 1    
     9    7   12 1    
    10    8    9 1    
    11    8   10 1    
    12   10   11 1    
    13   10   12 1    
    14   12   13 1    
    15   13   14 1    
    16   13   22 1    
    17   14   15 2    
    18   15   16 1    
    19   16   17 ar   
    20   16   22 ar   
    21   17   18 1    
    22   17   19 ar   
    23   19   20 ar   
    24   20   21 ar   
    25   21   22 ar   
    26   23   24 1    
    27   23   40 2    
    28   24   25 2    
    29   24   26 am   
    30   26   27 am   
    31   27   28 2    
    32   27   29 1    
    33   29   30 2    
    34   29   40 1    
    35   30   31 1    
    36   31   32 ar   
    37   31   38 ar   
    38   32   33 ar   
    39   33   34 1    
    40   33   35 ar   
    41   35   36 1    
    42   35   37 ar   
    43   37   38 ar   
    44   38   39 1    
    45   39   40 1    
    46   39   41 1    
    47   41   42 1    
    48   42   43 1    
    49   42   44 1    
    50   44   45 1    
    51   44   46 1    
    52   46   47 1    
    53   46   48 1    
    54   48   49 1    
    55   49   50 1    
    56   50   51 ar   
    57   50   52 ar   
    58   50   53 1    
@<TRIPOS>SUBSTRUCTURE
     1 FAD802      1 GROUP   
@<TRIPOS>SET
ATOM$ORANGE STATIC     ATOMS   COLORGROUP SYSTEM 
54 5 5 6 6 8 8 10 10 12 12 14 14 16 16 17 17 20 \
20 22 22 24 24 27 27 29 29 31 31 32 32 33 33 34 34 35 \
35 36 36 37 37 38 38 40 40 41 41 42 42 44 44 46 46 48 \
48 

