#    Name: 6okv_6_ADP_CAVITY_N1_12
#    Modification time : Fri May 22 19:35:40 2020

@<TRIPOS>MOLECULE
6okv_6_ADP_CAVITY_N1_12
  120     0     7     0     0
SMALL
NO_CHARGES


@<TRIPOS>ATOM
      1 OG        -31.5000  -90.5500  -74.3400 O.3       1 SER1        0.0000 
      2 OG        -32.5200  -89.5900  -73.8000 O.3       1 SER1        0.0000 
      3 OG        -31.6000  -89.2500  -72.6700 O.3       1 SER1        0.0000 
      4 OG        -32.2100  -90.3500  -71.8500 O.3       1 SER1        0.0000 
      5 OG        -30.6800  -88.9200  -71.5300 O.3       1 SER1        0.0000 
      6 OG        -31.7800  -95.0500  -66.8500 O.3       1 SER1        0.0000 
      7 N         -32.9300  -93.2800  -76.3400 N.am      2 ALA2        0.0000 
      8 N         -31.4000  -91.8400  -76.0200 N.am      2 ALA2        0.0000 
      9 N         -32.0100  -92.9500  -75.2000 N.am      2 ALA2        0.0000 
     10 N         -33.2200  -95.1500  -73.5700 N.am      2 ALA2        0.0000 
     11 N         -33.8300  -96.2500  -72.7500 N.am      2 ALA2        0.0000 
     12 N         -34.8500  -95.2900  -72.2100 N.am      2 ALA2        0.0000 
     13 N         -35.8700  -94.3300  -71.6700 N.am      2 ALA2        0.0000 
     14 N         -36.4800  -95.4300  -70.8600 N.am      2 ALA2        0.0000 
     15 N         -31.9100  -88.4900  -74.6200 N.am      2 ALA2        0.0000 
     16 N         -32.1100  -91.6500  -73.5300 N.am      2 ALA2        0.0000 
     17 N         -32.7200  -92.7500  -72.7100 N.am      2 ALA2        0.0000 
     18 N         -32.3100  -94.8200  -72.4300 N.am      2 ALA2        0.0000 
     19 N         -33.3200  -93.8500  -71.8900 N.am      2 ALA2        0.0000 
     20 N         -32.9100  -95.9200  -71.6200 N.am      2 ALA2        0.0000 
     21 N         -33.9300  -94.9600  -71.0800 N.am      2 ALA2        0.0000 
     22 N         -34.9500  -94.0000  -70.5400 N.am      2 ALA2        0.0000 
     23 N         -31.1900  -91.3200  -72.3900 N.am      2 ALA2        0.0000 
     24 N         -32.8100  -91.4600  -71.0300 N.am      2 ALA2        0.0000 
     25 N         -33.8300  -90.5000  -70.4900 N.am      2 ALA2        0.0000 
     26 N         -34.8500  -89.5300  -69.9500 N.am      2 ALA2        0.0000 
     27 N         -32.4000  -93.5200  -70.7600 N.am      2 ALA2        0.0000 
     28 N         -33.4200  -92.5600  -70.2200 N.am      2 ALA2        0.0000 
     29 N         -34.4400  -91.6000  -69.6800 N.am      2 ALA2        0.0000 
     30 N         -35.4600  -90.6400  -69.1400 N.am      2 ALA2        0.0000 
     31 N         -31.9900  -95.5800  -70.4800 N.am      2 ALA2        0.0000 
     32 N         -33.0100  -94.6200  -69.9400 N.am      2 ALA2        0.0000 
     33 N         -31.0900  -86.8500  -71.8100 N.am      2 ALA2        0.0000 
     34 N         -31.7000  -87.9600  -70.9900 N.am      2 ALA2        0.0000 
     35 N         -30.8800  -92.0800  -70.4400 N.am      2 ALA2        0.0000 
     36 N         -31.9000  -91.1200  -69.9000 N.am      2 ALA2        0.0000 
     37 N         -32.9100  -90.1600  -69.3600 N.am      2 ALA2        0.0000 
     38 N         -33.9300  -89.2000  -68.8200 N.am      2 ALA2        0.0000 
     39 N         -34.9500  -88.2400  -68.2800 N.am      2 ALA2        0.0000 
     40 N         -31.4900  -93.1800  -69.6200 N.am      2 ALA2        0.0000 
     41 N         -32.5000  -92.2200  -69.0800 N.am      2 ALA2        0.0000 
     42 N         -32.0900  -94.2900  -68.8000 N.am      2 ALA2        0.0000 
     43 N         -33.1100  -93.3300  -68.2600 N.am      2 ALA2        0.0000 
     44 O         -32.7000  -95.3900  -67.9900 O.2       2 ALA2        0.0000 
     45 O         -33.7200  -94.4300  -67.4500 O.2       2 ALA2        0.0000 
     46 N         -30.7800  -87.6200  -69.8500 N.am      2 ALA2        0.0000 
     47 N         -31.8000  -86.6600  -69.3100 N.am      2 ALA2        0.0000 
     48 N         -30.3700  -89.6800  -69.5800 N.am      2 ALA2        0.0000 
     49 N         -31.3900  -88.7200  -69.0400 N.am      2 ALA2        0.0000 
     50 N         -31.5800  -91.8900  -67.9400 N.am      2 ALA2        0.0000 
     51 N         -32.1900  -92.9900  -67.1300 N.am      2 ALA2        0.0000 
     52 OD1       -35.6900  -88.5300  -77.4900 O.co2     3 ASP3        0.0000 
     53 OD1       -34.7700  -88.2000  -76.3500 O.co2     3 ASP3        0.0000 
     54 OD1       -36.1800  -93.5600  -73.6300 O.co2     3 ASP3        0.0000 
     55 OD1       -37.2000  -92.6000  -73.0900 O.co2     3 ASP3        0.0000 
     56 OD1       -36.1800  -87.8100  -71.3700 O.co2     3 ASP3        0.0000 
     57 OD1       -33.6300  -87.3300  -71.5900 O.co2     3 ASP3        0.0000 
     58 OD1       -34.2400  -88.4300  -70.7700 O.co2     3 ASP3        0.0000 
     59 OD1       -35.2600  -87.4700  -70.2300 O.co2     3 ASP3        0.0000 
     60 OD1       -35.8700  -88.5700  -69.4200 O.co2     3 ASP3        0.0000 
     61 OD1       -32.7200  -87.0000  -70.4500 O.co2     3 ASP3        0.0000 
     62 NZ        -34.6700  -89.4900  -78.0300 N.4       4 LYS4        0.0000 
     63 NZ        -33.7500  -89.1600  -76.8900 N.4       4 LYS4        0.0000 
     64 NZ        -33.3400  -91.2200  -76.6200 N.4       4 LYS4        0.0000 
     65 NZ        -31.8100  -89.7800  -76.3000 N.4       4 LYS4        0.0000 
     66 NZ        -33.8500  -87.8600  -75.2200 N.4       4 LYS4        0.0000 
     67 NZ        -34.4500  -88.9600  -74.4000 N.4       4 LYS4        0.0000 
     68 NZ        -35.4700  -88.0000  -73.8600 N.4       4 LYS4        0.0000 
     69 NZ        -33.5400  -88.6300  -73.2600 N.4       4 LYS4        0.0000 
     70 NZ        -34.5500  -87.6700  -72.7200 N.4       4 LYS4        0.0000 
     71 NZ        -32.0100  -87.1900  -72.9400 N.4       4 LYS4        0.0000 
     72 NZ        -33.0300  -86.2300  -72.4000 N.4       4 LYS4        0.0000 
     73 CZ        -31.2900  -90.0200  -70.7100 C.ar      5 PHE5        0.0000 
     74 CZ        -29.7600  -88.5800  -70.3900 C.ar      5 PHE5        0.0000 
     75 CZ        -29.3500  -90.6400  -70.1100 C.ar      5 PHE5        0.0000 
     76 CA        -36.2900  -89.6300  -76.6700 C.3       6 GLY6        0.0000 
     77 CA        -37.3100  -88.6700  -76.1400 C.3       6 GLY6        0.0000 
     78 CA        -35.7800  -87.2300  -75.8100 C.3       6 GLY6        0.0000 
     79 CA        -36.3900  -88.3400  -75.0000 C.3       6 GLY6        0.0000 
     80 CA        -34.7500  -96.5900  -73.8900 C.3       6 GLY6        0.0000 
     81 CA        -35.7700  -95.6300  -73.3500 C.3       6 GLY6        0.0000 
     82 CA        -36.7900  -94.6700  -72.8100 C.3       6 GLY6        0.0000 
     83 CA        -37.4000  -95.7700  -72.0000 C.3       6 GLY6        0.0000 
     84 CA        -32.6200  -94.0500  -74.3900 C.3       6 GLY6        0.0000 
     85 CA        -36.8900  -93.3700  -71.1400 C.3       6 GLY6        0.0000 
     86 CA        -37.4900  -94.4700  -70.3200 C.3       6 GLY6        0.0000 
     87 CA        -38.5100  -93.5100  -69.7800 C.3       6 GLY6        0.0000 
     88 CA        -35.9700  -93.0400  -70.0000 C.3       6 GLY6        0.0000 
     89 CA        -34.0300  -93.6600  -69.4000 C.3       6 GLY6        0.0000 
     90 CA        -35.0500  -92.7000  -68.8600 C.3       6 GLY6        0.0000 
     91 CA        -32.1100  -85.8900  -71.2700 C.3       6 GLY6        0.0000 
     92 CA        -31.0800  -95.2500  -69.3400 C.3       6 GLY6        0.0000 
     93 CA        -29.9600  -91.7500  -69.3000 C.3       6 GLY6        0.0000 
     94 CA        -30.5700  -92.8500  -68.4800 C.3       6 GLY6        0.0000 
     95 CA        -31.1700  -93.9500  -67.6700 C.3       6 GLY6        0.0000 
     96 DU        -34.2600  -91.5500  -77.7500 H         7 CUB7        0.0000 
     97 DU        -35.2800  -90.5900  -77.2100 H         7 CUB7        0.0000 
     98 DU        -35.8800  -91.7000  -76.4000 H         7 CUB7        0.0000 
     99 DU        -36.9000  -90.7300  -75.8600 H         7 CUB7        0.0000 
    100 DU        -34.3600  -90.2600  -76.0800 H         7 CUB7        0.0000 
    101 DU        -35.3700  -89.3000  -75.5400 H         7 CUB7        0.0000 
    102 DU        -33.9500  -92.3200  -75.8000 H         7 CUB7        0.0000 
    103 DU        -35.1600  -94.5300  -74.1700 H         7 CUB7        0.0000 
    104 DU        -32.4200  -90.8800  -75.4800 H         7 CUB7        0.0000 
    105 DU        -33.4400  -89.9200  -74.9400 H         7 CUB7        0.0000 
    106 DU        -33.0300  -91.9900  -74.6600 H         7 CUB7        0.0000 
    107 DU        -33.6300  -93.0900  -73.8500 H         7 CUB7        0.0000 
    108 DU        -34.2400  -94.1900  -73.0300 H         7 CUB7        0.0000 
    109 DU        -35.2600  -93.2300  -72.4900 H         7 CUB7        0.0000 
    110 DU        -36.2800  -92.2700  -71.9500 H         7 CUB7        0.0000 
    111 DU        -33.1300  -90.6900  -72.9900 H         7 CUB7        0.0000 
    112 DU        -35.1600  -88.7700  -71.9100 H         7 CUB7        0.0000 
    113 DU        -33.7300  -91.7900  -72.1700 H         7 CUB7        0.0000 
    114 DU        -35.7700  -89.8700  -71.0900 H         7 CUB7        0.0000 
    115 DU        -34.3400  -92.8900  -71.3500 H         7 CUB7        0.0000 
    116 DU        -35.3600  -91.9300  -70.8100 H         7 CUB7        0.0000 
    117 DU        -32.6200  -88.2900  -72.1300 H         7 CUB7        0.0000 
    118 DU        -33.2200  -89.3900  -71.3100 H         7 CUB7        0.0000 
    119 DU        -32.3100  -89.0600  -70.1700 H         7 CUB7        0.0000 
    120 DU        -33.3200  -88.1000  -69.6300 H         7 CUB7        0.0000 
@<TRIPOS>BOND
@<TRIPOS>SUBSTRUCTURE
     1 SER1        1 GROUP   
     2 ALA2        7 GROUP   
     3 ASP3       52 GROUP   
     4 LYS4       62 GROUP   
     5 PHE5       73 GROUP   
     6 GLY6       76 GROUP   
     7 CUB7       96 GROUP   
@<TRIPOS>SET

