#    Name: 6okv_1_ANP_CAVITY_N1_6
#    Modification time : Fri May 22 19:34:54 2020

@<TRIPOS>MOLECULE
6okv_1_ANP_CAVITY_N1_6
  103     0     7     0     0
SMALL
NO_CHARGES


@<TRIPOS>ATOM
      1 OG         -7.1200  -82.6700  -92.4100 O.3       1 SER1        0.0000 
      2 OG         -7.2100  -81.3800  -90.7400 O.3       1 SER1        0.0000 
      3 OG         -8.2300  -80.4200  -90.2000 O.3       1 SER1        0.0000 
      4 OG         -5.7900  -84.4000  -91.0000 O.3       1 SER1        0.0000 
      5 OG         -6.8000  -83.4400  -90.4600 O.3       1 SER1        0.0000 
      6 OG         -7.8200  -82.4800  -89.9200 O.3       1 SER1        0.0000 
      7 OG         -7.4100  -84.5400  -89.6400 O.3       1 SER1        0.0000 
      8 OG         -6.4900  -84.2100  -88.5100 O.3       1 SER1        0.0000 
      9 OG         -7.5100  -83.2500  -87.9700 O.3       1 SER1        0.0000 
     10 OG          0.2200  -83.1100  -90.3000 O.3       1 SER1        0.0000 
     11 N          -2.3400  -80.9500  -94.8000 N.am      2 ALA2        0.0000 
     12 N          -6.0000  -79.1700  -92.3700 N.am      2 ALA2        0.0000 
     13 N          -4.6700  -80.9000  -90.9600 N.am      2 ALA2        0.0000 
     14 N          -5.6900  -79.9400  -90.4200 N.am      2 ALA2        0.0000 
     15 N          -6.3000  -81.0400  -89.6000 N.am      2 ALA2        0.0000 
     16 N          -7.3100  -80.0800  -89.0600 N.am      2 ALA2        0.0000 
     17 N          -8.3300  -79.1200  -88.5200 N.am      2 ALA2        0.0000 
     18 N          -3.8500  -85.0300  -90.4000 N.am      2 ALA2        0.0000 
     19 O          -5.4800  -85.1700  -89.0500 O.2       2 ALA2        0.0000 
     20 N          -3.1400  -79.4600  -90.6400 N.am      2 ALA2        0.0000 
     21 N          -6.3900  -79.7500  -87.9200 N.am      2 ALA2        0.0000 
     22 N          -2.9300  -84.6900  -89.2700 N.am      2 ALA2        0.0000 
     23 N          -0.4800  -88.6800  -90.0700 N.am      2 ALA2        0.0000 
     24 N           0.0200  -86.2800  -89.2100 N.am      2 ALA2        0.0000 
     25 N          -0.9900  -85.3200  -88.6700 N.am      2 ALA2        0.0000 
     26 O          -5.2600  -84.6400  -85.4200 O.2       2 ALA2        0.0000 
     27 OD1        -3.8600  -82.3900  -95.1300 O.co2     3 ASP3        0.0000 
     28 OD1        -2.9400  -82.0600  -93.9900 O.co2     3 ASP3        0.0000 
     29 OD1        -4.5700  -82.2000  -92.6300 O.co2     3 ASP3        0.0000 
     30 OD1        -5.1800  -83.3000  -91.8200 O.co2     3 ASP3        0.0000 
     31 OD1        -4.7700  -85.3600  -91.5400 O.co2     3 ASP3        0.0000 
     32 OD1        -2.6300  -82.8200  -92.0300 O.co2     3 ASP3        0.0000 
     33 OD1        -3.2400  -83.9200  -91.2200 O.co2     3 ASP3        0.0000 
     34 OD1        -4.2600  -82.9600  -90.6800 O.co2     3 ASP3        0.0000 
     35 OD1        -1.3000  -84.5500  -90.6200 O.co2     3 ASP3        0.0000 
     36 OD1        -2.3200  -83.5900  -90.0800 O.co2     3 ASP3        0.0000 
     37 OD1        -4.9700  -82.7700  -88.1900 O.co2     3 ASP3        0.0000 
     38 OD1        -5.9800  -81.8100  -87.6500 O.co2     3 ASP3        0.0000 
     39 OD1        -7.2000  -84.0100  -86.0200 O.co2     3 ASP3        0.0000 
     40 OD1         1.2400  -84.0700  -90.8400 O.co2     3 ASP3        0.0000 
     41 OD1        -1.8100  -81.1900  -89.2200 O.co2     3 ASP3        0.0000 
     42 OD1         0.6300  -85.1800  -90.0200 O.co2     3 ASP3        0.0000 
     43 OD1        -0.3900  -84.2200  -89.4800 O.co2     3 ASP3        0.0000 
     44 OD1        -1.4000  -83.2500  -88.9400 O.co2     3 ASP3        0.0000 
     45 OD1        -2.4200  -82.2900  -88.4100 O.co2     3 ASP3        0.0000 
     46 OD1        -6.0800  -80.5100  -85.9700 O.co2     3 ASP3        0.0000 
     47 OD1        -4.6500  -83.5400  -86.2300 O.co2     3 ASP3        0.0000 
     48 OD1        -5.6700  -82.5800  -85.6900 O.co2     3 ASP3        0.0000 
     49 OD1        -6.6900  -81.6200  -85.1500 O.co2     3 ASP3        0.0000 
     50 OD1        -6.2800  -83.6800  -84.8800 O.co2     3 ASP3        0.0000 
     51 OD1        -0.4800  -82.9200  -87.8100 O.co2     3 ASP3        0.0000 
     52 OD1        -2.1100  -83.0600  -86.4500 O.co2     3 ASP3        0.0000 
     53 OD1        -3.7400  -83.2000  -85.1000 O.co2     3 ASP3        0.0000 
     54 OD1        -0.1700  -83.6900  -85.8500 O.co2     3 ASP3        0.0000 
     55 OD1        -0.2700  -82.3900  -84.1800 O.co2     3 ASP3        0.0000 
     56 NZ         -7.9200  -81.1800  -88.2500 N.4       4 LYS4        0.0000 
     57 NZ         -8.9400  -80.2200  -87.7100 N.4       4 LYS4        0.0000 
     58 NZ         -8.5300  -82.2900  -87.4300 N.4       4 LYS4        0.0000 
     59 NZ         -7.0000  -80.8500  -87.1100 N.4       4 LYS4        0.0000 
     60 NZ         -8.0200  -79.8900  -86.5700 N.4       4 LYS4        0.0000 
     61 NZ         -6.5900  -82.9100  -86.8300 N.4       4 LYS4        0.0000 
     62 NZ          0.1200  -81.8200  -88.6200 N.4       4 LYS4        0.0000 
     63 NZ          0.7500  -83.3500  -84.7200 N.4       4 LYS4        0.0000 
     64 CZ         -8.8400  -81.5200  -89.3800 C.ar      5 PHE5        0.0000 
     65 CA         -7.5300  -80.6100  -92.6900 C.3       6 GLY6        0.0000 
     66 CA         -3.3500  -79.9900  -94.2600 C.3       6 GLY6        0.0000 
     67 CA         -6.6100  -80.2800  -91.5500 C.3       6 GLY6        0.0000 
     68 CA         -5.3800  -86.4600  -90.7200 C.3       6 GLY6        0.0000 
     69 CA         -6.3900  -85.5000  -90.1800 C.3       6 GLY6        0.0000 
     70 CA         -2.0300  -81.7200  -92.8500 C.3       6 GLY6        0.0000 
     71 CA         -3.0400  -80.7600  -92.3100 C.3       6 GLY6        0.0000 
     72 CA         -4.0600  -79.8000  -91.7700 C.3       6 GLY6        0.0000 
     73 CA         -3.6500  -81.8600  -91.5000 C.3       6 GLY6        0.0000 
     74 CA         -7.1000  -85.3100  -87.6900 C.3       6 GLY6        0.0000 
     75 CA         -8.1200  -84.3500  -87.1500 C.3       6 GLY6        0.0000 
     76 CA         -1.7100  -82.4900  -90.9000 C.3       6 GLY6        0.0000 
     77 CA         -2.7300  -81.5300  -90.3600 C.3       6 GLY6        0.0000 
     78 CA         -3.7500  -80.5700  -89.8200 C.3       6 GLY6        0.0000 
     79 CA         -4.3600  -81.6700  -89.0000 C.3       6 GLY6        0.0000 
     80 CA         -5.3800  -80.7100  -88.4600 C.3       6 GLY6        0.0000 
     81 CA         -7.4100  -78.7900  -87.3800 C.3       6 GLY6        0.0000 
     82 CA         -3.9500  -83.7300  -88.7300 C.3       6 GLY6        0.0000 
     83 CA         -4.5600  -84.8300  -87.9100 C.3       6 GLY6        0.0000 
     84 CA         -5.5700  -83.8700  -87.3700 C.3       6 GLY6        0.0000 
     85 CA         -6.1800  -84.9700  -86.5500 C.3       6 GLY6        0.0000 
     86 CA         -0.8000  -82.1500  -89.7600 C.3       6 GLY6        0.0000 
     87 CA         -2.0100  -84.3600  -88.1300 C.3       6 GLY6        0.0000 
     88 CA         -3.0300  -83.4000  -87.5900 C.3       6 GLY6        0.0000 
     89 CA         -0.0700  -84.9800  -87.5300 C.3       6 GLY6        0.0000 
     90 CA         -1.0900  -84.0200  -86.9900 C.3       6 GLY6        0.0000 
     91 CA         -0.7800  -84.7900  -85.0400 C.3       6 GLY6        0.0000 
     92 CA          1.1600  -85.4100  -84.4400 C.3       6 GLY6        0.0000 
     93 DU         -6.5100  -81.5700  -93.2300 H         7 CUB7        0.0000 
     94 DU         -3.9600  -81.1000  -93.4500 H         7 CUB7        0.0000 
     95 DU         -4.9800  -80.1300  -92.9100 H         7 CUB7        0.0000 
     96 DU         -5.5900  -81.2400  -92.0900 H         7 CUB7        0.0000 
     97 DU         -6.2000  -82.3400  -91.2800 H         7 CUB7        0.0000 
     98 DU         -5.2800  -82.0000  -90.1400 H         7 CUB7        0.0000 
     99 DU         -4.8700  -84.0700  -89.8600 H         7 CUB7        0.0000 
    100 DU         -5.8900  -83.1100  -89.3200 H         7 CUB7        0.0000 
    101 DU         -6.9000  -82.1400  -88.7800 H         7 CUB7        0.0000 
    102 DU         -3.3400  -82.6300  -89.5400 H         7 CUB7        0.0000 
    103 DU          0.5300  -83.8800  -88.3500 H         7 CUB7        0.0000 
@<TRIPOS>BOND
@<TRIPOS>SUBSTRUCTURE
     1 SER1        1 GROUP   
     2 ALA2       11 GROUP   
     3 ASP3       27 GROUP   
     4 LYS4       56 GROUP   
     5 PHE5       64 GROUP   
     6 GLY6       65 GROUP   
     7 CUB7       93 GROUP   
@<TRIPOS>SET

