#    Name: 6okv_1_ANP
#    Modification time : Fri May 22 19:34:52 2020

@<TRIPOS>MOLECULE
6okv_1_ANP
   31    33     1     0     1
SMALL
NO_CHARGES


@<TRIPOS>ATOM
      1 PG         -5.1000  -84.6990  -82.7830 P.3       1 ANP402      0.0000 
      2 O1G        -4.0960  -83.6230  -82.4430 O.co2     1 ANP402      0.0000 
      3 O2G        -6.4640  -84.1340  -82.5510 O.co2     1 ANP402      0.0000 
      4 O3G        -4.8940  -85.8920  -81.9040 O.co2     1 ANP402      0.0000 
      5 PB         -6.1440  -85.8620  -85.3970 P.3       1 ANP402      0.0000 
      6 O1B        -6.1730  -87.3660  -85.1130 O.co2     1 ANP402      0.0000 
      7 O2B        -7.4940  -85.2720  -85.0130 O.co2     1 ANP402      0.0000 
      8 N3B        -4.9020  -85.1230  -84.4790 N.3       1 ANP402      0.0000 
      9 PA         -6.5180  -84.5960  -87.9540 P.3       1 ANP402      0.0000 
     10 O1A        -7.0420  -83.4300  -87.1710 O.co2     1 ANP402      0.0000 
     11 O2A        -7.6370  -85.2410  -88.6160 O.co2     1 ANP402      0.0000 
     12 O3A        -5.8370  -85.6600  -87.0210 O.3       1 ANP402      0.0000 
     13 O5'        -5.4030  -84.0530  -89.1450 O.3       1 ANP402      0.0000 
     14 C5'        -4.9630  -84.9590  -90.1160 C.3       1 ANP402      0.0000 
     15 C4'        -4.6540  -84.1750  -91.3930 C.3       1 ANP402      0.0000 
     16 O4'        -4.6700  -85.1370  -92.6730 O.3       1 ANP402      0.0000 
     17 C3'        -5.5880  -83.2380  -91.5650 C.3       1 ANP402      0.0000 
     18 O3'        -4.9660  -81.9340  -91.9550 O.3       1 ANP402      0.0000 
     19 C2'        -6.5020  -83.7290  -92.6680 C.3       1 ANP402      0.0000 
     20 O2'        -6.7030  -82.7350  -93.5990 O.3       1 ANP402      0.0000 
     21 C1'        -5.7740  -84.9310  -93.3410 C.3       1 ANP402      0.0000 
     22 N9         -6.6340  -86.0940  -93.2380 N.pl3     1 ANP402      0.0000 
     23 C8         -7.4680  -86.5940  -92.3110 C.2       1 ANP402      0.0000 
     24 N7         -7.9840  -87.7310  -92.8400 N.2       1 ANP402      0.0000 
     25 C5         -7.4600  -87.9060  -94.0810 C.ar      1 ANP402      0.0000 
     26 C6         -7.6550  -88.8890  -95.0240 C.ar      1 ANP402      0.0000 
     27 N6         -8.5650  -90.0610  -94.8480 N.pl3     1 ANP402      0.0000 
     28 N1         -7.0090  -88.8420  -96.2040 N.ar      1 ANP402      0.0000 
     29 C2         -6.1680  -87.8320  -96.4650 C.ar      1 ANP402      0.0000 
     30 N3         -5.9630  -86.8350  -95.5250 N.ar      1 ANP402      0.0000 
     31 C4         -6.6130  -86.8860  -94.3430 C.ar      1 ANP402      0.0000 
@<TRIPOS>BOND
     1    1    2 ar   
     2    1    3 ar   
     3    1    4 ar   
     4    1    8 1    
     5    5    6 ar   
     6    5    7 ar   
     7    5    8 1    
     8    5   12 1    
     9    9   10 ar   
    10    9   11 ar   
    11    9   12 1    
    12    9   13 1    
    13   13   14 1    
    14   14   15 1    
    15   15   16 1    
    16   15   17 1    
    17   16   21 1    
    18   17   18 1    
    19   17   19 1    
    20   19   20 1    
    21   19   21 1    
    22   21   22 1    
    23   22   23 1    
    24   22   31 1    
    25   23   24 2    
    26   24   25 1    
    27   25   26 ar   
    28   25   31 ar   
    29   26   27 1    
    30   26   28 ar   
    31   28   29 ar   
    32   29   30 ar   
    33   30   31 ar   
@<TRIPOS>SUBSTRUCTURE
     1 ANP402      1 GROUP   
@<TRIPOS>SET
ATOM$ORANGE STATIC     ATOMS   COLORGROUP SYSTEM 
20 14 14 15 15 17 17 19 19 21 21 23 23 25 25 26 26 29 \
29 31 31 

