#    Name: 6okv_6_ADP_CAVITY_N1_6
#    Modification time : Fri May 22 19:35:40 2020

@<TRIPOS>MOLECULE
6okv_6_ADP_CAVITY_N1_6
   20     0     4     0     0
SMALL
NO_CHARGES


@<TRIPOS>ATOM
      1 N         -33.8300  -90.5000  -70.4900 N.am      1 ALA2        0.0000 
      2 N         -34.8500  -89.5300  -69.9500 N.am      1 ALA2        0.0000 
      3 N         -34.4400  -91.6000  -69.6800 N.am      1 ALA2        0.0000 
      4 N         -35.4600  -90.6400  -69.1400 N.am      1 ALA2        0.0000 
      5 N         -32.9100  -90.1600  -69.3600 N.am      1 ALA2        0.0000 
      6 N         -33.9300  -89.2000  -68.8200 N.am      1 ALA2        0.0000 
      7 N         -34.9500  -88.2400  -68.2800 N.am      1 ALA2        0.0000 
      8 OD1       -36.1800  -87.8100  -71.3700 O.co2     2 ASP3        0.0000 
      9 OD1       -34.2400  -88.4300  -70.7700 O.co2     2 ASP3        0.0000 
     10 OD1       -35.2600  -87.4700  -70.2300 O.co2     2 ASP3        0.0000 
     11 OD1       -35.8700  -88.5700  -69.4200 O.co2     2 ASP3        0.0000 
     12 CA        -36.8900  -93.3700  -71.1400 C.3       3 GLY6        0.0000 
     13 CA        -37.4900  -94.4700  -70.3200 C.3       3 GLY6        0.0000 
     14 CA        -38.5100  -93.5100  -69.7800 C.3       3 GLY6        0.0000 
     15 CA        -35.9700  -93.0400  -70.0000 C.3       3 GLY6        0.0000 
     16 CA        -35.0500  -92.7000  -68.8600 C.3       3 GLY6        0.0000 
     17 DU        -35.1600  -88.7700  -71.9100 H         4 CUB7        0.0000 
     18 DU        -35.7700  -89.8700  -71.0900 H         4 CUB7        0.0000 
     19 DU        -35.3600  -91.9300  -70.8100 H         4 CUB7        0.0000 
     20 DU        -33.3200  -88.1000  -69.6300 H         4 CUB7        0.0000 
@<TRIPOS>BOND
@<TRIPOS>SUBSTRUCTURE
     1 ALA2        1 GROUP   
     2 ASP3        8 GROUP   
     3 GLY6       12 GROUP   
     4 CUB7       17 GROUP   
@<TRIPOS>SET

