#    Name: 6okv_6_ADP_CAVITY_N1_4
#    Modification time : Fri May 22 19:35:40 2020

@<TRIPOS>MOLECULE
6okv_6_ADP_CAVITY_N1_4
    3     0     2     0     0
SMALL
NO_CHARGES


@<TRIPOS>ATOM
      1 N         -35.4600  -90.6400  -69.1400 N.am      1 ALA2        0.0000 
      2 N         -34.9500  -88.2400  -68.2800 N.am      1 ALA2        0.0000 
      3 OD1       -35.8700  -88.5700  -69.4200 O.co2     2 ASP3        0.0000 
@<TRIPOS>BOND
@<TRIPOS>SUBSTRUCTURE
     1 ALA2        1 GROUP   
     2 ASP3        3 GROUP   
@<TRIPOS>SET

