#    Name: 6okv_6_ADP_CAVITY_N1_8
#    Modification time : Fri May 22 19:35:40 2020

@<TRIPOS>MOLECULE
6okv_6_ADP_CAVITY_N1_8
   63     0     7     0     0
SMALL
NO_CHARGES


@<TRIPOS>ATOM
      1 OG        -32.2100  -90.3500  -71.8500 O.3       1 SER1        0.0000 
      2 OG        -31.7800  -95.0500  -66.8500 O.3       1 SER1        0.0000 
      3 N         -35.8700  -94.3300  -71.6700 N.am      2 ALA2        0.0000 
      4 N         -36.4800  -95.4300  -70.8600 N.am      2 ALA2        0.0000 
      5 N         -34.9500  -94.0000  -70.5400 N.am      2 ALA2        0.0000 
      6 N         -32.8100  -91.4600  -71.0300 N.am      2 ALA2        0.0000 
      7 N         -33.8300  -90.5000  -70.4900 N.am      2 ALA2        0.0000 
      8 N         -34.8500  -89.5300  -69.9500 N.am      2 ALA2        0.0000 
      9 N         -33.4200  -92.5600  -70.2200 N.am      2 ALA2        0.0000 
     10 N         -34.4400  -91.6000  -69.6800 N.am      2 ALA2        0.0000 
     11 N         -35.4600  -90.6400  -69.1400 N.am      2 ALA2        0.0000 
     12 N         -33.0100  -94.6200  -69.9400 N.am      2 ALA2        0.0000 
     13 N         -31.7000  -87.9600  -70.9900 N.am      2 ALA2        0.0000 
     14 N         -31.9000  -91.1200  -69.9000 N.am      2 ALA2        0.0000 
     15 N         -32.9100  -90.1600  -69.3600 N.am      2 ALA2        0.0000 
     16 N         -33.9300  -89.2000  -68.8200 N.am      2 ALA2        0.0000 
     17 N         -34.9500  -88.2400  -68.2800 N.am      2 ALA2        0.0000 
     18 N         -31.4900  -93.1800  -69.6200 N.am      2 ALA2        0.0000 
     19 N         -32.5000  -92.2200  -69.0800 N.am      2 ALA2        0.0000 
     20 N         -32.0900  -94.2900  -68.8000 N.am      2 ALA2        0.0000 
     21 N         -33.1100  -93.3300  -68.2600 N.am      2 ALA2        0.0000 
     22 O         -32.7000  -95.3900  -67.9900 O.2       2 ALA2        0.0000 
     23 O         -33.7200  -94.4300  -67.4500 O.2       2 ALA2        0.0000 
     24 N         -30.7800  -87.6200  -69.8500 N.am      2 ALA2        0.0000 
     25 N         -31.8000  -86.6600  -69.3100 N.am      2 ALA2        0.0000 
     26 N         -30.3700  -89.6800  -69.5800 N.am      2 ALA2        0.0000 
     27 N         -31.3900  -88.7200  -69.0400 N.am      2 ALA2        0.0000 
     28 N         -31.5800  -91.8900  -67.9400 N.am      2 ALA2        0.0000 
     29 N         -32.1900  -92.9900  -67.1300 N.am      2 ALA2        0.0000 
     30 OD1       -36.1800  -93.5600  -73.6300 O.co2     3 ASP3        0.0000 
     31 OD1       -37.2000  -92.6000  -73.0900 O.co2     3 ASP3        0.0000 
     32 OD1       -36.1800  -87.8100  -71.3700 O.co2     3 ASP3        0.0000 
     33 OD1       -33.6300  -87.3300  -71.5900 O.co2     3 ASP3        0.0000 
     34 OD1       -34.2400  -88.4300  -70.7700 O.co2     3 ASP3        0.0000 
     35 OD1       -35.2600  -87.4700  -70.2300 O.co2     3 ASP3        0.0000 
     36 OD1       -35.8700  -88.5700  -69.4200 O.co2     3 ASP3        0.0000 
     37 OD1       -32.7200  -87.0000  -70.4500 O.co2     3 ASP3        0.0000 
     38 NZ        -35.4700  -88.0000  -73.8600 N.4       4 LYS4        0.0000 
     39 NZ        -33.5400  -88.6300  -73.2600 N.4       4 LYS4        0.0000 
     40 NZ        -34.5500  -87.6700  -72.7200 N.4       4 LYS4        0.0000 
     41 CZ        -31.2900  -90.0200  -70.7100 C.ar      5 PHE5        0.0000 
     42 CZ        -29.7600  -88.5800  -70.3900 C.ar      5 PHE5        0.0000 
     43 CA        -36.7900  -94.6700  -72.8100 C.3       6 GLY6        0.0000 
     44 CA        -37.4000  -95.7700  -72.0000 C.3       6 GLY6        0.0000 
     45 CA        -36.8900  -93.3700  -71.1400 C.3       6 GLY6        0.0000 
     46 CA        -37.4900  -94.4700  -70.3200 C.3       6 GLY6        0.0000 
     47 CA        -38.5100  -93.5100  -69.7800 C.3       6 GLY6        0.0000 
     48 CA        -35.9700  -93.0400  -70.0000 C.3       6 GLY6        0.0000 
     49 CA        -34.0300  -93.6600  -69.4000 C.3       6 GLY6        0.0000 
     50 CA        -35.0500  -92.7000  -68.8600 C.3       6 GLY6        0.0000 
     51 CA        -30.5700  -92.8500  -68.4800 C.3       6 GLY6        0.0000 
     52 CA        -31.1700  -93.9500  -67.6700 C.3       6 GLY6        0.0000 
     53 DU        -35.2600  -93.2300  -72.4900 H         7 CUB7        0.0000 
     54 DU        -36.2800  -92.2700  -71.9500 H         7 CUB7        0.0000 
     55 DU        -35.1600  -88.7700  -71.9100 H         7 CUB7        0.0000 
     56 DU        -33.7300  -91.7900  -72.1700 H         7 CUB7        0.0000 
     57 DU        -35.7700  -89.8700  -71.0900 H         7 CUB7        0.0000 
     58 DU        -34.3400  -92.8900  -71.3500 H         7 CUB7        0.0000 
     59 DU        -35.3600  -91.9300  -70.8100 H         7 CUB7        0.0000 
     60 DU        -32.6200  -88.2900  -72.1300 H         7 CUB7        0.0000 
     61 DU        -33.2200  -89.3900  -71.3100 H         7 CUB7        0.0000 
     62 DU        -32.3100  -89.0600  -70.1700 H         7 CUB7        0.0000 
     63 DU        -33.3200  -88.1000  -69.6300 H         7 CUB7        0.0000 
@<TRIPOS>BOND
@<TRIPOS>SUBSTRUCTURE
     1 SER1        1 GROUP   
     2 ALA2        3 GROUP   
     3 ASP3       30 GROUP   
     4 LYS4       38 GROUP   
     5 PHE5       41 GROUP   
     6 GLY6       43 GROUP   
     7 CUB7       53 GROUP   
@<TRIPOS>SET

