#    Name: 6okv_5_ANP
#    Modification time : Fri May 22 19:35:31 2020

@<TRIPOS>MOLECULE
6okv_5_ANP
   31    33     1     0     1
SMALL
NO_CHARGES


@<TRIPOS>ATOM
      1 PG        -31.8110  -84.0410  -28.7090 P.3       1 ANP402      0.0000 
      2 O1G       -32.0900  -83.0240  -29.7910 O.co2     1 ANP402      0.0000 
      3 O2G       -30.9850  -83.3490  -27.6720 O.co2     1 ANP402      0.0000 
      4 O3G       -31.0630  -85.2060  -29.2780 O.co2     1 ANP402      0.0000 
      5 PB        -33.5280  -85.2310  -26.4590 P.3       1 ANP402      0.0000 
      6 O1B       -33.1410  -86.7120  -26.4480 O.co2     1 ANP402      0.0000 
      7 O2B       -32.6270  -84.4880  -25.4880 O.co2     1 ANP402      0.0000 
      8 N3B       -33.3480  -84.5700  -28.0300 N.3       1 ANP402      0.0000 
      9 PA        -35.6980  -84.0460  -24.9940 P.3       1 ANP402      0.0000 
     10 O1A       -34.8510  -82.8120  -24.9900 O.co2     1 ANP402      0.0000 
     11 O2A       -35.6870  -84.6190  -23.6630 O.co2     1 ANP402      0.0000 
     12 O3A       -35.1220  -85.1190  -25.9840 O.3       1 ANP402      0.0000 
     13 O5'       -37.3190  -83.6480  -25.4020 O.3       1 ANP402      0.0000 
     14 C5'       -38.2930  -84.6430  -25.2970 C.3       1 ANP402      0.0000 
     15 C4'       -39.6370  -83.9610  -25.0460 C.3       1 ANP402      0.0000 
     16 O4'       -40.6640  -84.9730  -24.3530 O.3       1 ANP402      0.0000 
     17 C3'       -39.4500  -82.9240  -24.2270 C.3       1 ANP402      0.0000 
     18 O3'       -40.2280  -81.7380  -24.7030 O.3       1 ANP402      0.0000 
     19 C2'       -39.9410  -83.3550  -22.8610 C.3       1 ANP402      0.0000 
     20 O2'       -40.7660  -82.3940  -22.3200 O.3       1 ANP402      0.0000 
     21 C1'       -40.7490  -84.6700  -23.0850 C.3       1 ANP402      0.0000 
     22 N9        -40.1410  -85.7160  -22.2860 N.pl3     1 ANP402      0.0000 
     23 C8        -38.8860  -86.0600  -21.9550 C.2       1 ANP402      0.0000 
     24 N7        -38.9950  -87.1500  -21.1560 N.2       1 ANP402      0.0000 
     25 C5        -40.3120  -87.4530  -21.0070 C.ar      1 ANP402      0.0000 
     26 C6        -40.9500  -88.4530  -20.3040 C.ar      1 ANP402      0.0000 
     27 N6        -40.2510  -89.4950  -19.4910 N.pl3     1 ANP402      0.0000 
     28 N1        -42.2940  -88.5410  -20.3130 N.ar      1 ANP402      0.0000 
     29 C2        -43.0170  -87.6520  -21.0110 C.ar      1 ANP402      0.0000 
     30 N3        -42.3890  -86.6430  -21.7220 N.ar      1 ANP402      0.0000 
     31 C4        -41.0420  -86.5580  -21.7100 C.ar      1 ANP402      0.0000 
@<TRIPOS>BOND
     1    1    2 ar   
     2    1    3 ar   
     3    1    4 ar   
     4    1    8 1    
     5    5    6 ar   
     6    5    7 ar   
     7    5    8 1    
     8    5   12 1    
     9    9   10 ar   
    10    9   11 ar   
    11    9   12 1    
    12    9   13 1    
    13   13   14 1    
    14   14   15 1    
    15   15   16 1    
    16   15   17 1    
    17   16   21 1    
    18   17   18 1    
    19   17   19 1    
    20   19   20 1    
    21   19   21 1    
    22   21   22 1    
    23   22   23 1    
    24   22   31 1    
    25   23   24 2    
    26   24   25 1    
    27   25   26 ar   
    28   25   31 ar   
    29   26   27 1    
    30   26   28 ar   
    31   28   29 ar   
    32   29   30 ar   
    33   30   31 ar   
@<TRIPOS>SUBSTRUCTURE
     1 ANP402      1 GROUP   
@<TRIPOS>SET
ATOM$ORANGE STATIC     ATOMS   COLORGROUP SYSTEM 
20 14 14 15 15 17 17 19 19 21 21 23 23 25 25 26 26 29 \
29 31 31 

