#    Name: 6okv_3_ADP_CAVITY_N1_4
#    Modification time : Fri May 22 19:35:16 2020

@<TRIPOS>MOLECULE
6okv_3_ADP_CAVITY_N1_4
   97     0     7     0     0
SMALL
NO_CHARGES


@<TRIPOS>ATOM
      1 OG         24.0900  -86.2800  -35.4400 O.3       1 SER1        0.0000 
      2 OG         23.9900  -84.9800  -33.7700 O.3       1 SER1        0.0000 
      3 OG         24.4000  -87.0400  -33.4900 O.3       1 SER1        0.0000 
      4 OG         25.3200  -86.7100  -32.3500 O.3       1 SER1        0.0000 
      5 OG         24.3000  -85.7500  -31.8200 O.3       1 SER1        0.0000 
      6 OG         26.2400  -86.3700  -31.2200 O.3       1 SER1        0.0000 
      7 OG         29.1900  -87.9600  -31.1600 O.3       1 SER1        0.0000 
      8 OG         29.7000  -85.5600  -30.3000 O.3       1 SER1        0.0000 
      9 OG         29.1000  -86.6600  -29.4800 O.3       1 SER1        0.0000 
     10 OG         31.2300  -84.1200  -29.9800 O.3       1 SER1        0.0000 
     11 OG         31.6400  -86.1900  -29.7000 O.3       1 SER1        0.0000 
     12 OG         30.6200  -85.2300  -29.1600 O.3       1 SER1        0.0000 
     13 OG         31.0300  -87.2900  -28.8800 O.3       1 SER1        0.0000 
     14 OG         30.4200  -88.3900  -28.0700 O.3       1 SER1        0.0000 
     15 OG         32.1500  -83.7900  -28.8400 O.3       1 SER1        0.0000 
     16 OG         32.5600  -85.8500  -28.5600 O.3       1 SER1        0.0000 
     17 OG         31.5400  -84.8900  -28.0200 O.3       1 SER1        0.0000 
     18 OG         32.9700  -87.9100  -28.2900 O.3       1 SER1        0.0000 
     19 OG         31.9500  -86.9500  -27.7500 O.3       1 SER1        0.0000 
     20 OG         34.5000  -86.4800  -27.9700 O.3       1 SER1        0.0000 
     21 OG         33.4800  -85.5200  -27.4300 O.3       1 SER1        0.0000 
     22 O          27.2600  -87.3300  -31.7600 O.2       2 ALA2        0.0000 
     23 O          26.6500  -88.4400  -30.9400 O.2       2 ALA2        0.0000 
     24 O          25.6300  -87.4700  -30.4000 O.2       2 ALA2        0.0000 
     25 O          24.6100  -86.5100  -29.8600 O.2       2 ALA2        0.0000 
     26 O          27.5700  -88.1000  -29.8000 O.2       2 ALA2        0.0000 
     27 N          27.7800  -87.5700  -26.1700 N.am      2 ALA2        0.0000 
     28 N          30.5200  -83.9300  -27.4900 N.am      2 ALA2        0.0000 
     29 N          32.4600  -84.5600  -26.8900 N.am      2 ALA2        0.0000 
     30 N          31.4400  -83.5900  -26.3500 N.am      2 ALA2        0.0000 
     31 N          30.8300  -84.7000  -25.5300 N.am      2 ALA2        0.0000 
     32 N          33.3800  -84.2200  -25.7500 N.am      2 ALA2        0.0000 
     33 N          31.7500  -84.3600  -24.3900 N.am      2 ALA2        0.0000 
     34 OD1        23.3800  -86.0800  -32.9500 O.co2     3 ASP3        0.0000 
     35 OD1        23.2800  -84.7900  -31.2800 O.co2     3 ASP3        0.0000 
     36 OD1        22.2700  -83.8300  -30.7400 O.co2     3 ASP3        0.0000 
     37 OD1        24.7100  -87.8100  -31.5400 O.co2     3 ASP3        0.0000 
     38 OD1        23.6900  -86.8500  -31.0000 O.co2     3 ASP3        0.0000 
     39 OD1        24.8100  -83.3500  -30.9500 O.co2     3 ASP3        0.0000 
     40 OD1        24.2000  -84.4500  -30.1400 O.co2     3 ASP3        0.0000 
     41 OD1        23.1900  -83.4900  -29.6000 O.co2     3 ASP3        0.0000 
     42 OD1        25.1200  -84.1200  -29.0000 O.co2     3 ASP3        0.0000 
     43 NZ         22.3700  -85.1200  -32.4100 N.4       4 LYS4        0.0000 
     44 NZ         24.9100  -84.6500  -32.6300 N.4       4 LYS4        0.0000 
     45 NZ         23.8900  -83.6800  -32.0900 N.4       4 LYS4        0.0000 
     46 NZ         25.8300  -84.3100  -31.4900 N.4       4 LYS4        0.0000 
     47 NZ         25.2200  -85.4100  -30.6800 N.4       4 LYS4        0.0000 
     48 NZ         27.7700  -84.9400  -30.9000 N.4       4 LYS4        0.0000 
     49 NZ         26.7500  -83.9700  -30.3600 N.4       4 LYS4        0.0000 
     50 NZ         27.1600  -86.0400  -30.0800 N.4       4 LYS4        0.0000 
     51 NZ         29.9000  -82.4000  -31.3900 N.4       4 LYS4        0.0000 
     52 NZ         29.2900  -83.5000  -30.5800 N.4       4 LYS4        0.0000 
     53 NZ         28.2800  -82.5400  -30.0400 N.4       4 LYS4        0.0000 
     54 NZ         28.6900  -84.6000  -29.7600 N.4       4 LYS4        0.0000 
     55 CZ         30.3100  -84.4600  -31.1100 C.ar      5 PHE5        0.0000 
     56 CA         23.4800  -87.3800  -34.6300 C.3       6 GLY6        0.0000 
     57 CA         22.4600  -86.4200  -34.0900 C.3       6 GLY6        0.0000 
     58 CA         21.7600  -86.2200  -31.6000 C.3       6 GLY6        0.0000 
     59 CA         22.6800  -85.8900  -30.4600 C.3       6 GLY6        0.0000 
     60 CA         23.6000  -85.5500  -29.3200 C.3       6 GLY6        0.0000 
     61 CA         28.7800  -85.9000  -31.4400 C.3       6 GLY6        0.0000 
     62 CA         28.1800  -87.0000  -30.6200 C.3       6 GLY6        0.0000 
     63 CA         26.5500  -87.1400  -29.2600 C.3       6 GLY6        0.0000 
     64 CA         25.5300  -86.1800  -28.7200 C.3       6 GLY6        0.0000 
     65 CA         24.5100  -85.2200  -28.1900 C.3       6 GLY6        0.0000 
     66 CA         27.6700  -83.6400  -29.2200 C.3       6 GLY6        0.0000 
     67 CA         29.5100  -88.7300  -29.2100 C.3       6 GLY6        0.0000 
     68 CA         28.4900  -87.7700  -28.6700 C.3       6 GLY6        0.0000 
     69 CA         27.4700  -86.8000  -28.1300 C.3       6 GLY6        0.0000 
     70 CA         26.4500  -85.8400  -27.5900 C.3       6 GLY6        0.0000 
     71 CA         30.2100  -83.1600  -29.4400 C.3       6 GLY6        0.0000 
     72 CA         28.5900  -83.3000  -28.0800 C.3       6 GLY6        0.0000 
     73 CA         27.9800  -84.4100  -27.2700 C.3       6 GLY6        0.0000 
     74 CA         27.3700  -85.5100  -26.4500 C.3       6 GLY6        0.0000 
     75 CA         29.8200  -89.4900  -27.2500 C.3       6 GLY6        0.0000 
     76 CA         26.7600  -86.6100  -25.6300 C.3       6 GLY6        0.0000 
     77 CA         28.9000  -84.0700  -26.1300 C.3       6 GLY6        0.0000 
     78 CA         28.2900  -85.1700  -25.3100 C.3       6 GLY6        0.0000 
     79 CA         29.8200  -83.7400  -24.9900 C.3       6 GLY6        0.0000 
     80 CA         29.2100  -84.8400  -24.1800 C.3       6 GLY6        0.0000 
     81 CA         34.4000  -85.1800  -26.2900 C.3       6 GLY6        0.0000 
     82 DU         26.1400  -85.0800  -29.5400 H         7 CUB7        0.0000 
     83 DU         28.0800  -85.7000  -28.9400 H         7 CUB7        0.0000 
     84 DU         27.0600  -84.7400  -28.4000 H         7 CUB7        0.0000 
     85 DU         29.6000  -84.2600  -28.6200 H         7 CUB7        0.0000 
     86 DU         30.0100  -86.3300  -28.3500 H         7 CUB7        0.0000 
     87 DU         29.0000  -85.3700  -27.8100 H         7 CUB7        0.0000 
     88 DU         29.4100  -87.4300  -27.5300 H         7 CUB7        0.0000 
     89 DU         28.3900  -86.4700  -26.9900 H         7 CUB7        0.0000 
     90 DU         30.9300  -85.9900  -27.2100 H         7 CUB7        0.0000 
     91 DU         29.9200  -85.0300  -26.6700 H         7 CUB7        0.0000 
     92 DU         29.3100  -86.1300  -25.8500 H         7 CUB7        0.0000 
     93 DU         28.7000  -87.2400  -25.0400 H         7 CUB7        0.0000 
     94 DU         27.6800  -86.2700  -24.5000 H         7 CUB7        0.0000 
     95 DU         32.8700  -86.6200  -26.6100 H         7 CUB7        0.0000 
     96 DU         31.8500  -85.6600  -26.0700 H         7 CUB7        0.0000 
     97 DU         30.2300  -85.8000  -24.7200 H         7 CUB7        0.0000 
@<TRIPOS>BOND
@<TRIPOS>SUBSTRUCTURE
     1 SER1        1 GROUP   
     2 ALA2       22 GROUP   
     3 ASP3       34 GROUP   
     4 LYS4       43 GROUP   
     5 PHE5       55 GROUP   
     6 GLY6       56 GROUP   
     7 CUB7       82 GROUP   
@<TRIPOS>SET

