#    Name: 6okv_4_ANP
#    Modification time : Fri May 22 19:35:23 2020

@<TRIPOS>MOLECULE
6okv_4_ANP
   31    33     1     0     1
SMALL
NO_CHARGES


@<TRIPOS>ATOM
      1 PG         -3.5200  -84.1260  -10.9140 P.3       1 ANP402      0.0000 
      2 O1G        -4.5170  -83.0520  -11.2790 O.co2     1 ANP402      0.0000 
      3 O2G        -2.1460  -83.5720  -11.1130 O.co2     1 ANP402      0.0000 
      4 O3G        -3.7140  -85.3260  -11.7850 O.co2     1 ANP402      0.0000 
      5 PB         -2.5160  -85.2950   -8.2860 P.3       1 ANP402      0.0000 
      6 O1B        -2.4670  -86.8000   -8.5640 O.co2     1 ANP402      0.0000 
      7 O2B        -1.1600  -84.7000   -8.6330 O.co2     1 ANP402      0.0000 
      8 N3B        -3.7410  -84.5500   -9.2230 N.3       1 ANP402      0.0000 
      9 PA         -2.1680  -84.0290   -5.7310 P.3       1 ANP402      0.0000 
     10 O1A        -1.6410  -82.8660   -6.5150 O.co2     1 ANP402      0.0000 
     11 O2A        -1.0570  -84.6840   -5.0660 O.co2     1 ANP402      0.0000 
     12 O3A        -2.8540  -85.0810   -6.6700 O.3       1 ANP402      0.0000 
     13 O5'        -3.2790  -83.4810   -4.5390 O.3       1 ANP402      0.0000 
     14 C5'        -3.7640  -84.3970   -3.6020 C.3       1 ANP402      0.0000 
     15 C4'        -4.0840  -83.6320   -2.3180 C.3       1 ANP402      0.0000 
     16 O4'        -4.0700  -84.6110   -1.0520 O.3       1 ANP402      0.0000 
     17 C3'        -3.1500  -82.6960   -2.1370 C.3       1 ANP402      0.0000 
     18 O3'        -3.7670  -81.3920   -1.7340 O.3       1 ANP402      0.0000 
     19 C2'        -2.2320  -83.2090   -1.0470 C.3       1 ANP402      0.0000 
     20 O2'        -2.0210  -82.2320   -0.1020 O.3       1 ANP402      0.0000 
     21 C1'        -2.9650  -84.4140   -0.3820 C.3       1 ANP402      0.0000 
     22 N9         -2.1100  -85.5840   -0.4800 N.pl3     1 ANP402      0.0000 
     23 C8         -1.2640  -86.0790   -1.3990 C.2       1 ANP402      0.0000 
     24 N7         -0.7620  -87.2240   -0.8720 N.2       1 ANP402      0.0000 
     25 C5         -1.3030  -87.4120    0.3600 C.ar      1 ANP402      0.0000 
     26 C6         -1.1240  -88.4080    1.2960 C.ar      1 ANP402      0.0000 
     27 N6         -0.2170  -89.5860    1.1270 N.pl3     1 ANP402      0.0000 
     28 N1         -1.7900  -88.3640    2.4650 N.ar      1 ANP402      0.0000 
     29 C2         -2.6290  -87.3490    2.7200 C.ar      1 ANP402      0.0000 
     30 N3         -2.8180  -86.3420    1.7880 N.ar      1 ANP402      0.0000 
     31 C4         -2.1490  -86.3870    0.6180 C.ar      1 ANP402      0.0000 
@<TRIPOS>BOND
     1    5    6 ar   
     2    5    7 ar   
     3    5    8 1    
     4    5   12 1    
     5    9   10 ar   
     6    9   11 ar   
     7    9   12 1    
     8    9   13 1    
     9   13   14 1    
    10   14   15 1    
    11   15   16 1    
    12   15   17 1    
    13   16   21 1    
    14   17   18 1    
    15   17   19 1    
    16   19   20 1    
    17   19   21 1    
    18   21   22 1    
    19   22   23 1    
    20   22   31 1    
    21   23   24 2    
    22   24   25 1    
    23   25   26 ar   
    24   25   31 ar   
    25   26   27 1    
    26   26   28 ar   
    27   28   29 ar   
    28   29   30 ar   
    29   30   31 ar   
    30    1    2 ar   
    31    1    3 ar   
    32    1    4 ar   
    33    1    8 1    
@<TRIPOS>SUBSTRUCTURE
     1 ANP402      1 GROUP   
@<TRIPOS>SET
ATOM$ORANGE STATIC     ATOMS   COLORGROUP SYSTEM 
20 14 14 15 15 17 17 19 19 21 21 23 23 25 25 26 26 29 \
29 31 31 

