#    Name: 6okv_3_ADP
#    Modification time : Fri May 22 19:35:15 2020

@<TRIPOS>MOLECULE
6okv_3_ADP
   27    29     1     0     1
SMALL
NO_CHARGES


@<TRIPOS>ATOM
      1 PB         25.5320  -87.6720  -31.0550 P.3       1 ADP401      0.0000 
      2 O1B        25.9050  -86.6490  -32.1560 O.co2     1 ADP401      0.0000 
      3 O2B        25.2620  -89.0340  -31.7090 O.co2     1 ADP401      0.0000 
      4 O3B        24.2770  -87.1970  -30.3580 O.co2     1 ADP401      0.0000 
      5 PA         28.2990  -87.2230  -30.0590 P.3       1 ADP401      0.0000 
      6 O1A        29.1530  -88.1250  -30.9620 O.co2     1 ADP401      0.0000 
      7 O2A        28.2800  -85.8340  -30.6660 O.co2     1 ADP401      0.0000 
      8 O3A        26.7460  -87.8240  -29.9410 O.3       1 ADP401      0.0000 
      9 O5'        29.0200  -87.1790  -28.5590 O.3       1 ADP401      0.0000 
     10 C5'        29.3490  -88.4480  -27.9580 C.3       1 ADP401      0.0000 
     11 C4'        30.2540  -88.2300  -26.7490 C.3       1 ADP401      0.0000 
     12 O4'        30.8640  -89.3580  -26.4200 O.3       1 ADP401      0.0000 
     13 C3'        31.4130  -87.2750  -27.1350 C.3       1 ADP401      0.0000 
     14 O3'        31.9510  -86.7320  -26.0090 O.3       1 ADP401      0.0000 
     15 C2'        32.4350  -88.2170  -27.8120 C.3       1 ADP401      0.0000 
     16 O2'        33.7560  -87.6910  -27.6620 O.3       1 ADP401      0.0000 
     17 C1'        32.3170  -89.3680  -27.1540 C.3       1 ADP401      0.0000 
     18 N9         32.4000  -90.4710  -28.0640 N.pl3     1 ADP401      0.0000 
     19 C8         31.8020  -90.5500  -29.2530 C.2       1 ADP401      0.0000 
     20 N7         32.1180  -91.7290  -29.8060 N.2       1 ADP401      0.0000 
     21 C5         32.9210  -92.3930  -28.9490 C.ar      1 ADP401      0.0000 
     22 C6         33.5360  -93.6450  -29.0100 C.ar      1 ADP401      0.0000 
     23 N6         33.5390  -94.7060  -30.0330 N.pl3     1 ADP401      0.0000 
     24 N1         34.2860  -94.0510  -28.0040 N.ar      1 ADP401      0.0000 
     25 C2         34.4600  -93.2490  -26.9060 C.ar      1 ADP401      0.0000 
     26 N3         33.8670  -92.0400  -26.8460 N.ar      1 ADP401      0.0000 
     27 C4         33.0930  -91.6140  -27.8760 C.ar      1 ADP401      0.0000 
@<TRIPOS>BOND
     1    1    2 ar   
     2    1    3 ar   
     3    1    4 ar   
     4    1    8 1    
     5    5    6 ar   
     6    5    7 ar   
     7    5    8 1    
     8    5    9 1    
     9    9   10 1    
    10   10   11 1    
    11   11   12 1    
    12   11   13 1    
    13   12   17 1    
    14   13   14 1    
    15   13   15 1    
    16   15   16 1    
    17   15   17 1    
    18   17   18 1    
    19   18   19 1    
    20   18   27 1    
    21   19   20 2    
    22   20   21 1    
    23   21   22 ar   
    24   21   27 ar   
    25   22   23 1    
    26   22   24 ar   
    27   24   25 ar   
    28   25   26 ar   
    29   26   27 ar   
@<TRIPOS>SUBSTRUCTURE
     1 ADP401      1 GROUP   
@<TRIPOS>SET
ATOM$ORANGE STATIC     ATOMS   COLORGROUP SYSTEM 
20 10 10 11 11 13 13 15 15 17 17 19 19 21 21 22 22 25 \
25 27 27 

