#    Name: 6okv_2_ANP
#    Modification time : Fri May 22 19:35:04 2020

@<TRIPOS>MOLECULE
6okv_2_ANP
   31    33     1     0     1
SMALL
NO_CHARGES


@<TRIPOS>ATOM
      1 PG         23.1710  -84.3790  -64.6050 P.3       1 ANP402      0.0000 
      2 O1G        23.4640  -83.3850  -63.5070 O.co2     1 ANP402      0.0000 
      3 O2G        22.4000  -83.6520  -65.6570 O.co2     1 ANP402      0.0000 
      4 O3G        22.3450  -85.5060  -64.0720 O.co2     1 ANP402      0.0000 
      5 PB         24.8160  -85.6670  -66.8300 P.3       1 ANP402      0.0000 
      6 O1B        24.3600  -87.1270  -66.8140 O.co2     1 ANP402      0.0000 
      7 O2B        23.9370  -84.9050  -67.8070 O.co2     1 ANP402      0.0000 
      8 N3B        24.6910  -84.9680  -65.2700 N.3       1 ANP402      0.0000 
      9 PA         27.0000  -84.5950  -68.3380 P.3       1 ANP402      0.0000 
     10 O1A        26.2010  -83.3260  -68.3320 O.co2     1 ANP402      0.0000 
     11 O2A        26.9390  -85.1780  -69.6650 O.co2     1 ANP402      0.0000 
     12 O3A        26.4000  -85.6420  -67.3370 O.3       1 ANP402      0.0000 
     13 O5'        28.6430  -84.2690  -67.9490 O.3       1 ANP402      0.0000 
     14 C5'        29.5780  -85.3000  -68.0800 C.3       1 ANP402      0.0000 
     15 C4'        30.9350  -84.6660  -68.3830 C.3       1 ANP402      0.0000 
     16 O4'        31.9240  -85.7280  -69.0600 O.3       1 ANP402      0.0000 
     17 C3'        30.7570  -83.6560  -69.2360 C.3       1 ANP402      0.0000 
     18 O3'        31.5450  -82.4580  -68.8050 O.3       1 ANP402      0.0000 
     19 C2'        31.2320  -84.1400  -70.5910 C.3       1 ANP402      0.0000 
     20 O2'        32.0780  -83.2180  -71.1650 O.3       1 ANP402      0.0000 
     21 C1'        32.0110  -85.4680  -70.3380 C.3       1 ANP402      0.0000 
     22 N9         31.3740  -86.5260  -71.1010 N.pl3     1 ANP402      0.0000 
     23 C8         30.1060  -86.8480  -71.4090 C.2       1 ANP402      0.0000 
     24 N7         30.1750  -87.9660  -72.1720 N.2       1 ANP402      0.0000 
     25 C5         31.4810  -88.3100  -72.3240 C.ar      1 ANP402      0.0000 
     26 C6         32.0800  -89.3490  -73.0000 C.ar      1 ANP402      0.0000 
     27 N6         31.3410  -90.3960  -73.7710 N.pl3     1 ANP402      0.0000 
     28 N1         33.4210  -89.4770  -73.0030 N.ar      1 ANP402      0.0000 
     29 C2         34.1790  -88.5890  -72.3430 C.ar      1 ANP402      0.0000 
     30 N3         33.5890  -87.5390  -71.6580 N.ar      1 ANP402      0.0000 
     31 C4         32.2450  -87.4130  -71.6580 C.ar      1 ANP402      0.0000 
@<TRIPOS>BOND
     1    1    2 ar   
     2    1    3 ar   
     3    1    4 ar   
     4    1    8 1    
     5    5    6 ar   
     6    5    7 ar   
     7    5    8 1    
     8    5   12 1    
     9    9   10 ar   
    10    9   11 ar   
    11    9   12 1    
    12    9   13 1    
    13   13   14 1    
    14   14   15 1    
    15   15   16 1    
    16   15   17 1    
    17   16   21 1    
    18   17   18 1    
    19   17   19 1    
    20   19   20 1    
    21   19   21 1    
    22   21   22 1    
    23   22   23 1    
    24   22   31 1    
    25   23   24 2    
    26   24   25 1    
    27   25   26 ar   
    28   25   31 ar   
    29   26   27 1    
    30   26   28 ar   
    31   28   29 ar   
    32   29   30 ar   
    33   30   31 ar   
@<TRIPOS>SUBSTRUCTURE
     1 ANP402      1 GROUP   
@<TRIPOS>SET
ATOM$ORANGE STATIC     ATOMS   COLORGROUP SYSTEM 
20 14 14 15 15 17 17 19 19 21 21 23 23 25 25 26 26 29 \
29 31 31 

