#    Name: 6okv_6_ADP
#    Modification time : Fri May 22 19:35:39 2020

@<TRIPOS>MOLECULE
6okv_6_ADP
   27    29     1     0     1
SMALL
NO_CHARGES


@<TRIPOS>ATOM
      1 PB        -33.4000  -87.9720  -62.2760 P.3       1 ADP401      0.0000 
      2 O1B       -32.1260  -87.4500  -62.9080 O.co2     1 ADP401      0.0000 
      3 O2B       -33.9470  -86.9540  -61.2590 O.co2     1 ADP401      0.0000 
      4 O3B       -33.0380  -89.2980  -61.5750 O.co2     1 ADP401      0.0000 
      5 PA        -36.1250  -87.8350  -63.4350 P.3       1 ADP401      0.0000 
      6 O1A       -36.2040  -86.4280  -62.8780 O.co2     1 ADP401      0.0000 
      7 O2A       -36.9760  -88.7260  -62.5200 O.co2     1 ADP401      0.0000 
      8 O3A       -34.5360  -88.3310  -63.4220 O.3       1 ADP401      0.0000 
      9 O5'       -36.7320  -87.8750  -64.9890 O.3       1 ADP401      0.0000 
     10 C5'       -37.0390  -89.1500  -65.5880 C.3       1 ADP401      0.0000 
     11 C4'       -38.0330  -88.9180  -66.7220 C.3       1 ADP401      0.0000 
     12 O4'       -38.7410  -90.0120  -66.9540 O.3       1 ADP401      0.0000 
     13 C3'       -39.0830  -87.8700  -66.2700 C.3       1 ADP401      0.0000 
     14 O3'       -39.6930  -87.3350  -67.3610 O.3       1 ADP401      0.0000 
     15 C2'       -40.0780  -88.7320  -65.4630 C.3       1 ADP401      0.0000 
     16 O2'       -41.3500  -88.0820  -65.4230 O.3       1 ADP401      0.0000 
     17 C1'       -40.1420  -89.8760  -66.1400 C.3       1 ADP401      0.0000 
     18 N9        -40.2960  -90.9760  -65.2370 N.pl3     1 ADP401      0.0000 
     19 C8        -39.8150  -91.0280  -63.9940 C.2       1 ADP401      0.0000 
     20 N7        -40.1600  -92.2050  -63.4550 N.2       1 ADP401      0.0000 
     21 C5        -40.8620  -92.8960  -64.3770 C.ar      1 ADP401      0.0000 
     22 C6        -41.4560  -94.1600  -64.3610 C.ar      1 ADP401      0.0000 
     23 N6        -41.5340  -95.2030  -63.3240 N.pl3     1 ADP401      0.0000 
     24 N1        -42.0980  -94.6040  -65.4240 N.ar      1 ADP401      0.0000 
     25 C2        -42.1830  -93.8250  -66.5470 C.ar      1 ADP401      0.0000 
     26 N3        -41.6090  -92.6040  -66.5660 N.ar      1 ADP401      0.0000 
     27 C4        -40.9450  -92.1370  -65.4750 C.ar      1 ADP401      0.0000 
@<TRIPOS>BOND
     1    1    2 ar   
     2    1    3 ar   
     3    1    4 ar   
     4    1    8 1    
     5    5    6 ar   
     6    5    7 ar   
     7    5    8 1    
     8    5    9 1    
     9    9   10 1    
    10   10   11 1    
    11   11   12 1    
    12   11   13 1    
    13   12   17 1    
    14   13   14 1    
    15   13   15 1    
    16   15   16 1    
    17   15   17 1    
    18   17   18 1    
    19   18   19 1    
    20   18   27 1    
    21   19   20 2    
    22   20   21 1    
    23   21   22 ar   
    24   21   27 ar   
    25   22   23 1    
    26   22   24 ar   
    27   24   25 ar   
    28   25   26 ar   
    29   26   27 ar   
@<TRIPOS>SUBSTRUCTURE
     1 ADP401      1 GROUP   
@<TRIPOS>SET
ATOM$ORANGE STATIC     ATOMS   COLORGROUP SYSTEM 
20 10 10 11 11 13 13 15 15 17 17 19 19 21 21 22 22 25 \
25 27 27 

