#    Name: 5ycb_1_AP5
#    Modification time : Fri May 22 19:17:28 2020

@<TRIPOS>MOLECULE
5ycb_1_AP5
   57    62     1     0     0
SMALL
NO_CHARGES


@<TRIPOS>ATOM
      1 PA        -28.6000  -13.7920  -26.6450 P.3       1 AP5201      0.0000 
      2 O1A       -27.3840  -13.2420  -27.3770 O.co2     1 AP5201      0.0000 
      3 O2A       -28.8030  -13.1130  -25.3110 O.co2     1 AP5201      0.0000 
      4 O3A       -29.7090  -13.5390  -27.7070 O.3       1 AP5201      0.0000 
      5 PB        -31.2400  -13.3290  -27.4790 P.3       1 AP5201      0.0000 
      6 O1B       -31.6310  -13.4310  -26.0150 O.co2     1 AP5201      0.0000 
      7 O2B       -31.9550  -14.4180  -28.2580 O.co2     1 AP5201      0.0000 
      8 O3B       -31.6510  -11.8810  -27.9450 O.3       1 AP5201      0.0000 
      9 PG        -31.2200  -11.2080  -29.2830 P.3       1 AP5201      0.0000 
     10 O1G       -29.8030  -10.6960  -29.2360 O.co2     1 AP5201      0.0000 
     11 O2G       -31.4660  -12.1850  -30.4030 O.co2     1 AP5201      0.0000 
     12 O3G       -32.1250   -9.9490  -29.4460 O.3       1 AP5201      0.0000 
     13 PD        -32.2930   -8.7850  -28.4410 P.3       1 AP5201      0.0000 
     14 O1D       -33.3150   -9.1400  -27.3880 O.co2     1 AP5201      0.0000 
     15 O2D       -31.0400   -8.3350  -27.7670 O.co2     1 AP5201      0.0000 
     16 O3D       -32.8250   -7.5990  -29.3360 O.3       1 AP5201      0.0000 
     17 PE        -31.9080   -6.7440  -30.3220 P.3       1 AP5201      0.0000 
     18 O1E       -31.5780   -5.4440  -29.6320 O.co2     1 AP5201      0.0000 
     19 O2E       -30.6370   -7.4320  -30.7270 O.co2     1 AP5201      0.0000 
     20 O5F       -28.5290  -15.4080  -26.3820 O.3       1 AP5201      0.0000 
     21 C5F       -28.3590  -16.2180  -27.5510 C.3       1 AP5201      0.0000 
     22 C4F       -28.1280  -17.6540  -27.0310 C.3       1 AP5201      0.0000 
     23 O4F       -27.1290  -17.6800  -26.1850 O.3       1 AP5201      0.0000 
     24 C3F       -29.3370  -18.0250  -26.2090 C.3       1 AP5201      0.0000 
     25 O3F       -30.3060  -18.4710  -27.0560 O.3       1 AP5201      0.0000 
     26 C2F       -28.7200  -19.1140  -25.2960 C.3       1 AP5201      0.0000 
     27 O2F       -28.6650  -20.3890  -26.0660 O.3       1 AP5201      0.0000 
     28 C1F       -27.5190  -18.6700  -24.9830 C.3       1 AP5201      0.0000 
     29 N9A       -27.5790  -17.9090  -23.7630 N.pl3     1 AP5201      0.0000 
     30 C8A       -27.4370  -16.5560  -23.7720 C.2       1 AP5201      0.0000 
     31 N7A       -27.5680  -16.0930  -22.5150 N.2       1 AP5201      0.0000 
     32 C5A       -27.7910  -17.1750  -21.7140 C.ar      1 AP5201      0.0000 
     33 C6A       -28.0040  -17.3020  -20.3510 C.ar      1 AP5201      0.0000 
     34 N6A       -28.0520  -16.3010  -19.3190 N.pl3     1 AP5201      0.0000 
     35 N1A       -28.2000  -18.5130  -19.7930 N.ar      1 AP5201      0.0000 
     36 C2A       -28.2000  -19.6260  -20.5710 C.ar      1 AP5201      0.0000 
     37 N3A       -27.9960  -19.5050  -21.9140 N.ar      1 AP5201      0.0000 
     38 C4A       -27.7980  -18.2850  -22.4830 C.ar      1 AP5201      0.0000 
     39 O5J       -32.7700   -6.4630  -31.6010 O.3       1 AP5201      0.0000 
     40 C5J       -33.5180   -7.4970  -32.2300 C.3       1 AP5201      0.0000 
     41 C4J       -33.9480   -6.9750  -33.6410 C.3       1 AP5201      0.0000 
     42 O4J       -35.0150   -6.2400  -33.5620 O.3       1 AP5201      0.0000 
     43 C3J       -32.8670   -6.0620  -34.2220 C.3       1 AP5201      0.0000 
     44 O3J       -32.8540   -6.1290  -35.5740 O.3       1 AP5201      0.0000 
     45 C2J       -33.3170   -4.6590  -33.7620 C.3       1 AP5201      0.0000 
     46 O2J       -32.6500   -3.6400  -34.6330 O.3       1 AP5201      0.0000 
     47 C1J       -34.6020   -4.6910  -33.8240 C.3       1 AP5201      0.0000 
     48 N9B       -35.2140   -3.9040  -32.7900 N.pl3     1 AP5201      0.0000 
     49 C8B       -34.8630   -3.7410  -31.4870 C.2       1 AP5201      0.0000 
     50 N7B       -35.7510   -2.9030  -30.8960 N.2       1 AP5201      0.0000 
     51 C5B       -36.6730   -2.5410  -31.8360 C.ar      1 AP5201      0.0000 
     52 C6B       -37.7890   -1.7060  -31.7770 C.ar      1 AP5201      0.0000 
     53 N6B       -38.3430   -0.9700  -30.7480 N.pl3     1 AP5201      0.0000 
     54 N1B       -38.5300   -1.5250  -32.8810 N.ar      1 AP5201      0.0000 
     55 C2B       -38.1960   -2.1520  -34.0520 C.ar      1 AP5201      0.0000 
     56 N3B       -37.1010   -2.9680  -34.1090 N.ar      1 AP5201      0.0000 
     57 C4B       -36.3400   -3.1610  -33.0020 C.ar      1 AP5201      0.0000 
@<TRIPOS>BOND
     1    1    2 ar   
     2    1    3 ar   
     3    1    4 1    
     4    1   20 1    
     5    4    5 1    
     6    5    6 ar   
     7    5    7 ar   
     8    5    8 1    
     9    8    9 1    
    10    9   10 ar   
    11    9   11 ar   
    12    9   12 1    
    13   12   13 1    
    14   13   14 ar   
    15   13   15 ar   
    16   13   16 1    
    17   16   17 1    
    18   17   18 ar   
    19   17   19 ar   
    20   17   39 1    
    21   20   21 1    
    22   21   22 1    
    23   22   23 1    
    24   22   24 1    
    25   23   28 1    
    26   24   25 1    
    27   24   26 1    
    28   26   27 1    
    29   26   28 1    
    30   28   29 1    
    31   29   30 1    
    32   29   38 1    
    33   30   31 2    
    34   31   32 1    
    35   32   33 ar   
    36   32   38 ar   
    37   33   34 1    
    38   33   35 ar   
    39   35   36 ar   
    40   36   37 ar   
    41   37   38 ar   
    42   39   40 1    
    43   40   41 1    
    44   41   42 1    
    45   41   43 1    
    46   42   47 1    
    47   43   44 1    
    48   43   45 1    
    49   45   46 1    
    50   45   47 1    
    51   47   48 1    
    52   48   49 1    
    53   48   57 1    
    54   49   50 2    
    55   50   51 1    
    56   51   52 ar   
    57   51   57 ar   
    58   52   53 1    
    59   52   54 ar   
    60   54   55 ar   
    61   55   56 ar   
    62   56   57 ar   
@<TRIPOS>SUBSTRUCTURE
     1 AP5201      1 GROUP   
@<TRIPOS>SET

