#    Name: 5ycb_1_AP5_CAVITY_N1_4
#    Modification time : Fri May 22 19:17:30 2020

@<TRIPOS>MOLECULE
5ycb_1_AP5_CAVITY_N1_4
   68     0     6     0     0
SMALL
NO_CHARGES


@<TRIPOS>ATOM
      1 OG        -32.7100   -6.6000  -32.0900 O.3       1 SER1        0.0000 
      2 OG        -33.3100   -5.2500  -32.3600 O.3       1 SER1        0.0000 
      3 OG        -33.9000   -3.9000  -32.6200 O.3       1 SER1        0.0000 
      4 OG        -31.6700   -5.9700  -31.2100 O.3       1 SER1        0.0000 
      5 OG        -27.5100  -11.6200  -26.9500 O.3       1 SER1        0.0000 
      6 OG        -28.1000  -10.2700  -27.2100 O.3       1 SER1        0.0000 
      7 OG        -26.1600   -9.4800  -27.5200 O.3       1 SER1        0.0000 
      8 OG        -27.0600   -9.6400  -26.3400 O.3       1 SER1        0.0000 
      9 N         -34.6500   -7.4000  -31.7800 N.am      2 ALA2        0.0000 
     10 N         -35.2500   -6.0400  -32.0400 N.am      2 ALA2        0.0000 
     11 O         -32.1300  -12.3300  -28.6500 O.2       2 ALA2        0.0000 
     12 O         -32.2800   -9.0000  -28.3100 O.2       2 ALA2        0.0000 
     13 O         -32.8700   -7.6500  -28.5700 O.2       2 ALA2        0.0000 
     14 O         -30.3400   -8.2000  -28.6200 O.2       2 ALA2        0.0000 
     15 O         -30.9300   -6.8500  -28.8800 O.2       2 ALA2        0.0000 
     16 O         -31.2400   -8.3700  -27.4300 O.2       2 ALA2        0.0000 
     17 OD1       -33.1600   -8.5800  -32.7000 O.co2     3 ASP3        0.0000 
     18 OD1       -31.2100   -7.7900  -33.0100 O.co2     3 ASP3        0.0000 
     19 OD1       -32.1100   -7.9500  -31.8200 O.co2     3 ASP3        0.0000 
     20 OD1       -31.2300  -12.1700  -29.8400 O.co2     3 ASP3        0.0000 
     21 OD1       -31.8200  -10.8200  -30.1000 O.co2     3 ASP3        0.0000 
     22 OD1       -32.4200   -9.4700  -30.3700 O.co2     3 ASP3        0.0000 
     23 OD1       -31.5300  -13.6800  -28.3800 O.co2     3 ASP3        0.0000 
     24 OD1       -31.0700   -7.3200  -30.9500 O.co2     3 ASP3        0.0000 
     25 OD1       -29.5900  -12.8900  -28.7000 O.co2     3 ASP3        0.0000 
     26 OD1       -30.1900  -11.5400  -28.9600 O.co2     3 ASP3        0.0000 
     27 OD1       -30.7800  -10.1800  -29.2300 O.co2     3 ASP3        0.0000 
     28 OD1       -31.3800   -8.8300  -29.4900 O.co2     3 ASP3        0.0000 
     29 OD1       -30.4900  -13.0500  -27.5100 O.co2     3 ASP3        0.0000 
     30 OD1       -31.0900  -11.7000  -27.7700 O.co2     3 ASP3        0.0000 
     31 OD1       -31.6800  -10.3500  -28.0400 O.co2     3 ASP3        0.0000 
     32 OD1       -27.9400   -9.2300  -30.7300 O.co2     3 ASP3        0.0000 
     33 OD1       -28.5400   -7.8800  -31.0000 O.co2     3 ASP3        0.0000 
     34 OD1       -28.2400  -10.7400  -29.2800 O.co2     3 ASP3        0.0000 
     35 OD1       -28.8400   -9.3900  -29.5400 O.co2     3 ASP3        0.0000 
     36 OD1       -29.4400   -8.0400  -29.8100 O.co2     3 ASP3        0.0000 
     37 OD1       -28.5500  -12.2500  -27.8200 O.co2     3 ASP3        0.0000 
     38 OD1       -29.1400  -10.9000  -28.0900 O.co2     3 ASP3        0.0000 
     39 OD1       -29.4500  -12.4200  -26.6300 O.co2     3 ASP3        0.0000 
     40 OD1       -26.3000   -9.9400  -29.5900 O.co2     3 ASP3        0.0000 
     41 OD1       -27.2000  -10.1100  -28.4000 O.co2     3 ASP3        0.0000 
     42 NZ        -29.0000  -10.4400  -26.0200 N.4       4 LYS4        0.0000 
     43 NZ        -29.6000   -9.0800  -26.2900 N.4       4 LYS4        0.0000 
     44 NZ        -27.6600   -8.2900  -26.6000 N.4       4 LYS4        0.0000 
     45 CA        -34.7900   -7.8600  -33.8400 C.3       5 GLY6        0.0000 
     46 CA        -35.3900   -6.5100  -34.1100 C.3       5 GLY6        0.0000 
     47 CA        -32.2600   -8.4200  -33.8900 C.3       5 GLY6        0.0000 
     48 CA        -32.8500   -7.0700  -34.1500 C.3       5 GLY6        0.0000 
     49 CA        -33.0200   -8.1100  -30.6400 C.3       5 GLY6        0.0000 
     50 CA        -33.6100   -6.7600  -30.9000 C.3       5 GLY6        0.0000 
     51 CA        -34.2100   -5.4100  -31.1700 C.3       5 GLY6        0.0000 
     52 CA        -33.9200   -8.2800  -29.4500 C.3       5 GLY6        0.0000 
     53 CA        -31.9700   -7.4800  -29.7600 C.3       5 GLY6        0.0000 
     54 CA        -32.5700   -6.1300  -30.0300 C.3       5 GLY6        0.0000 
     55 CA        -30.0300   -6.6900  -30.0700 C.3       5 GLY6        0.0000 
     56 CA        -30.0500  -11.0700  -26.9000 C.3       5 GLY6        0.0000 
     57 CA        -30.6400   -9.7200  -27.1600 C.3       5 GLY6        0.0000 
     58 CA        -28.0900   -5.8900  -30.3900 C.3       5 GLY6        0.0000 
     59 CA        -28.4000   -7.4100  -28.9300 C.3       5 GLY6        0.0000 
     60 CA        -28.7000   -8.9200  -27.4800 C.3       5 GLY6        0.0000 
     61 DU        -33.4500   -5.7200  -34.4200 H         6 CUB7        0.0000 
     62 DU        -33.7500   -7.2300  -32.9700 H         6 CUB7        0.0000 
     63 DU        -34.3500   -5.8800  -33.2300 H         6 CUB7        0.0000 
     64 DU        -31.8100   -6.4400  -33.2800 H         6 CUB7        0.0000 
     65 DU        -29.7400   -9.5500  -28.3500 H         6 CUB7        0.0000 
     66 DU        -26.9000   -8.5900  -29.8500 H         6 CUB7        0.0000 
     67 DU        -27.4900   -7.2400  -30.1200 H         6 CUB7        0.0000 
     68 DU        -27.8000   -8.7600  -28.6700 H         6 CUB7        0.0000 
@<TRIPOS>BOND
@<TRIPOS>SUBSTRUCTURE
     1 SER1        1 GROUP   
     2 ALA2        9 GROUP   
     3 ASP3       17 GROUP   
     4 LYS4       42 GROUP   
     5 GLY6       45 GROUP   
     6 CUB7       61 GROUP   
@<TRIPOS>SET

