#    Name: 6pw9_1_ACO
#    Modification time : Fri May 22 19:36:02 2020

@<TRIPOS>MOLECULE
6pw9_1_ACO
   51    53     1     0     1
SMALL
NO_CHARGES


@<TRIPOS>ATOM
      1 N1A       -17.8830  -19.4220    8.5460 N.ar      1 ACO902      0.0000 
      2 C2A       -16.6380  -19.8790    8.8890 C.ar      1 ACO902      0.0000 
      3 N3A       -16.0610  -19.4350   10.0240 N.ar      1 ACO902      0.0000 
      4 C4A       -16.6830  -18.5430   10.8450 C.ar      1 ACO902      0.0000 
      5 C5A       -17.9070  -18.0960   10.4940 C.ar      1 ACO902      0.0000 
      6 C6A       -18.5040  -18.5470    9.3260 C.ar      1 ACO902      0.0000 
      7 N6A       -19.7760  -18.2920    8.6500 N.pl3     1 ACO902      0.0000 
      8 N7A       -18.3290  -17.2320   11.4320 N.2       1 ACO902      0.0000 
      9 C8A       -17.3740  -17.1390   12.3660 C.2       1 ACO902      0.0000 
     10 N9A       -16.3500  -17.9450   12.0210 N.pl3     1 ACO902      0.0000 
     11 C1B       -15.1690  -18.0640   12.8210 C.3       1 ACO902      0.0000 
     12 C2B       -14.7710  -19.3260   13.0640 C.3       1 ACO902      0.0000 
     13 O2B       -14.4340  -19.4800   14.4910 O.3       1 ACO902      0.0000 
     14 C3B       -13.4970  -19.4940   12.2070 C.3       1 ACO902      0.0000 
     15 O3B       -12.6970  -20.4060   12.7210 O.3       1 ACO902      0.0000 
     16 P3B       -12.6850  -21.8960   12.0240 P.3       1 ACO902      0.0000 
     17 O7A       -14.0350  -22.2260   11.5230 O.co2     1 ACO902      0.0000 
     18 O8A       -12.2550  -22.9540   13.0830 O.co2     1 ACO902      0.0000 
     19 O9A       -11.6840  -21.9060   10.8340 O.co2     1 ACO902      0.0000 
     20 C4B       -12.8580  -18.0340   12.2670 C.3       1 ACO902      0.0000 
     21 O4B       -13.8900  -17.2550   12.1380 O.3       1 ACO902      0.0000 
     22 C5B       -11.9010  -17.8010   11.1170 C.3       1 ACO902      0.0000 
     23 O5B       -12.3000  -16.6620   10.4210 O.3       1 ACO902      0.0000 
     24 P1A       -11.5570  -15.1910   10.7680 P.3       1 ACO902      0.0000 
     25 O1A       -10.2050  -15.1580   10.1130 O.co2     1 ACO902      0.0000 
     26 O2A       -11.3980  -15.0200   12.2480 O.co2     1 ACO902      0.0000 
     27 O3A       -12.4820  -13.9600   10.1690 O.3       1 ACO902      0.0000 
     28 P2A       -12.6260  -13.6780    8.4750 P.3       1 ACO902      0.0000 
     29 O4A       -11.2420  -13.5260    7.8930 O.co2     1 ACO902      0.0000 
     30 O5A       -13.3020  -14.8720    7.8290 O.co2     1 ACO902      0.0000 
     31 O6A       -13.5400  -12.2620    8.1850 O.3       1 ACO902      0.0000 
     32 CBP       -15.1830  -11.2030    6.8460 C.3       1 ACO902      0.0000 
     33 CCP       -14.8300  -12.3950    7.7230 C.3       1 ACO902      0.0000 
     34 CDP       -16.5920  -11.4590    6.2680 C.3       1 ACO902      0.0000 
     35 CEP       -14.1240  -11.1340    5.6850 C.3       1 ACO902      0.0000 
     36 CAP       -15.1680   -9.9290    7.7450 C.3       1 ACO902      0.0000 
     37 OAP       -13.8710   -9.6300    8.0940 O.3       1 ACO902      0.0000 
     38 C9P       -15.8140   -8.6360    7.1430 C.2       1 ACO902      0.0000 
     39 O9P       -15.7070   -8.3250    5.9820 O.2       1 ACO902      0.0000 
     40 N8P       -16.5560   -7.7440    8.0290 N.am      1 ACO902      0.0000 
     41 C7P       -16.6920   -8.0750    9.4300 C.3       1 ACO902      0.0000 
     42 C6P       -15.9930   -7.0000   10.2670 C.3       1 ACO902      0.0000 
     43 C5P       -16.5360   -5.6000    9.7960 C.2       1 ACO902      0.0000 
     44 O5P       -16.0830   -5.0840    8.8490 O.2       1 ACO902      0.0000 
     45 N4P       -17.6400   -4.9410   10.5640 N.am      1 ACO902      0.0000 
     46 C3P       -18.1530   -3.6320   10.1270 C.3       1 ACO902      0.0000 
     47 C2P       -19.2530   -3.1520   11.1270 C.3       1 ACO902      0.0000 
     48 S1P       -18.8660   -3.8070   12.7800 S.3       1 ACO902      0.0000 
     49 C         -17.2420   -3.2030   13.3130 C.2       1 ACO902      0.0000 
     50 O         -16.4300   -3.9650   13.7260 O.2       1 ACO902      0.0000 
     51 CH3       -16.9240   -1.7250   13.2320 C.3       1 ACO902      0.0000 
@<TRIPOS>BOND
     1    1    2 ar   
     2    1    6 ar   
     3    2    3 ar   
     4    3    4 ar   
     5    4    5 ar   
     6    4   10 1    
     7    5    6 ar   
     8    5    8 1    
     9    6    7 1    
    10    8    9 2    
    11    9   10 1    
    12   10   11 1    
    13   11   12 1    
    14   11   21 1    
    15   12   13 1    
    16   12   14 1    
    17   14   15 1    
    18   14   20 1    
    19   15   16 1    
    20   16   17 ar   
    21   16   18 ar   
    22   16   19 ar   
    23   20   21 1    
    24   20   22 1    
    25   22   23 1    
    26   23   24 1    
    27   24   25 ar   
    28   24   26 ar   
    29   24   27 1    
    30   27   28 1    
    31   28   29 ar   
    32   28   30 ar   
    33   28   31 1    
    34   31   33 1    
    35   32   33 1    
    36   32   34 1    
    37   32   35 1    
    38   32   36 1    
    39   36   37 1    
    40   36   38 1    
    41   38   39 2    
    42   38   40 am   
    43   40   41 1    
    44   41   42 1    
    45   42   43 1    
    46   43   44 2    
    47   43   45 am   
    48   45   46 1    
    49   46   47 1    
    50   47   48 1    
    51   48   49 1    
    52   49   50 2    
    53   49   51 1    
@<TRIPOS>SUBSTRUCTURE
     1 ACO902      1 GROUP   
@<TRIPOS>SET
ATOM$ORANGE STATIC     ATOMS   COLORGROUP SYSTEM 
46 2 2 4 4 5 5 6 6 9 9 11 11 12 12 14 14 20 \
20 22 22 32 32 33 33 34 34 35 35 36 36 38 38 41 41 42 \
42 43 43 46 46 47 47 49 49 51 51 

