#    Name: 6jlp_4_PHO
#    Modification time : Fri May 22 19:33:48 2020

@<TRIPOS>MOLECULE
6jlp_4_PHO
   64    69     1     0     0
SMALL
NO_CHARGES


@<TRIPOS>ATOM
      1 CHA        24.6760   11.3370   10.7490 C.2       1 PHO402      0.0000 
      2 CHB        22.5480   15.3020    8.8720 C.2       1 PHO402      0.0000 
      3 CHC        19.9890   12.3840    5.8030 C.2       1 PHO402      0.0000 
      4 CHD        21.9400    8.2780    7.8270 C.2       1 PHO402      0.0000 
      5 NA         23.4670   13.1770    9.6170 N.2       1 PHO402      0.0000 
      6 C1A        24.3630   12.7740   10.5080 C.2       1 PHO402      0.0000 
      7 C2A        25.0460   13.8770   11.2610 C.3       1 PHO402      0.0000 
      8 C3A        24.2050   15.0600   10.8070 C.3       1 PHO402      0.0000 
      9 C4A        23.3800   14.4340    9.7180 C.2       1 PHO402      0.0000 
     10 CMA        23.2880   15.5350   11.9300 C.3       1 PHO402      0.0000 
     11 CAA        26.4860   14.0370   10.7920 C.3       1 PHO402      0.0000 
     12 CBA        27.0910   15.2730   11.4380 C.3       1 PHO402      0.0000 
     13 CGA        28.4370   15.6090   10.8360 C.2       1 PHO402      0.0000 
     14 O1A        28.9000   14.9670    9.9090 O.2       1 PHO402      0.0000 
     15 O2A        29.2040   16.7320   11.3550 O.3       1 PHO402      0.0000 
     16 NB         21.4000   13.6240    7.4600 N.pl3     1 PHO402      0.0000 
     17 C1B        21.6080   14.9050    7.7990 C.2       1 PHO402      0.0000 
     18 C2B        20.8090   15.8790    7.0000 C.2       1 PHO402      0.0000 
     19 C3B        20.0520   14.9750    6.0870 C.2       1 PHO402      0.0000 
     20 C4B        20.5000   13.6090    6.4660 C.2       1 PHO402      0.0000 
     21 CMB        20.7840   17.3820    7.1070 C.3       1 PHO402      0.0000 
     22 CAB        19.0590   15.2600    5.0230 C.2       1 PHO402      0.0000 
     23 CBB        19.1100   16.3660    4.3020 C.2       1 PHO402      0.0000 
     24 NC         21.1990   10.5230    7.0440 N.2       1 PHO402      0.0000 
     25 C1C        20.2920   10.9800    6.1560 C.2       1 PHO402      0.0000 
     26 C2C        19.5400    9.9010    5.4700 C.2       1 PHO402      0.0000 
     27 C3C        20.1040    8.6560    6.0560 C.2       1 PHO402      0.0000 
     28 C4C        21.1100    9.1750    7.0080 C.2       1 PHO402      0.0000 
     29 CMC        18.4680   10.0630    4.4290 C.3       1 PHO402      0.0000 
     30 CAC        19.7700    7.2040    5.7830 C.3       1 PHO402      0.0000 
     31 CBC        20.8890    6.5400    5.0080 C.3       1 PHO402      0.0000 
     32 ND         22.9930   10.2190    8.9770 N.pl3     1 PHO402      0.0000 
     33 C1D        22.8920    8.8850    8.7800 C.2       1 PHO402      0.0000 
     34 C2D        23.7300    7.9960    9.6260 C.2       1 PHO402      0.0000 
     35 C3D        24.4320    9.0510   10.3940 C.2       1 PHO402      0.0000 
     36 C4D        23.9620   10.2840    9.9750 C.2       1 PHO402      0.0000 
     37 CMD        23.9340    6.5090    9.7550 C.3       1 PHO402      0.0000 
     38 CAD        25.4560    9.2340   11.4490 C.2       1 PHO402      0.0000 
     39 OBD        26.0810    8.2830   12.0410 O.2       1 PHO402      0.0000 
     40 CBD        25.6100   10.6820   11.6960 C.3       1 PHO402      0.0000 
     41 CGD        25.0910   10.9720   13.0660 C.2       1 PHO402      0.0000 
     42 O1D        25.8250   10.9470   14.0330 O.2       1 PHO402      0.0000 
     43 O2D        23.6850   11.2830   13.2470 O.3       1 PHO402      0.0000 
     44 CED        23.1630   11.4380   14.5640 C.3       1 PHO402      0.0000 
     45 C1         30.3730   17.1310   10.6550 C.3       1 PHO402      0.0000 
     46 C2         29.9860   18.2930    9.7780 C.2       1 PHO402      0.0000 
     47 C3         30.3900   18.2890    8.5070 C.2       1 PHO402      0.0000 
     48 C4         31.2090   17.1420    8.0030 C.3       1 PHO402      0.0000 
     49 C5         30.0240   19.4300    7.5950 C.3       1 PHO402      0.0000 
     50 C6         29.3430   18.9090    6.3350 C.3       1 PHO402      0.0000 
     51 C7         29.0250   20.0780    5.4110 C.3       1 PHO402      0.0000 
     52 C8         27.9990   19.7250    4.3470 C.3       1 PHO402      0.0000 
     53 C9         28.3680   18.4130    3.6640 C.3       1 PHO402      0.0000 
     54 C10        27.9050   20.8740    3.3480 C.3       1 PHO402      0.0000 
     55 C11        27.6630   22.2180    4.0360 C.3       1 PHO402      0.0000 
     56 C12        26.2050   22.4040    4.4430 C.3       1 PHO402      0.0000 
     57 C13        25.9850   23.7640    5.0970 C.3       1 PHO402      0.0000 
     58 C14        26.7680   23.8480    6.3990 C.3       1 PHO402      0.0000 
     59 C15        24.4950   24.0120    5.3430 C.3       1 PHO402      0.0000 
     60 C16        23.6960   24.0580    4.0430 C.3       1 PHO402      0.0000 
     61 C17        22.1980   24.1490    4.3170 C.3       1 PHO402      0.0000 
     62 C18        21.3880   24.1870    3.0160 C.3       1 PHO402      0.0000 
     63 C19        19.9100   24.4730    3.2630 C.3       1 PHO402      0.0000 
     64 C20        21.5350   22.8990    2.2090 C.3       1 PHO402      0.0000 
@<TRIPOS>BOND
     1    1    6 2    
     2    1   36 1    
     3    1   40 1    
     4    2    9 1    
     5    2   17 2    
     6    3   20 2    
     7    3   25 1    
     8    4   28 2    
     9    4   33 1    
    10    5    6 1    
    11    5    9 2    
    12    6    7 1    
    13    7    8 1    
    14    7   11 1    
    15    8    9 1    
    16    8   10 1    
    17   11   12 1    
    18   12   13 1    
    19   13   14 2    
    20   13   15 1    
    21   15   45 1    
    22   16   17 1    
    23   16   20 1    
    24   17   18 1    
    25   18   19 2    
    26   18   21 1    
    27   19   20 1    
    28   19   22 1    
    29   22   23 2    
    30   24   25 2    
    31   24   28 1    
    32   25   26 1    
    33   26   27 2    
    34   26   29 1    
    35   27   28 1    
    36   27   30 1    
    37   30   31 1    
    38   32   33 1    
    39   32   36 1    
    40   33   34 2    
    41   34   35 1    
    42   34   37 1    
    43   35   36 2    
    44   35   38 1    
    45   38   39 2    
    46   38   40 1    
    47   40   41 1    
    48   41   42 2    
    49   41   43 1    
    50   43   44 1    
    51   45   46 1    
    52   46   47 2    
    53   47   48 1    
    54   47   49 1    
    55   49   50 1    
    56   50   51 1    
    57   51   52 1    
    58   52   53 1    
    59   52   54 1    
    60   54   55 1    
    61   55   56 1    
    62   56   57 1    
    63   57   58 1    
    64   57   59 1    
    65   59   60 1    
    66   60   61 1    
    67   61   62 1    
    68   62   63 1    
    69   62   64 1    
@<TRIPOS>SUBSTRUCTURE
     1 PHO402      1 GROUP   
@<TRIPOS>SET

