#    Name: 6jlp_1_PHO
#    Modification time : Fri May 22 19:33:24 2020

@<TRIPOS>MOLECULE
6jlp_1_PHO
   64    69     1     0     0
SMALL
NO_CHARGES


@<TRIPOS>ATOM
      1 CHA        31.9040  -45.4070  -31.9450 C.2       1 PHO402      0.0000 
      2 CHB        29.3640  -41.8240  -34.0110 C.2       1 PHO402      0.0000 
      3 CHC        26.4850  -45.0670  -36.3990 C.2       1 PHO402      0.0000 
      4 CHD        28.8990  -48.8010  -34.1420 C.2       1 PHO402      0.0000 
      5 NA         30.3890  -43.7950  -33.0310 N.2       1 PHO402      0.0000 
      6 C1A        31.4600  -44.0280  -32.2740 C.2       1 PHO402      0.0000 
      7 C2A        32.1580  -42.8090  -31.7330 C.3       1 PHO402      0.0000 
      8 C3A        31.1160  -41.7640  -32.1120 C.3       1 PHO402      0.0000 
      9 C4A        30.2580  -42.5410  -33.0800 C.2       1 PHO402      0.0000 
     10 CMA        30.2650  -41.4010  -30.8980 C.3       1 PHO402      0.0000 
     11 CAA        33.5100  -42.5520  -32.3860 C.3       1 PHO402      0.0000 
     12 CBA        34.1890  -41.4500  -31.5910 C.3       1 PHO402      0.0000 
     13 CGA        35.3940  -40.8730  -32.2880 C.2       1 PHO402      0.0000 
     14 O1A        35.7660  -41.2800  -33.3680 O.2       1 PHO402      0.0000 
     15 O2A        36.1220  -39.7990  -31.6400 O.3       1 PHO402      0.0000 
     16 NB         28.0720  -43.6870  -35.0650 N.pl3     1 PHO402      0.0000 
     17 C1B        28.3450  -42.3710  -34.9410 C.2       1 PHO402      0.0000 
     18 C2B        27.5320  -41.4950  -35.8230 C.2       1 PHO402      0.0000 
     19 C3B        26.6710  -42.4750  -36.5360 C.2       1 PHO402      0.0000 
     20 C4B        27.0950  -43.7890  -35.9840 C.2       1 PHO402      0.0000 
     21 CMB        27.5800  -40.0020  -35.9550 C.3       1 PHO402      0.0000 
     22 CAB        25.6150  -42.2700  -37.5680 C.2       1 PHO402      0.0000 
     23 CBB        25.7230  -41.3320  -38.5010 C.2       1 PHO402      0.0000 
     24 NC         27.9800  -46.7140  -35.1530 N.2       1 PHO402      0.0000 
     25 C1C        26.9750  -46.4060  -36.0020 C.2       1 PHO402      0.0000 
     26 C2C        26.2200  -47.5870  -36.4810 C.2       1 PHO402      0.0000 
     27 C3C        26.8890  -48.7160  -35.7890 C.2       1 PHO402      0.0000 
     28 C4C        27.9570  -48.0510  -35.0010 C.2       1 PHO402      0.0000 
     29 CMC        25.0490  -47.5920  -37.4250 C.3       1 PHO402      0.0000 
     30 CAC        26.5900  -50.1900  -35.8770 C.3       1 PHO402      0.0000 
     31 CBC        27.6640  -50.7980  -36.7580 C.3       1 PHO402      0.0000 
     32 ND         30.0250  -46.7530  -33.3080 N.pl3     1 PHO402      0.0000 
     33 C1D        29.9540  -48.0930  -33.3820 C.2       1 PHO402      0.0000 
     34 C2D        30.9920  -48.8700  -32.6510 C.2       1 PHO402      0.0000 
     35 C3D        31.7580  -47.7350  -32.0790 C.2       1 PHO402      0.0000 
     36 C4D        31.1470  -46.5650  -32.5060 C.2       1 PHO402      0.0000 
     37 CMD        31.2870  -50.3290  -32.4430 C.3       1 PHO402      0.0000 
     38 CAD        32.9300  -47.3990  -31.2280 C.2       1 PHO402      0.0000 
     39 OBD        33.7230  -48.2410  -30.6770 O.2       1 PHO402      0.0000 
     40 CBD        33.0510  -45.9170  -31.1560 C.3       1 PHO402      0.0000 
     41 CGD        33.0170  -45.3960  -29.7490 C.2       1 PHO402      0.0000 
     42 O1D        34.0340  -44.9740  -29.2230 O.2       1 PHO402      0.0000 
     43 O2D        31.7860  -45.3910  -28.9940 O.3       1 PHO402      0.0000 
     44 CED        31.8320  -44.9950  -27.6270 C.3       1 PHO402      0.0000 
     45 C1         37.1280  -39.0530  -32.3120 C.3       1 PHO402      0.0000 
     46 C2         36.4680  -37.8290  -32.9060 C.2       1 PHO402      0.0000 
     47 C3         36.1620  -36.7610  -32.1630 C.2       1 PHO402      0.0000 
     48 C4         36.4780  -36.7740  -30.6970 C.3       1 PHO402      0.0000 
     49 C5         35.4780  -35.5610  -32.7790 C.3       1 PHO402      0.0000 
     50 C6         35.7310  -35.4180  -34.2790 C.3       1 PHO402      0.0000 
     51 C7         34.9320  -34.2310  -34.8350 C.3       1 PHO402      0.0000 
     52 C8         35.1510  -33.9870  -36.3310 C.3       1 PHO402      0.0000 
     53 C9         36.5790  -33.5460  -36.6100 C.3       1 PHO402      0.0000 
     54 C10        34.1530  -32.9490  -36.8370 C.3       1 PHO402      0.0000 
     55 C11        34.3560  -32.5900  -38.3110 C.3       1 PHO402      0.0000 
     56 C12        34.2240  -33.8100  -39.2300 C.3       1 PHO402      0.0000 
     57 C13        32.8500  -34.4580  -39.1010 C.3       1 PHO402      0.0000 
     58 C14        32.7510  -35.7660  -39.8750 C.3       1 PHO402      0.0000 
     59 C15        31.7600  -33.4890  -39.5510 C.3       1 PHO402      0.0000 
     60 C16        30.4180  -34.1660  -39.2930 C.3       1 PHO402      0.0000 
     61 C17        29.2610  -33.3280  -39.7900 C.3       1 PHO402      0.0000 
     62 C18        27.9650  -34.0950  -39.6310 C.3       1 PHO402      0.0000 
     63 C19        27.9460  -35.2080  -40.6720 C.3       1 PHO402      0.0000 
     64 C20        26.7720  -33.1560  -39.7950 C.3       1 PHO402      0.0000 
@<TRIPOS>BOND
     1    1    6 2    
     2    1   36 1    
     3    1   40 1    
     4    2    9 1    
     5    2   17 2    
     6    3   20 2    
     7    3   25 1    
     8    4   28 2    
     9    4   33 1    
    10    5    6 1    
    11    5    9 2    
    12    6    7 1    
    13    7    8 1    
    14    7   11 1    
    15    8    9 1    
    16    8   10 1    
    17   11   12 1    
    18   12   13 1    
    19   13   14 2    
    20   13   15 1    
    21   15   45 1    
    22   16   17 1    
    23   16   20 1    
    24   17   18 1    
    25   18   19 2    
    26   18   21 1    
    27   19   20 1    
    28   19   22 1    
    29   22   23 2    
    30   24   25 2    
    31   24   28 1    
    32   25   26 1    
    33   26   27 2    
    34   26   29 1    
    35   27   28 1    
    36   27   30 1    
    37   30   31 1    
    38   32   33 1    
    39   32   36 1    
    40   33   34 2    
    41   34   35 1    
    42   34   37 1    
    43   35   36 2    
    44   35   38 1    
    45   38   39 2    
    46   38   40 1    
    47   40   41 1    
    48   41   42 2    
    49   41   43 1    
    50   43   44 1    
    51   45   46 1    
    52   46   47 2    
    53   47   48 1    
    54   47   49 1    
    55   49   50 1    
    56   50   51 1    
    57   51   52 1    
    58   52   53 1    
    59   52   54 1    
    60   54   55 1    
    61   55   56 1    
    62   56   57 1    
    63   57   58 1    
    64   57   59 1    
    65   59   60 1    
    66   60   61 1    
    67   61   62 1    
    68   62   63 1    
    69   62   64 1    
@<TRIPOS>SUBSTRUCTURE
     1 PHO402      1 GROUP   
@<TRIPOS>SET

