#    Name: 6jlp_2_PHO
#    Modification time : Fri May 22 19:33:32 2020

@<TRIPOS>MOLECULE
6jlp_2_PHO
   64    69     1     0     0
SMALL
NO_CHARGES


@<TRIPOS>ATOM
      1 CHA         9.9030  -58.0550  -32.1490 C.2       1 PHO403      0.0000 
      2 CHB        10.2420  -57.4560  -36.9820 C.2       1 PHO403      0.0000 
      3 CHC        11.8890  -52.8210  -36.4210 C.2       1 PHO403      0.0000 
      4 CHD        12.1240  -53.5860  -31.4860 C.2       1 PHO403      0.0000 
      5 NA         10.1820  -57.4990  -34.5500 N.2       1 PHO403      0.0000 
      6 C1A         9.7650  -58.3390  -33.6060 C.2       1 PHO403      0.0000 
      7 C2A         9.1440  -59.6040  -34.1110 C.3       1 PHO403      0.0000 
      8 C3A         9.4790  -59.4780  -35.5920 C.3       1 PHO403      0.0000 
      9 C4A         9.9970  -58.0630  -35.6640 C.2       1 PHO403      0.0000 
     10 CMA        10.5700  -60.4730  -35.9820 C.3       1 PHO403      0.0000 
     11 CAA         7.6400  -59.5520  -33.8850 C.3       1 PHO403      0.0000 
     12 CBA         7.0300  -60.9300  -34.0720 C.3       1 PHO403      0.0000 
     13 CGA         5.5470  -60.7890  -34.2990 C.2       1 PHO403      0.0000 
     14 O1A         4.9740  -59.7290  -34.1000 O.2       1 PHO403      0.0000 
     15 O2A         4.7890  -61.9340  -34.7760 O.3       1 PHO403      0.0000 
     16 NB         11.0400  -55.1640  -36.4370 N.pl3     1 PHO403      0.0000 
     17 C1B        10.7300  -56.1030  -37.3430 C.2       1 PHO403      0.0000 
     18 C2B        10.9240  -55.6580  -38.7530 C.2       1 PHO403      0.0000 
     19 C3B        11.4140  -54.2660  -38.5740 C.2       1 PHO403      0.0000 
     20 C4B        11.4460  -54.0710  -37.0970 C.2       1 PHO403      0.0000 
     21 CMB        10.6860  -56.4210  -40.0290 C.3       1 PHO403      0.0000 
     22 CAB        11.8040  -53.2600  -39.5930 C.2       1 PHO403      0.0000 
     23 CBB        11.1880  -53.1910  -40.7630 C.2       1 PHO403      0.0000 
     24 NC         11.8660  -53.5440  -33.9830 N.2       1 PHO403      0.0000 
     25 C1C        12.2260  -52.7050  -34.9800 C.2       1 PHO403      0.0000 
     26 C2C        12.9580  -51.5000  -34.4980 C.2       1 PHO403      0.0000 
     27 C3C        13.0170  -51.6970  -33.0300 C.2       1 PHO403      0.0000 
     28 C4C        12.3130  -52.9910  -32.8310 C.2       1 PHO403      0.0000 
     29 CMC        13.5120  -50.3490  -35.2950 C.3       1 PHO403      0.0000 
     30 CAC        13.6530  -50.7980  -31.9910 C.3       1 PHO403      0.0000 
     31 CBC        12.6030  -50.2170  -31.0650 C.3       1 PHO403      0.0000 
     32 ND         11.0840  -55.6580  -32.3570 N.pl3     1 PHO403      0.0000 
     33 C1D        11.4470  -54.8920  -31.3140 C.2       1 PHO403      0.0000 
     34 C2D        11.1930  -55.4360  -29.9530 C.2       1 PHO403      0.0000 
     35 C3D        10.5610  -56.7260  -30.3480 C.2       1 PHO403      0.0000 
     36 C4D        10.5360  -56.7710  -31.7290 C.2       1 PHO403      0.0000 
     37 CMD        11.4390  -54.9480  -28.5480 C.3       1 PHO403      0.0000 
     38 CAD         9.9480  -57.9760  -29.8050 C.2       1 PHO403      0.0000 
     39 OBD         9.8090  -58.2540  -28.5560 O.2       1 PHO403      0.0000 
     40 CBD         9.5270  -58.8340  -30.9450 C.3       1 PHO403      0.0000 
     41 CGD        10.3220  -60.1070  -30.9760 C.2       1 PHO403      0.0000 
     42 O1D         9.9850  -61.1020  -30.3460 O.2       1 PHO403      0.0000 
     43 O2D        11.5320  -60.1490  -31.7790 O.3       1 PHO403      0.0000 
     44 CED        12.4610  -61.2180  -31.6200 C.3       1 PHO403      0.0000 
     45 C1          3.4290  -61.7320  -35.1140 C.3       1 PHO403      0.0000 
     46 C2          3.3680  -61.3320  -36.5650 C.2       1 PHO403      0.0000 
     47 C3          2.3820  -60.5220  -36.9640 C.2       1 PHO403      0.0000 
     48 C4          1.3690  -60.0290  -35.9740 C.3       1 PHO403      0.0000 
     49 C5          2.2910  -60.0990  -38.4080 C.3       1 PHO403      0.0000 
     50 C6          2.4380  -58.5860  -38.5150 C.3       1 PHO403      0.0000 
     51 C7          1.8530  -58.1060  -39.8380 C.3       1 PHO403      0.0000 
     52 C8          2.2510  -56.6690  -40.1460 C.3       1 PHO403      0.0000 
     53 C9          1.8480  -55.7550  -38.9940 C.3       1 PHO403      0.0000 
     54 C10         1.6270  -56.2370  -41.4720 C.3       1 PHO403      0.0000 
     55 C11         1.8830  -57.2450  -42.5930 C.3       1 PHO403      0.0000 
     56 C12         3.3420  -57.3180  -43.0490 C.3       1 PHO403      0.0000 
     57 C13         3.4850  -58.3340  -44.1870 C.3       1 PHO403      0.0000 
     58 C14         3.0880  -59.7360  -43.7240 C.3       1 PHO403      0.0000 
     59 C15         4.9020  -58.3350  -44.7670 C.3       1 PHO403      0.0000 
     60 C16         5.1930  -57.0920  -45.6080 C.3       1 PHO403      0.0000 
     61 C17         6.6310  -57.0530  -46.1290 C.3       1 PHO403      0.0000 
     62 C18         6.8330  -55.8410  -47.0460 C.3       1 PHO403      0.0000 
     63 C19         8.1530  -55.9000  -47.8090 C.3       1 PHO403      0.0000 
     64 C20         6.7350  -54.5310  -46.2680 C.3       1 PHO403      0.0000 
@<TRIPOS>BOND
     1    1    6 2    
     2    1   36 1    
     3    1   40 1    
     4    2    9 1    
     5    2   17 2    
     6    3   20 2    
     7    3   25 1    
     8    4   28 2    
     9    4   33 1    
    10    5    6 1    
    11    5    9 2    
    12    6    7 1    
    13    7    8 1    
    14    7   11 1    
    15    8    9 1    
    16    8   10 1    
    17   11   12 1    
    18   12   13 1    
    19   13   14 2    
    20   13   15 1    
    21   15   45 1    
    22   16   17 1    
    23   16   20 1    
    24   17   18 1    
    25   18   19 2    
    26   18   21 1    
    27   19   20 1    
    28   19   22 1    
    29   22   23 2    
    30   24   25 2    
    31   24   28 1    
    32   25   26 1    
    33   26   27 2    
    34   26   29 1    
    35   27   28 1    
    36   27   30 1    
    37   30   31 1    
    38   32   33 1    
    39   32   36 1    
    40   33   34 2    
    41   34   35 1    
    42   34   37 1    
    43   35   36 2    
    44   35   38 1    
    45   38   39 2    
    46   38   40 1    
    47   40   41 1    
    48   41   42 2    
    49   41   43 1    
    50   43   44 1    
    51   45   46 1    
    52   46   47 2    
    53   47   48 1    
    54   47   49 1    
    55   49   50 1    
    56   50   51 1    
    57   51   52 1    
    58   52   53 1    
    59   52   54 1    
    60   54   55 1    
    61   55   56 1    
    62   56   57 1    
    63   57   58 1    
    64   57   59 1    
    65   59   60 1    
    66   60   61 1    
    67   61   62 1    
    68   62   63 1    
    69   62   64 1    
@<TRIPOS>SUBSTRUCTURE
     1 PHO403      1 GROUP   
@<TRIPOS>SET

