#    Name: 6jlp_3_PHO
#    Modification time : Fri May 22 19:33:40 2020

@<TRIPOS>MOLECULE
6jlp_3_PHO
   64    69     1     0     0
SMALL
NO_CHARGES


@<TRIPOS>ATOM
      1 CHA         1.9480    0.5630    7.8550 C.2       1 PHO411      0.0000 
      2 CHB         2.5440    1.4900    3.0930 C.2       1 PHO411      0.0000 
      3 CHC         4.9830    5.6440    4.2510 C.2       1 PHO411      0.0000 
      4 CHD         4.6540    4.6320    9.1100 C.2       1 PHO411      0.0000 
      5 NA          2.5190    1.1710    5.5230 N.2       1 PHO411      0.0000 
      6 C1A         1.9010    0.3620    6.3760 C.2       1 PHO411      0.0000 
      7 C2A         1.1780   -0.7800    5.7210 C.3       1 PHO411      0.0000 
      8 C3A         1.6170   -0.5930    4.2780 C.3       1 PHO411      0.0000 
      9 C4A         2.2630    0.7650    4.3500 C.2       1 PHO411      0.0000 
     10 CMA         2.7040   -1.5900    3.9100 C.3       1 PHO411      0.0000 
     11 CAA        -0.3310   -0.6750    5.8120 C.3       1 PHO411      0.0000 
     12 CBA        -0.8770   -1.9710    5.2390 C.3       1 PHO411      0.0000 
     13 CGA        -2.3620   -1.8450    5.0950 C.2       1 PHO411      0.0000 
     14 O1A        -2.9310   -0.8010    5.3420 O.2       1 PHO411      0.0000 
     15 O2A        -3.0980   -2.9960    4.6480 O.3       1 PHO411      0.0000 
     16 NB          3.7470    3.4790    3.9390 N.pl3     1 PHO411      0.0000 
     17 C1B         3.2470    2.7770    2.9060 C.2       1 PHO411      0.0000 
     18 C2B         3.4790    3.4160    1.5770 C.2       1 PHO411      0.0000 
     19 C3B         4.2070    4.6490    1.9610 C.2       1 PHO411      0.0000 
     20 C4B         4.3120    4.5890    3.4460 C.2       1 PHO411      0.0000 
     21 CMB         3.0970    2.9680    0.1990 C.3       1 PHO411      0.0000 
     22 CAB         4.7400    5.7400    1.1210 C.2       1 PHO411      0.0000 
     23 CBB         3.9330    6.3740    0.2930 C.2       1 PHO411      0.0000 
     24 NC          4.5850    4.8540    6.6300 N.2       1 PHO411      0.0000 
     25 C1C         5.1010    5.7080    5.7290 C.2       1 PHO411      0.0000 
     26 C2C         5.8960    6.8040    6.3460 C.2       1 PHO411      0.0000 
     27 C3C         5.8130    6.5150    7.8000 C.2       1 PHO411      0.0000 
     28 C4C         4.9910    5.2920    7.8410 C.2       1 PHO411      0.0000 
     29 CMC         6.6080    7.9420    5.6610 C.3       1 PHO411      0.0000 
     30 CAC         6.4130    7.2680    8.9610 C.3       1 PHO411      0.0000 
     31 CBC         5.3120    7.9250    9.7510 C.3       1 PHO411      0.0000 
     32 ND          3.4680    2.7770    7.9510 N.pl3     1 PHO411      0.0000 
     33 C1D         3.8210    3.4110    9.0850 C.2       1 PHO411      0.0000 
     34 C2D         3.3480    2.8370   10.3680 C.2       1 PHO411      0.0000 
     35 C3D         2.5930    1.6890    9.8080 C.2       1 PHO411      0.0000 
     36 C4D         2.7020    1.7180    8.4260 C.2       1 PHO411      0.0000 
     37 CMD         3.5000    3.1990   11.8190 C.3       1 PHO411      0.0000 
     38 CAD         1.7750    0.5300   10.2220 C.2       1 PHO411      0.0000 
     39 OBD         1.4900    0.2520   11.4470 O.2       1 PHO411      0.0000 
     40 CBD         1.3280   -0.1760    8.9830 C.3       1 PHO411      0.0000 
     41 CGD         1.7030   -1.6240    8.9560 C.2       1 PHO411      0.0000 
     42 O1D         0.8450   -2.4740    9.1510 O.2       1 PHO411      0.0000 
     43 O2D         3.0750   -2.0050    8.6840 O.3       1 PHO411      0.0000 
     44 CED         3.4340   -3.3740    8.6320 C.3       1 PHO411      0.0000 
     45 C1         -4.4340   -2.8950    4.1990 C.3       1 PHO411      0.0000 
     46 C2         -4.4160   -2.7970    2.6870 C.2       1 PHO411      0.0000 
     47 C3         -4.1830   -3.8480    1.8870 C.2       1 PHO411      0.0000 
     48 C4         -3.9150   -5.2000    2.4830 C.3       1 PHO411      0.0000 
     49 C5         -4.1660   -3.6890    0.3760 C.3       1 PHO411      0.0000 
     50 C6         -4.7950   -2.3810   -0.0740 C.3       1 PHO411      0.0000 
     51 C7         -4.5330   -2.1330   -1.5650 C.3       1 PHO411      0.0000 
     52 C8         -5.4290   -1.0440   -2.1750 C.3       1 PHO411      0.0000 
     53 C9         -6.9230   -1.3810   -2.0870 C.3       1 PHO411      0.0000 
     54 C10        -5.0140   -0.8360   -3.6350 C.3       1 PHO411      0.0000 
     55 C11        -5.8210    0.2550   -4.3430 C.3       1 PHO411      0.0000 
     56 C12        -5.7010    1.6040   -3.6440 C.3       1 PHO411      0.0000 
     57 C13        -4.2420    2.0350   -3.5060 C.3       1 PHO411      0.0000 
     58 C14        -4.0680    3.0910   -2.4100 C.3       1 PHO411      0.0000 
     59 C15        -3.6890    2.4890   -4.8600 C.3       1 PHO411      0.0000 
     60 C16        -2.1980    2.7890   -4.7330 C.3       1 PHO411      0.0000 
     61 C17        -1.5180    3.0600   -6.0740 C.3       1 PHO411      0.0000 
     62 C18        -0.1420    3.7100   -5.8920 C.3       1 PHO411      0.0000 
     63 C19        -0.2850    5.1640   -5.4510 C.3       1 PHO411      0.0000 
     64 C20         0.6720    3.6280   -7.1730 C.3       1 PHO411      0.0000 
@<TRIPOS>BOND
     1    1    6 2    
     2    1   36 1    
     3    1   40 1    
     4    2    9 1    
     5    2   17 2    
     6    3   20 2    
     7    3   25 1    
     8    4   28 2    
     9    4   33 1    
    10    5    6 1    
    11    5    9 2    
    12    6    7 1    
    13    7    8 1    
    14    7   11 1    
    15    8    9 1    
    16    8   10 1    
    17   11   12 1    
    18   12   13 1    
    19   13   14 2    
    20   13   15 1    
    21   15   45 1    
    22   16   17 1    
    23   16   20 1    
    24   17   18 1    
    25   18   19 2    
    26   18   21 1    
    27   19   20 1    
    28   19   22 1    
    29   22   23 2    
    30   24   25 2    
    31   24   28 1    
    32   25   26 1    
    33   26   27 2    
    34   26   29 1    
    35   27   28 1    
    36   27   30 1    
    37   30   31 1    
    38   32   33 1    
    39   32   36 1    
    40   33   34 2    
    41   34   35 1    
    42   34   37 1    
    43   35   36 2    
    44   35   38 1    
    45   38   39 2    
    46   38   40 1    
    47   40   41 1    
    48   41   42 2    
    49   41   43 1    
    50   43   44 1    
    51   45   46 1    
    52   46   47 2    
    53   47   48 1    
    54   47   49 1    
    55   49   50 1    
    56   50   51 1    
    57   51   52 1    
    58   52   53 1    
    59   52   54 1    
    60   54   55 1    
    61   55   56 1    
    62   56   57 1    
    63   57   58 1    
    64   57   59 1    
    65   59   60 1    
    66   60   61 1    
    67   61   62 1    
    68   62   63 1    
    69   62   64 1    
@<TRIPOS>SUBSTRUCTURE
     1 PHO411      1 GROUP   
@<TRIPOS>SET

