#    Name: 6eow_1_NAP
#    Modification time : Fri May 22 19:29:51 2020

@<TRIPOS>MOLECULE
6eow_1_NAP
   48    52     1     0     1
SMALL
NO_CHARGES


@<TRIPOS>ATOM
      1 PA         -1.2170    5.1800   -0.9470 P.3       1 NAP401      0.0000 
      2 O1A        -1.9650    5.5360    0.1530 O.co2     1 NAP401      0.0000 
      3 O2A        -1.8830    4.4050   -1.8420 O.co2     1 NAP401      0.0000 
      4 O5B        -0.5120    6.4060   -1.6300 O.3       1 NAP401      0.0000 
      5 C5B         0.1350    7.4000   -0.9370 C.3       1 NAP401      0.0000 
      6 C4B        -0.7870    8.4830   -0.3750 C.3       1 NAP401      0.0000 
      7 O4B        -0.1480    9.2220    0.6100 O.3       1 NAP401      0.0000 
      8 C3B        -1.1990    9.5200   -1.3720 C.3       1 NAP401      0.0000 
      9 O3B        -2.1780    9.0330   -2.2150 O.3       1 NAP401      0.0000 
     10 C2B        -1.6810   10.6090   -0.4250 C.3       1 NAP401      0.0000 
     11 O2B        -3.0350   10.5110   -0.1690 O.3       1 NAP401      0.0000 
     12 C1B        -0.8980   10.3640    0.8540 C.3       1 NAP401      0.0000 
     13 N9A         0.0240   11.4070    1.2510 N.pl3     1 NAP401      0.0000 
     14 C8A         1.0830   11.7640    0.5960 C.2       1 NAP401      0.0000 
     15 N7A         1.7320   12.7240    1.2130 N.2       1 NAP401      0.0000 
     16 C5A         1.0950   12.9920    2.3080 C.ar      1 NAP401      0.0000 
     17 C6A         1.2460   13.9530    3.4010 C.ar      1 NAP401      0.0000 
     18 N6A         2.2750   14.7700    3.4070 N.pl3     1 NAP401      0.0000 
     19 N1A         0.3720   13.9180    4.3700 N.ar      1 NAP401      0.0000 
     20 C2A        -0.6320   13.0850    4.3150 C.ar      1 NAP401      0.0000 
     21 N3A        -0.8530   12.2120    3.3540 N.ar      1 NAP401      0.0000 
     22 C4A        -0.0360   12.1050    2.3370 C.ar      1 NAP401      0.0000 
     23 O3          0.0070    4.3130   -0.3750 O.3       1 NAP401      0.0000 
     24 PN         -0.0350    2.9060    0.3560 P.3       1 NAP401      0.0000 
     25 O1N        -1.3400    2.6500    0.6800 O.co2     1 NAP401      0.0000 
     26 O2N         0.5890    1.9300   -0.4320 O.co2     1 NAP401      0.0000 
     27 O5D         0.9070    3.0870    1.6150 O.3       1 NAP401      0.0000 
     28 C5D         0.4570    3.7650    2.7520 C.3       1 NAP401      0.0000 
     29 C4D         1.4270    3.8130    3.9090 C.3       1 NAP401      0.0000 
     30 O4D         1.7060    2.5270    4.3810 O.3       1 NAP401      0.0000 
     31 C3D         2.7490    4.4360    3.4860 C.3       1 NAP401      0.0000 
     32 O3D         3.3260    5.2730    4.4460 O.3       1 NAP401      0.0000 
     33 C2D         3.6380    3.2210    3.2610 C.3       1 NAP401      0.0000 
     34 O2D         5.0240    3.4320    3.3660 O.3       1 NAP401      0.0000 
     35 C1D         3.0940    2.3160    4.3470 C.3       1 NAP401      0.0000 
     36 N1N         3.4030    0.9250    4.1660 N.pl3     1 NAP401      0.0000 
     37 C2N         3.9510    0.2670    5.1490 C.ar      1 NAP401      0.0000 
     38 C3N         4.2640   -1.0730    5.0630 C.ar      1 NAP401      0.0000 
     39 C7N         4.8590   -1.8340    6.2170 C.2       1 NAP401      0.0000 
     40 O7N         5.0270   -1.2890    7.2760 O.2       1 NAP401      0.0000 
     41 N7N         5.1330   -3.0790    6.0300 N.am      1 NAP401      0.0000 
     42 C4N         3.9390   -1.7000    3.8900 C.ar      1 NAP401      0.0000 
     43 C5N         3.3460   -0.9930    2.8590 C.ar      1 NAP401      0.0000 
     44 C6N         3.0840    0.3270    3.0420 C.ar      1 NAP401      0.0000 
     45 P2B        -3.9130   11.7860    0.1840 P.3       1 NAP401      0.0000 
     46 O1X        -2.9810   12.7030    0.6730 O.co2     1 NAP401      0.0000 
     47 O2X        -4.5490   12.1830   -1.0290 O.co2     1 NAP401      0.0000 
     48 O3X        -4.8380   11.2930    1.1250 O.co2     1 NAP401      0.0000 
@<TRIPOS>BOND
     1    1    2 ar   
     2    1    3 ar   
     3    1    4 1    
     4    1   23 1    
     5    4    5 1    
     6    5    6 1    
     7    6    7 1    
     8    6    8 1    
     9    7   12 1    
    10    8    9 1    
    11    8   10 1    
    12   10   11 1    
    13   10   12 1    
    14   11   45 1    
    15   12   13 1    
    16   13   14 1    
    17   13   22 1    
    18   14   15 2    
    19   15   16 1    
    20   16   17 ar   
    21   16   22 ar   
    22   17   18 1    
    23   17   19 ar   
    24   19   20 ar   
    25   20   21 ar   
    26   21   22 ar   
    27   23   24 1    
    28   24   25 ar   
    29   24   26 ar   
    30   24   27 1    
    31   27   28 1    
    32   28   29 1    
    33   29   30 1    
    34   29   31 1    
    35   30   35 1    
    36   31   32 1    
    37   31   33 1    
    38   33   34 1    
    39   33   35 1    
    40   35   36 1    
    41   36   37 ar   
    42   36   44 ar   
    43   37   38 ar   
    44   38   39 1    
    45   38   42 ar   
    46   39   40 2    
    47   39   41 am   
    48   42   43 ar   
    49   43   44 ar   
    50   45   46 ar   
    51   45   47 ar   
    52   45   48 ar   
@<TRIPOS>SUBSTRUCTURE
     1 NAP401      1 GROUP   
@<TRIPOS>SET
ATOM$ORANGE STATIC     ATOMS   COLORGROUP SYSTEM 
42 5 5 6 6 8 8 10 10 12 12 14 14 16 16 17 17 20 \
20 22 22 28 28 29 29 31 31 33 33 35 35 37 37 38 38 39 \
39 42 42 43 43 44 44 

