#    Name: 6eow_2_NAP
#    Modification time : Fri May 22 19:29:59 2020

@<TRIPOS>MOLECULE
6eow_2_NAP
   48    52     1     0     1
SMALL
NO_CHARGES


@<TRIPOS>ATOM
      1 PA         14.0580    9.7780   40.3230 P.3       1 NAP402      0.0000 
      2 O1A        14.8040    9.1030   39.3250 O.co2     1 NAP402      0.0000 
      3 O2A        14.3570    9.2350   41.5520 O.co2     1 NAP402      0.0000 
      4 O5B        14.3860   11.2830   40.3060 O.3       1 NAP402      0.0000 
      5 C5B        14.2510   12.0600   39.1580 C.3       1 NAP402      0.0000 
      6 C4B        15.5380   12.0310   38.3280 C.3       1 NAP402      0.0000 
      7 O4B        15.3320   12.4520   37.0180 O.3       1 NAP402      0.0000 
      8 C3B        16.6490   12.9400   38.8190 C.3       1 NAP402      0.0000 
      9 O3B        17.3360   12.4070   39.9010 O.3       1 NAP402      0.0000 
     10 C2B        17.5520   13.0450   37.6020 C.3       1 NAP402      0.0000 
     11 O2B        18.5020   12.0400   37.5870 O.3       1 NAP402      0.0000 
     12 C1B        16.5540   12.8650   36.4680 C.3       1 NAP402      0.0000 
     13 N9A        16.3400   14.0440   35.6290 N.pl3     1 NAP402      0.0000 
     14 C8A        15.8040   15.1700   35.9540 C.2       1 NAP402      0.0000 
     15 N7A        15.7230   16.0050   34.9510 N.2       1 NAP402      0.0000 
     16 C5A        16.2060   15.4100   33.9230 C.ar      1 NAP402      0.0000 
     17 C6A        16.4580   15.7530   32.5350 C.ar      1 NAP402      0.0000 
     18 N6A        16.1070   16.9370   32.0700 N.pl3     1 NAP402      0.0000 
     19 N1A        17.0030   14.8340   31.8060 N.ar      1 NAP402      0.0000 
     20 C2A        17.3300   13.6640   32.2450 C.ar      1 NAP402      0.0000 
     21 N3A        17.1740   13.2800   33.4810 N.ar      1 NAP402      0.0000 
     22 C4A        16.6170   14.0930   34.3540 C.ar      1 NAP402      0.0000 
     23 O3         12.5370    9.6960   39.9540 O.3       1 NAP402      0.0000 
     24 PN         11.6490    8.4190   39.9440 P.3       1 NAP402      0.0000 
     25 O1N        12.4310    7.3000   39.8630 O.co2     1 NAP402      0.0000 
     26 O2N        10.7030    8.4420   40.9930 O.co2     1 NAP402      0.0000 
     27 O5D        10.7820    8.5900   38.6550 O.3       1 NAP402      0.0000 
     28 C5D        11.3980    8.3750   37.4130 C.3       1 NAP402      0.0000 
     29 C4D        10.4540    8.4140   36.2330 C.3       1 NAP402      0.0000 
     30 O4D         9.4170    7.5040   36.4020 O.3       1 NAP402      0.0000 
     31 C3D         9.8450    9.8000   36.1200 C.3       1 NAP402      0.0000 
     32 O3D         9.8300   10.2670   34.8020 O.3       1 NAP402      0.0000 
     33 C2D         8.4690    9.5590   36.7420 C.3       1 NAP402      0.0000 
     34 O2D         7.5760   10.5420   36.3630 O.3       1 NAP402      0.0000 
     35 C1D         8.2020    8.1730   36.2150 C.3       1 NAP402      0.0000 
     36 N1N         7.1230    7.4920   36.8410 N.pl3     1 NAP402      0.0000 
     37 C2N         6.1570    6.9970   36.1370 C.ar      1 NAP402      0.0000 
     38 C3N         5.1210    6.3270   36.7430 C.ar      1 NAP402      0.0000 
     39 C7N         3.9630    5.7210   36.0080 C.2       1 NAP402      0.0000 
     40 O7N         3.1100    5.1920   36.5780 O.2       1 NAP402      0.0000 
     41 N7N         3.9600    5.7950   34.7200 N.am      1 NAP402      0.0000 
     42 C4N         5.1850    6.1910   38.1000 C.ar      1 NAP402      0.0000 
     43 C5N         6.2300    6.7020   38.8050 C.ar      1 NAP402      0.0000 
     44 C6N         7.1950    7.3420   38.1270 C.ar      1 NAP402      0.0000 
     45 P2B        19.8970   12.2960   36.8730 P.3       1 NAP402      0.0000 
     46 O1X        19.6530   13.2900   35.9000 O.co2     1 NAP402      0.0000 
     47 O2X        20.8260   12.6760   37.8310 O.co2     1 NAP402      0.0000 
     48 O3X        20.1840   11.0540   36.3910 O.co2     1 NAP402      0.0000 
@<TRIPOS>BOND
     1    1    2 ar   
     2    1    3 ar   
     3    1    4 1    
     4    1   23 1    
     5    4    5 1    
     6    5    6 1    
     7    6    7 1    
     8    6    8 1    
     9    7   12 1    
    10    8    9 1    
    11    8   10 1    
    12   10   11 1    
    13   10   12 1    
    14   11   45 1    
    15   12   13 1    
    16   13   14 1    
    17   13   22 1    
    18   14   15 2    
    19   15   16 1    
    20   16   17 ar   
    21   16   22 ar   
    22   17   18 1    
    23   17   19 ar   
    24   19   20 ar   
    25   20   21 ar   
    26   21   22 ar   
    27   23   24 1    
    28   24   25 ar   
    29   24   26 ar   
    30   24   27 1    
    31   27   28 1    
    32   28   29 1    
    33   29   30 1    
    34   29   31 1    
    35   30   35 1    
    36   31   32 1    
    37   31   33 1    
    38   33   34 1    
    39   33   35 1    
    40   35   36 1    
    41   36   37 ar   
    42   36   44 ar   
    43   37   38 ar   
    44   38   39 1    
    45   38   42 ar   
    46   39   40 2    
    47   39   41 am   
    48   42   43 ar   
    49   43   44 ar   
    50   45   46 ar   
    51   45   47 ar   
    52   45   48 ar   
@<TRIPOS>SUBSTRUCTURE
     1 NAP402      1 GROUP   
@<TRIPOS>SET
ATOM$ORANGE STATIC     ATOMS   COLORGROUP SYSTEM 
42 5 5 6 6 8 8 10 10 12 12 14 14 16 16 17 17 20 \
20 22 22 28 28 29 29 31 31 33 33 35 35 37 37 38 38 39 \
39 42 42 43 43 44 44 

