#    Name: 6c1h_2_ADP
#    Modification time : Fri May 22 19:32:52 2020

@<TRIPOS>MOLECULE
6c1h_2_ADP
   27    29     1     0     1
SMALL
NO_CHARGES


@<TRIPOS>ATOM
      1 PB        244.2190  266.6880  287.7690 P.3       1 ADP401      0.0000 
      2 O1B       245.2200  265.9460  286.9220 O.co2     1 ADP401      0.0000 
      3 O2B       243.6720  265.8940  288.9280 O.co2     1 ADP401      0.0000 
      4 O3B       243.1960  267.4620  286.9740 O.co2     1 ADP401      0.0000 
      5 PA        245.0930  269.3410  287.9690 P.3       1 ADP401      0.0000 
      6 O1A       245.3310  269.3740  286.4810 O.co2     1 ADP401      0.0000 
      7 O2A       243.8840  270.0000  288.5780 O.co2     1 ADP401      0.0000 
      8 O3A       245.1380  267.8120  288.4510 O.3       1 ADP401      0.0000 
      9 O5'       246.4050  269.8800  288.7130 O.3       1 ADP401      0.0000 
     10 C5'       246.5550  269.6230  290.1030 C.3       1 ADP401      0.0000 
     11 C4'       247.9830  269.9520  290.4930 C.3       1 ADP401      0.0000 
     12 O4'       248.2290  271.3200  290.1780 O.3       1 ADP401      0.0000 
     13 C3'       248.2140  269.7730  291.9810 C.3       1 ADP401      0.0000 
     14 O3'       249.3370  268.9200  292.1990 O.3       1 ADP401      0.0000 
     15 C2'       248.5860  271.1380  292.4950 C.3       1 ADP401      0.0000 
     16 O2'       249.7440  271.0170  293.3140 O.3       1 ADP401      0.0000 
     17 C1'       248.8920  271.9610  291.2610 C.3       1 ADP401      0.0000 
     18 N9        248.3400  273.3140  291.4500 N.pl3     1 ADP401      0.0000 
     19 C8        247.0360  273.6070  291.5420 C.2       1 ADP401      0.0000 
     20 N7        246.8520  274.9360  291.7210 N.2       1 ADP401      0.0000 
     21 C5        248.0670  275.5070  291.7520 C.ar      1 ADP401      0.0000 
     22 C6        248.5930  276.8790  291.9110 C.ar      1 ADP401      0.0000 
     23 N6        247.7590  277.9320  292.0810 N.pl3     1 ADP401      0.0000 
     24 N1        249.9310  277.0430  291.8810 N.ar      1 ADP401      0.0000 
     25 C2        250.7670  276.0040  291.7140 C.ar      1 ADP401      0.0000 
     26 N3        250.3580  274.7350  291.5640 N.ar      1 ADP401      0.0000 
     27 C4        249.0450  274.4310  291.5740 C.ar      1 ADP401      0.0000 
@<TRIPOS>BOND
     1    1    2 ar   
     2    1    3 ar   
     3    1    4 ar   
     4    1    8 1    
     5    5    6 ar   
     6    5    7 ar   
     7    5    8 1    
     8    5    9 1    
     9    9   10 1    
    10   10   11 1    
    11   11   12 1    
    12   11   13 1    
    13   12   17 1    
    14   13   14 1    
    15   13   15 1    
    16   15   16 1    
    17   15   17 1    
    18   17   18 1    
    19   18   19 1    
    20   18   27 1    
    21   19   20 2    
    22   20   21 1    
    23   21   22 ar   
    24   21   27 ar   
    25   22   23 1    
    26   22   24 ar   
    27   24   25 ar   
    28   25   26 ar   
    29   26   27 ar   
@<TRIPOS>SUBSTRUCTURE
     1 ADP401      1 GROUP   
@<TRIPOS>SET
ATOM$ORANGE STATIC     ATOMS   COLORGROUP SYSTEM 
20 10 10 11 11 13 13 15 15 17 17 19 19 21 21 22 22 25 \
25 27 27 

