#    Name: 6c1h_1_ADP
#    Modification time : Fri May 22 19:32:46 2020

@<TRIPOS>MOLECULE
6c1h_1_ADP
   27    29     1     0     1
SMALL
NO_CHARGES


@<TRIPOS>ATOM
      1 PB        277.1180  256.8530  315.2280 P.3       1 ADP401      0.0000 
      2 O1B       275.9990  257.3410  314.3440 O.co2     1 ADP401      0.0000 
      3 O2B       277.4550  257.7720  316.3760 O.co2     1 ADP401      0.0000 
      4 O3B       278.3020  256.3020  314.4740 O.co2     1 ADP401      0.0000 
      5 PA        276.7450  254.0860  315.3890 P.3       1 ADP401      0.0000 
      6 O1A       276.4850  254.0570  313.9050 O.co2     1 ADP401      0.0000 
      7 O2A       278.0600  253.6150  315.9530 O.co2     1 ADP401      0.0000 
      8 O3A       276.4520  255.5710  315.9220 O.3       1 ADP401      0.0000 
      9 O5'       275.5580  253.3150  316.1390 O.3       1 ADP401      0.0000 
     10 C5'       275.3250  253.6040  317.5120 C.3       1 ADP401      0.0000 
     11 C4'       274.0360  252.9280  317.9410 C.3       1 ADP401      0.0000 
     12 O4'       274.1380  251.5320  317.6680 O.3       1 ADP401      0.0000 
     13 C3'       273.7760  253.0870  319.4260 C.3       1 ADP401      0.0000 
     14 O3'       272.4550  253.5880  319.6160 O.3       1 ADP401      0.0000 
     15 C2'       273.8120  251.6910  319.9940 C.3       1 ADP401      0.0000 
     16 O2'       272.7120  251.5040  320.8830 O.3       1 ADP401      0.0000 
     17 C1'       273.6800  250.7830  318.7880 C.3       1 ADP401      0.0000 
     18 N9        274.5320  249.5940  318.9850 N.pl3     1 ADP401      0.0000 
     19 C8        275.8660  249.6090  319.1340 C.2       1 ADP401      0.0000 
     20 N7        276.3460  248.3540  319.3020 N.2       1 ADP401      0.0000 
     21 C5        275.2970  247.5140  319.2720 C.ar      1 ADP401      0.0000 
     22 C6        275.1000  246.0540  319.3870 C.ar      1 ADP401      0.0000 
     23 N6        276.1510  245.2190  319.5790 N.pl3     1 ADP401      0.0000 
     24 N1        273.8370  245.5850  319.2930 N.ar      1 ADP401      0.0000 
     25 C2        272.7870  246.4040  319.1020 C.ar      1 ADP401      0.0000 
     26 N3        272.8950  247.7380  318.9880 N.ar      1 ADP401      0.0000 
     27 C4        274.1020  248.3390  319.0630 C.ar      1 ADP401      0.0000 
@<TRIPOS>BOND
     1    1    2 ar   
     2    1    3 ar   
     3    1    4 ar   
     4    1    8 1    
     5    5    6 ar   
     6    5    7 ar   
     7    5    8 1    
     8    5    9 1    
     9    9   10 1    
    10   10   11 1    
    11   11   12 1    
    12   11   13 1    
    13   12   17 1    
    14   13   14 1    
    15   13   15 1    
    16   15   16 1    
    17   15   17 1    
    18   17   18 1    
    19   18   19 1    
    20   18   27 1    
    21   19   20 2    
    22   20   21 1    
    23   21   22 ar   
    24   21   27 ar   
    25   22   23 1    
    26   22   24 ar   
    27   24   25 ar   
    28   25   26 ar   
    29   26   27 ar   
@<TRIPOS>SUBSTRUCTURE
     1 ADP401      1 GROUP   
@<TRIPOS>SET
ATOM$ORANGE STATIC     ATOMS   COLORGROUP SYSTEM 
20 10 10 11 11 13 13 15 15 17 17 19 19 21 21 22 22 25 \
25 27 27 

