#    Name: 6c1h_4_ADP
#    Modification time : Fri May 22 19:33:03 2020

@<TRIPOS>MOLECULE
6c1h_4_ADP
   27    29     1     0     1
SMALL
NO_CHARGES


@<TRIPOS>ATOM
      1 PB        248.7080  273.0590  232.5050 P.3       1 ADP401      0.0000 
      2 O1B       249.2220  271.9190  231.6630 O.co2     1 ADP401      0.0000 
      3 O2B       247.8210  272.6480  233.6540 O.co2     1 ADP401      0.0000 
      4 O3B       248.2140  274.2410  231.7080 O.co2     1 ADP401      0.0000 
      5 PA        250.7300  274.9710  232.8030 P.3       1 ADP401      0.0000 
      6 O1A       250.9970  274.9540  231.3170 O.co2     1 ADP401      0.0000 
      7 O2A       249.9280  276.0790  233.4370 O.co2     1 ADP401      0.0000 
      8 O3A       250.0570  273.5700  233.2060 O.3       1 ADP401      0.0000 
      9 O5'       252.1260  274.8200  233.5810 O.3       1 ADP401      0.0000 
     10 C5'       252.1180  274.6130  234.9880 C.3       1 ADP401      0.0000 
     11 C4'       253.5300  274.2780  235.4340 C.3       1 ADP401      0.0000 
     12 O4'       254.3960  275.3690  235.1200 O.3       1 ADP401      0.0000 
     13 C3'       253.5870  274.0570  236.9330 C.3       1 ADP401      0.0000 
     14 O3'       253.9840  272.7150  237.2170 O.3       1 ADP401      0.0000 
     15 C2'       254.6490  275.0050  237.4370 C.3       1 ADP401      0.0000 
     16 O2'       255.6340  274.2790  238.1650 O.3       1 ADP401      0.0000 
     17 C1'       255.2730  275.6430  236.2120 C.3       1 ADP401      0.0000 
     18 N9        255.3690  277.1010  236.4440 N.pl3     1 ADP401      0.0000 
     19 C8        254.3210  277.9250  236.5890 C.2       1 ADP401      0.0000 
     20 N7        254.7270  279.2020  236.7900 N.2       1 ADP401      0.0000 
     21 C5        256.0700  279.2010  236.7860 C.ar      1 ADP401      0.0000 
     22 C6        257.1340  280.2170  236.9470 C.ar      1 ADP401      0.0000 
     23 N6        256.8390  281.5210  237.1590 N.pl3     1 ADP401      0.0000 
     24 N1        258.4140  279.7980  236.8710 N.ar      1 ADP401      0.0000 
     25 C2        258.7240  278.5070  236.6580 C.ar      1 ADP401      0.0000 
     26 N3        257.8090  277.5340  236.5060 N.ar      1 ADP401      0.0000 
     27 C4        256.4880  277.8130  236.5590 C.ar      1 ADP401      0.0000 
@<TRIPOS>BOND
     1    1    2 ar   
     2    1    3 ar   
     3    1    4 ar   
     4    1    8 1    
     5    5    6 ar   
     6    5    7 ar   
     7    5    8 1    
     8    5    9 1    
     9    9   10 1    
    10   10   11 1    
    11   11   12 1    
    12   11   13 1    
    13   12   17 1    
    14   13   14 1    
    15   13   15 1    
    16   15   16 1    
    17   15   17 1    
    18   17   18 1    
    19   18   19 1    
    20   18   27 1    
    21   19   20 2    
    22   20   21 1    
    23   21   22 ar   
    24   21   27 ar   
    25   22   23 1    
    26   22   24 ar   
    27   24   25 ar   
    28   25   26 ar   
    29   26   27 ar   
@<TRIPOS>SUBSTRUCTURE
     1 ADP401      1 GROUP   
@<TRIPOS>SET
ATOM$ORANGE STATIC     ATOMS   COLORGROUP SYSTEM 
20 10 10 11 11 13 13 15 15 17 17 19 19 21 21 22 22 25 \
25 27 27 

