#    Name: 6c1h_5_ADP
#    Modification time : Fri May 22 19:33:11 2020

@<TRIPOS>MOLECULE
6c1h_5_ADP
   27    29     1     0     1
SMALL
NO_CHARGES


@<TRIPOS>ATOM
      1 PB        268.2430  244.6120  204.7990 P.3       1 ADP401      0.0000 
      2 O1B       267.9730  245.7580  203.8560 O.co2     1 ADP401      0.0000 
      3 O2B       269.2640  244.8910  205.8750 O.co2     1 ADP401      0.0000 
      4 O3B       268.3800  243.2740  204.1140 O.co2     1 ADP401      0.0000 
      5 PA        265.7600  243.4180  205.1870 P.3       1 ADP401      0.0000 
      6 O1A       265.5170  243.5400  203.7020 O.co2     1 ADP401      0.0000 
      7 O2A       266.1620  242.1030  205.8090 O.co2     1 ADP401      0.0000 
      8 O3A       266.8520  244.5200  205.5930 O.3       1 ADP401      0.0000 
      9 O5'       264.4860  244.0030  205.9670 O.3       1 ADP401      0.0000 
     10 C5'       264.5100  244.0780  207.3870 C.3       1 ADP401      0.0000 
     11 C4'       263.2010  244.6970  207.8390 C.3       1 ADP401      0.0000 
     12 O4'       262.1330  243.7890  207.5640 O.3       1 ADP401      0.0000 
     13 C3'       263.1910  244.9890  209.3270 C.3       1 ADP401      0.0000 
     14 O3'       262.9730  246.3850  209.5380 O.3       1 ADP401      0.0000 
     15 C2'       262.0030  244.2410  209.8770 C.3       1 ADP401      0.0000 
     16 O2'       261.2030  245.1470  210.6290 O.3       1 ADP401      0.0000 
     17 C1'       261.2340  243.7380  208.6700 C.3       1 ADP401      0.0000 
     18 N9        260.8140  242.3420  208.9160 N.pl3     1 ADP401      0.0000 
     19 C8        261.6500  241.3050  209.0760 C.2       1 ADP401      0.0000 
     20 N7        260.9680  240.1540  209.2910 N.2       1 ADP401      0.0000 
     21 C5        259.6600  240.4590  209.2780 C.ar      1 ADP401      0.0000 
     22 C6        258.3950  239.7140  209.4440 C.ar      1 ADP401      0.0000 
     23 N6        258.3960  238.3800  209.6730 N.pl3     1 ADP401      0.0000 
     24 N1        257.2400  240.4090  209.3560 N.ar      1 ADP401      0.0000 
     25 C2        257.2260  241.7350  209.1270 C.ar      1 ADP401      0.0000 
     26 N3        258.3380  242.4740  208.9690 N.ar      1 ADP401      0.0000 
     27 C4        259.5630  241.9040  209.0330 C.ar      1 ADP401      0.0000 
@<TRIPOS>BOND
     1    1    2 ar   
     2    1    3 ar   
     3    1    4 ar   
     4    1    8 1    
     5    5    6 ar   
     6    5    7 ar   
     7    5    8 1    
     8    5    9 1    
     9    9   10 1    
    10   10   11 1    
    11   11   12 1    
    12   11   13 1    
    13   12   17 1    
    14   13   14 1    
    15   13   15 1    
    16   15   16 1    
    17   15   17 1    
    18   17   18 1    
    19   18   19 1    
    20   18   27 1    
    21   19   20 2    
    22   20   21 1    
    23   21   22 ar   
    24   21   27 ar   
    25   22   23 1    
    26   22   24 ar   
    27   24   25 ar   
    28   25   26 ar   
    29   26   27 ar   
@<TRIPOS>SUBSTRUCTURE
     1 ADP401      1 GROUP   
@<TRIPOS>SET
ATOM$ORANGE STATIC     ATOMS   COLORGROUP SYSTEM 
20 10 10 11 11 13 13 15 15 17 17 19 19 21 21 22 22 25 \
25 27 27 

