#    Name: 6c1h_3_ADP
#    Modification time : Fri May 22 19:32:57 2020

@<TRIPOS>MOLECULE
6c1h_3_ADP
   27    29     1     0     1
SMALL
NO_CHARGES


@<TRIPOS>ATOM
      1 PB        274.0790  249.8030  260.1560 P.3       1 ADP401      0.0000 
      2 O1B       273.2610  250.7580  259.3260 O.co2     1 ADP401      0.0000 
      3 O2B       274.8180  250.4410  261.3060 O.co2     1 ADP401      0.0000 
      4 O3B       274.8790  248.8120  259.3470 O.co2     1 ADP401      0.0000 
      5 PA        272.5350  247.4780  260.2960 P.3       1 ADP401      0.0000 
      6 O1A       272.2900  247.5910  258.8110 O.co2     1 ADP401      0.0000 
      7 O2A       273.5050  246.4670  260.8490 O.co2     1 ADP401      0.0000 
      8 O3A       272.9330  248.9280  260.8560 O.3       1 ADP401      0.0000 
      9 O5'       271.1290  247.3060  261.0420 O.3       1 ADP401      0.0000 
     10 C5'       271.0930  247.5020  262.4480 C.3       1 ADP401      0.0000 
     11 C4'       269.6480  247.4990  262.9130 C.3       1 ADP401      0.0000 
     12 O4'       269.0560  246.2370  262.6070 O.3       1 ADP401      0.0000 
     13 C3'       269.5630  247.6900  264.4150 C.3       1 ADP401      0.0000 
     14 O3'       268.8660  248.8970  264.7150 O.3       1 ADP401      0.0000 
     15 C2'       268.7510  246.5260  264.9280 C.3       1 ADP401      0.0000 
     16 O2'       267.6370  247.0000  265.6820 O.3       1 ADP401      0.0000 
     17 C1'       268.2630  245.7850  263.7010 C.3       1 ADP401      0.0000 
     18 N9        268.4720  244.3420  263.9330 N.pl3     1 ADP401      0.0000 
     19 C8        269.6680  243.7540  264.0710 C.2       1 ADP401      0.0000 
     20 N7        269.5380  242.4220  264.2790 N.2       1 ADP401      0.0000 
     21 C5        268.2240  242.1470  264.2900 C.ar      1 ADP401      0.0000 
     22 C6        267.3950  240.9340  264.4640 C.ar      1 ADP401      0.0000 
     23 N6        267.9580  239.7200  264.6760 N.pl3     1 ADP401      0.0000 
     24 N1        266.0550  241.0820  264.4010 N.ar      1 ADP401      0.0000 
     25 C2        265.4830  242.2800  264.1880 C.ar      1 ADP401      0.0000 
     26 N3        266.1750  243.4200  264.0240 N.ar      1 ADP401      0.0000 
     27 C4        267.5250  243.4170  264.0640 C.ar      1 ADP401      0.0000 
@<TRIPOS>BOND
     1    1    2 ar   
     2    1    3 ar   
     3    1    4 ar   
     4    1    8 1    
     5    5    6 ar   
     6    5    7 ar   
     7    5    8 1    
     8    5    9 1    
     9    9   10 1    
    10   10   11 1    
    11   11   12 1    
    12   11   13 1    
    13   12   17 1    
    14   13   14 1    
    15   13   15 1    
    16   15   16 1    
    17   15   17 1    
    18   17   18 1    
    19   18   19 1    
    20   18   27 1    
    21   19   20 2    
    22   20   21 1    
    23   21   22 ar   
    24   21   27 ar   
    25   22   23 1    
    26   22   24 ar   
    27   24   25 ar   
    28   25   26 ar   
    29   26   27 ar   
@<TRIPOS>SUBSTRUCTURE
     1 ADP401      1 GROUP   
@<TRIPOS>SET
ATOM$ORANGE STATIC     ATOMS   COLORGROUP SYSTEM 
20 10 10 11 11 13 13 15 15 17 17 19 19 21 21 22 22 25 \
25 27 27 

