#    Name: 6kyh_1_GNP
#    Modification time : Fri May 22 19:28:27 2020

@<TRIPOS>MOLECULE
6kyh_1_GNP
   32    34     1     0     1
SMALL
NO_CHARGES


@<TRIPOS>ATOM
      1 PG        -54.3730   15.9340   49.7790 P.3       1 GNP201      0.0000 
      2 O1G       -53.7340   15.7750   48.4180 O.co2     1 GNP201      0.0000 
      3 O2G       -55.3460   14.7970   49.9670 O.co2     1 GNP201      0.0000 
      4 O3G       -53.2840   15.7740   50.8160 O.co2     1 GNP201      0.0000 
      5 N3B       -54.9940   17.4500   49.9950 N.3       1 GNP201      0.0000 
      6 PB        -54.1310   18.6710   50.7130 P.3       1 GNP201      0.0000 
      7 O1B       -54.9550   19.4830   51.6560 O.co2     1 GNP201      0.0000 
      8 O2B       -52.8720   18.0910   51.2830 O.co2     1 GNP201      0.0000 
      9 O3A       -53.5880   19.7260   49.6220 O.3       1 GNP201      0.0000 
     10 PA        -52.0830   20.2830   49.5390 P.3       1 GNP201      0.0000 
     11 O1A       -51.3080   19.3040   48.7110 O.co2     1 GNP201      0.0000 
     12 O2A       -51.6980   20.5740   50.9600 O.co2     1 GNP201      0.0000 
     13 O5'       -52.2050   21.6660   48.7270 O.3       1 GNP201      0.0000 
     14 C5'       -52.6830   21.7190   47.3580 C.3       1 GNP201      0.0000 
     15 C4'       -51.6420   22.3200   46.4510 C.3       1 GNP201      0.0000 
     16 O4'       -51.9680   23.7050   46.1870 O.3       1 GNP201      0.0000 
     17 C3'       -50.2090   22.3080   46.9940 C.3       1 GNP201      0.0000 
     18 O3'       -49.3840   21.6340   46.0560 O.3       1 GNP201      0.0000 
     19 C2'       -49.8070   23.7780   47.1720 C.3       1 GNP201      0.0000 
     20 O2'       -48.7450   24.1580   46.3230 O.3       1 GNP201      0.0000 
     21 C1'       -51.0750   24.5680   46.8560 C.3       1 GNP201      0.0000 
     22 N9        -51.7260   25.1060   48.0480 N.pl3     1 GNP201      0.0000 
     23 C8        -52.1120   24.3830   49.1460 C.2       1 GNP201      0.0000 
     24 N7        -52.6720   25.1130   50.0820 N.2       1 GNP201      0.0000 
     25 C5        -52.6470   26.4090   49.5770 C.2       1 GNP201      0.0000 
     26 C6        -53.1070   27.6290   50.1460 C.2       1 GNP201      0.0000 
     27 O6        -53.6450   27.8060   51.2450 O.2       1 GNP201      0.0000 
     28 N1        -52.8690   28.7240   49.3150 N.am      1 GNP201      0.0000 
     29 C2        -52.2860   28.6440   48.0770 C.2       1 GNP201      0.0000 
     30 N2        -52.1610   29.7960   47.4090 N.pl3     1 GNP201      0.0000 
     31 N3        -51.8550   27.5030   47.5320 N.2       1 GNP201      0.0000 
     32 C4        -52.0580   26.4220   48.3300 C.2       1 GNP201      0.0000 
@<TRIPOS>BOND
     1    1    2 ar   
     2    1    3 ar   
     3    1    4 ar   
     4    1    5 1    
     5    5    6 1    
     6    6    7 ar   
     7    6    8 ar   
     8    6    9 1    
     9    9   10 1    
    10   10   11 ar   
    11   10   12 ar   
    12   10   13 1    
    13   13   14 1    
    14   14   15 1    
    15   15   16 1    
    16   15   17 1    
    17   16   21 1    
    18   17   18 1    
    19   17   19 1    
    20   19   20 1    
    21   19   21 1    
    22   21   22 1    
    23   22   23 1    
    24   22   32 1    
    25   23   24 2    
    26   24   25 1    
    27   25   26 1    
    28   25   32 2    
    29   26   27 2    
    30   26   28 am   
    31   28   29 1    
    32   29   30 1    
    33   29   31 2    
    34   31   32 1    
@<TRIPOS>SUBSTRUCTURE
     1 GNP201      1 GROUP   
@<TRIPOS>SET
ATOM$ORANGE STATIC     ATOMS   COLORGROUP SYSTEM 
20 14 14 15 15 17 17 19 19 21 21 23 23 25 25 26 26 29 \
29 32 32 

