#    Name: 6kyh_4_GNP
#    Modification time : Fri May 22 19:28:41 2020

@<TRIPOS>MOLECULE
6kyh_4_GNP
   32    34     1     0     1
SMALL
NO_CHARGES


@<TRIPOS>ATOM
      1 PG        -20.9560  -63.0930  -21.7790 P.3       1 GNP201      0.0000 
      2 O1G       -20.7680  -61.8240  -22.5790 O.co2     1 GNP201      0.0000 
      3 O2G       -19.5600  -63.6720  -21.5620 O.co2     1 GNP201      0.0000 
      4 O3G       -21.6000  -62.7240  -20.4560 O.co2     1 GNP201      0.0000 
      5 N3B       -22.0310  -64.0890  -22.4890 N.3       1 GNP201      0.0000 
      6 PB        -23.0900  -64.8790  -21.5380 P.3       1 GNP201      0.0000 
      7 O1B       -22.4020  -66.0840  -21.0220 O.co2     1 GNP201      0.0000 
      8 O2B       -23.6220  -63.9260  -20.5040 O.co2     1 GNP201      0.0000 
      9 O3A       -24.3330  -65.4500  -22.3660 O.3       1 GNP201      0.0000 
     10 PA        -25.7600  -64.7610  -22.0860 P.3       1 GNP201      0.0000 
     11 O1A       -25.5100  -63.4710  -21.3800 O.co2     1 GNP201      0.0000 
     12 O2A       -26.6540  -65.7570  -21.4260 O.co2     1 GNP201      0.0000 
     13 O5'       -26.3100  -64.4430  -23.5490 O.3       1 GNP201      0.0000 
     14 C5'       -27.5910  -63.7860  -23.5780 C.3       1 GNP201      0.0000 
     15 C4'       -28.1030  -63.7840  -24.9920 C.3       1 GNP201      0.0000 
     16 O4'       -28.2250  -65.1520  -25.4580 O.3       1 GNP201      0.0000 
     17 C3'       -29.4840  -63.1510  -25.1600 C.3       1 GNP201      0.0000 
     18 O3'       -29.5260  -62.3860  -26.3550 O.3       1 GNP201      0.0000 
     19 C2'       -30.4310  -64.3550  -25.1590 C.3       1 GNP201      0.0000 
     20 O2'       -31.5160  -64.1580  -26.0320 O.3       1 GNP201      0.0000 
     21 C1'       -29.5750  -65.4940  -25.6920 C.3       1 GNP201      0.0000 
     22 N9        -29.8900  -66.7650  -25.0410 N.pl3     1 GNP201      0.0000 
     23 C8        -29.3220  -67.2620  -23.8950 C.2       1 GNP201      0.0000 
     24 N7        -29.8140  -68.4200  -23.5180 N.2       1 GNP201      0.0000 
     25 C5        -30.7890  -68.6980  -24.4670 C.2       1 GNP201      0.0000 
     26 C6        -31.6630  -69.8120  -24.5810 C.2       1 GNP201      0.0000 
     27 O6        -31.7620  -70.7870  -23.8280 O.2       1 GNP201      0.0000 
     28 N1        -32.5030  -69.7060  -25.6910 N.am      1 GNP201      0.0000 
     29 C2        -32.4900  -68.6690  -26.5880 C.2       1 GNP201      0.0000 
     30 N2        -33.3830  -68.7390  -27.5850 N.pl3     1 GNP201      0.0000 
     31 N3        -31.6620  -67.6230  -26.4910 N.2       1 GNP201      0.0000 
     32 C4        -30.8470  -67.6910  -25.4080 C.2       1 GNP201      0.0000 
@<TRIPOS>BOND
     1    1    2 ar   
     2    1    3 ar   
     3    1    4 ar   
     4    1    5 1    
     5    5    6 1    
     6    6    7 ar   
     7    6    8 ar   
     8    6    9 1    
     9    9   10 1    
    10   10   11 ar   
    11   10   12 ar   
    12   10   13 1    
    13   13   14 1    
    14   14   15 1    
    15   15   16 1    
    16   15   17 1    
    17   16   21 1    
    18   17   18 1    
    19   17   19 1    
    20   19   20 1    
    21   19   21 1    
    22   21   22 1    
    23   22   23 1    
    24   22   32 1    
    25   23   24 2    
    26   24   25 1    
    27   25   26 1    
    28   25   32 2    
    29   26   27 2    
    30   26   28 am   
    31   28   29 1    
    32   29   30 1    
    33   29   31 2    
    34   31   32 1    
@<TRIPOS>SUBSTRUCTURE
     1 GNP201      1 GROUP   
@<TRIPOS>SET
ATOM$ORANGE STATIC     ATOMS   COLORGROUP SYSTEM 
20 14 14 15 15 17 17 19 19 21 21 23 23 25 25 26 26 29 \
29 32 32 

