#    Name: 6kyh_4_GNP_CAVITY_N1_4
#    Modification time : Fri May 22 19:28:43 2020

@<TRIPOS>MOLECULE
6kyh_4_GNP_CAVITY_N1_4
   78     0     7     0     0
SMALL
NO_CHARGES


@<TRIPOS>ATOM
      1 OG        -25.0900  -64.5000  -21.6900 O.3       1 SER1        0.0000 
      2 O         -31.1400  -68.9100  -25.0500 O.2       2 ALA2        0.0000 
      3 O         -30.5300  -67.9500  -24.0800 O.2       2 ALA2        0.0000 
      4 N         -32.1300  -64.3000  -26.6400 N.am      2 ALA2        0.0000 
      5 N         -31.6700  -64.8000  -24.1300 N.am      2 ALA2        0.0000 
      6 N         -30.6300  -64.4400  -25.1500 N.am      2 ALA2        0.0000 
      7 N         -29.5900  -64.0800  -26.1600 N.am      2 ALA2        0.0000 
      8 N         -30.0100  -63.4900  -24.1700 N.am      2 ALA2        0.0000 
      9 N         -28.9700  -63.1200  -25.1900 N.am      2 ALA2        0.0000 
     10 O         -27.2000  -65.3200  -24.1500 O.2       2 ALA2        0.0000 
     11 N         -28.5100  -63.6300  -22.6800 N.am      2 ALA2        0.0000 
     12 N         -28.3500  -62.1700  -24.2100 N.am      2 ALA2        0.0000 
     13 O         -26.5900  -64.3600  -23.1800 O.2       2 ALA2        0.0000 
     14 O         -25.7000  -65.4600  -22.6600 O.2       2 ALA2        0.0000 
     15 N         -27.8900  -62.6700  -21.7000 N.am      2 ALA2        0.0000 
     16 O         -26.8500  -62.3100  -22.7200 O.2       2 ALA2        0.0000 
     17 N         -28.1600  -60.6100  -21.2400 N.am      2 ALA2        0.0000 
     18 N         -26.2300  -61.3500  -21.7400 N.am      2 ALA2        0.0000 
     19 N         -25.3500  -62.4500  -21.2300 N.am      2 ALA2        0.0000 
     20 N         -24.3100  -62.0900  -22.2400 N.am      2 ALA2        0.0000 
     21 N         -26.6600  -60.7500  -19.7500 N.am      2 ALA2        0.0000 
     22 OD1       -35.0300  -67.5300  -28.5600 O.co2     3 ASP3        0.0000 
     23 OD1       -32.4800  -67.3100  -28.0800 O.co2     3 ASP3        0.0000 
     24 OD1       -31.6000  -68.4100  -27.5600 O.co2     3 ASP3        0.0000 
     25 OD1       -31.4400  -66.9500  -29.0900 O.co2     3 ASP3        0.0000 
     26 OD1       -31.8700  -66.3600  -27.1000 O.co2     3 ASP3        0.0000 
     27 OD1       -30.9800  -67.4500  -26.5900 O.co2     3 ASP3        0.0000 
     28 OD1       -30.8200  -65.9900  -28.1200 O.co2     3 ASP3        0.0000 
     29 OD1       -30.3700  -66.5000  -25.6100 O.co2     3 ASP3        0.0000 
     30 OD1       -29.4800  -67.5900  -25.0900 O.co2     3 ASP3        0.0000 
     31 OD1       -30.2000  -65.0400  -27.1400 O.co2     3 ASP3        0.0000 
     32 OD1       -29.7500  -65.5400  -24.6300 O.co2     3 ASP3        0.0000 
     33 OD1       -28.7000  -65.1800  -25.6500 O.co2     3 ASP3        0.0000 
     34 OD1       -27.8200  -66.2700  -25.1300 O.co2     3 ASP3        0.0000 
     35 OD1       -27.6600  -64.8200  -26.6600 O.co2     3 ASP3        0.0000 
     36 OD1       -23.4200  -63.1800  -21.7200 O.co2     3 ASP3        0.0000 
     37 NZ        -34.1400  -68.6300  -28.0400 N.4       4 LYS4        0.0000 
     38 NZ        -32.6400  -68.7700  -26.5500 N.4       4 LYS4        0.0000 
     39 CZ        -33.0700  -68.1800  -24.5600 C.ar      5 PHE5        0.0000 
     40 CZ        -32.1900  -69.2700  -24.0400 C.ar      5 PHE5        0.0000 
     41 CZ        -33.7900  -65.6200  -26.6000 C.ar      5 PHE5        0.0000 
     42 CZ        -32.9100  -66.7200  -26.0900 C.ar      5 PHE5        0.0000 
     43 CZ        -32.0300  -67.8100  -25.5700 C.ar      5 PHE5        0.0000 
     44 CZ        -31.4100  -66.8600  -24.5900 C.ar      5 PHE5        0.0000 
     45 CZ        -31.2500  -65.4000  -26.1300 C.ar      5 PHE5        0.0000 
     46 CZ        -30.7900  -65.9000  -23.6200 C.ar      5 PHE5        0.0000 
     47 CZ        -27.0400  -63.8600  -25.6900 C.ar      5 PHE5        0.0000 
     48 CZ        -26.4200  -62.9000  -24.7100 C.ar      5 PHE5        0.0000 
     49 CZ        -24.9200  -63.0400  -23.2200 C.ar      5 PHE5        0.0000 
     50 CZ        -22.3800  -62.8200  -22.7400 C.ar      5 PHE5        0.0000 
     51 CA        -33.9800  -67.1700  -29.5700 C.3       6 GLY6        0.0000 
     52 CA        -33.1000  -68.2700  -29.0500 C.3       6 GLY6        0.0000 
     53 CA        -32.2200  -69.3700  -28.5400 C.3       6 GLY6        0.0000 
     54 CA        -32.0600  -67.9100  -30.0700 C.3       6 GLY6        0.0000 
     55 CA        -31.1700  -69.0000  -29.5500 C.3       6 GLY6        0.0000 
     56 CA        -33.6900  -69.1300  -25.5300 C.3       6 GLY6        0.0000 
     57 CA        -34.4100  -66.5800  -27.5800 C.3       6 GLY6        0.0000 
     58 CA        -33.5300  -67.6700  -27.0600 C.3       6 GLY6        0.0000 
     59 CA        -31.7600  -69.8700  -26.0300 C.3       6 GLY6        0.0000 
     60 CA        -31.5700  -68.3200  -23.0600 C.3       6 GLY6        0.0000 
     61 CA        -29.9100  -67.0000  -23.1000 C.3       6 GLY6        0.0000 
     62 CA        -28.8600  -66.6400  -24.1200 C.3       6 GLY6        0.0000 
     63 CA        -30.1700  -64.9400  -22.6400 C.3       6 GLY6        0.0000 
     64 CA        -29.1300  -64.5800  -23.6600 C.3       6 GLY6        0.0000 
     65 CA        -28.2500  -65.6800  -23.1400 C.3       6 GLY6        0.0000 
     66 CA        -27.9300  -62.7600  -26.2000 C.3       6 GLY6        0.0000 
     67 CA        -26.1600  -64.9600  -25.1700 C.3       6 GLY6        0.0000 
     68 CA        -27.6300  -64.7200  -22.1600 C.3       6 GLY6        0.0000 
     69 CA        -27.4700  -63.2600  -23.7000 C.3       6 GLY6        0.0000 
     70 CA        -25.5400  -64.0000  -24.1900 C.3       6 GLY6        0.0000 
     71 CA        -27.0100  -63.7700  -21.1900 C.3       6 GLY6        0.0000 
     72 CA        -25.9700  -63.4000  -22.2000 C.3       6 GLY6        0.0000 
     73 CA        -24.0400  -64.1400  -22.7000 C.3       6 GLY6        0.0000 
     74 CA        -27.2800  -61.7100  -20.7300 C.3       6 GLY6        0.0000 
     75 DU        -33.3700  -66.2200  -28.5900 H         7 CUB7        0.0000 
     76 DU        -32.7500  -65.2600  -27.6200 H         7 CUB7        0.0000 
     77 DU        -28.5400  -63.7200  -27.1800 H         7 CUB7        0.0000 
     78 DU        -28.0900  -64.2200  -24.6700 H         7 CUB7        0.0000 
@<TRIPOS>BOND
@<TRIPOS>SUBSTRUCTURE
     1 SER1        1 GROUP   
     2 ALA2        2 GROUP   
     3 ASP3       22 GROUP   
     4 LYS4       37 GROUP   
     5 PHE5       39 GROUP   
     6 GLY6       51 GROUP   
     7 CUB7       75 GROUP   
@<TRIPOS>SET

