#    Name: 6kyh_2_GNP_CAVITY_N1_4
#    Modification time : Fri May 22 19:28:34 2020

@<TRIPOS>MOLECULE
6kyh_2_GNP_CAVITY_N1_4
   84     0     7     0     0
SMALL
NO_CHARGES


@<TRIPOS>ATOM
      1 OG        -91.6000  -46.5400   60.4200 O.3       1 SER1        0.0000 
      2 O         -94.2900  -56.8000   60.6500 O.2       2 ALA2        0.0000 
      3 O         -94.2000  -51.7400   62.5500 O.2       2 ALA2        0.0000 
      4 N         -93.5900  -50.7800   63.5200 N.am      2 ALA2        0.0000 
      5 O         -94.3100  -48.2200   61.4700 O.2       2 ALA2        0.0000 
      6 O         -93.4200  -49.3200   61.9900 O.2       2 ALA2        0.0000 
      7 N         -90.7800  -52.6100   63.5400 N.am      2 ALA2        0.0000 
      8 N         -89.8900  -53.7100   64.0600 N.am      2 ALA2        0.0000 
      9 N         -89.0100  -54.8100   64.5700 N.am      2 ALA2        0.0000 
     10 O         -93.2600  -47.8600   60.4600 O.2       2 ALA2        0.0000 
     11 N         -90.6200  -51.1500   62.0100 N.am      2 ALA2        0.0000 
     12 N         -89.7300  -52.2500   62.5300 N.am      2 ALA2        0.0000 
     13 O         -94.5700  -46.1700   61.9300 O.2       2 ALA2        0.0000 
     14 N         -90.1600  -51.6600   64.5200 N.am      2 ALA2        0.0000 
     15 N         -90.0000  -50.2000   62.9900 N.am      2 ALA2        0.0000 
     16 N         -89.1100  -51.2900   63.5000 N.am      2 ALA2        0.0000 
     17 N         -89.8400  -48.7400   61.4500 N.am      2 ALA2        0.0000 
     18 N         -88.9500  -49.8400   61.9700 N.am      2 ALA2        0.0000 
     19 N         -89.5400  -50.7000   65.4900 N.am      2 ALA2        0.0000 
     20 N         -90.1000  -46.6800   61.9100 N.am      2 ALA2        0.0000 
     21 N         -89.2200  -47.7800   62.4300 N.am      2 ALA2        0.0000 
     22 OD1       -94.2600  -56.7100   65.1500 O.co2     3 ASP3        0.0000 
     23 OD1       -93.2200  -56.3500   64.1400 O.co2     3 ASP3        0.0000 
     24 OD1       -93.0500  -54.8900   62.6000 O.co2     3 ASP3        0.0000 
     25 OD1       -92.6000  -55.3900   65.1100 O.co2     3 ASP3        0.0000 
     26 OD1       -93.3200  -52.8300   63.0600 O.co2     3 ASP3        0.0000 
     27 OD1       -92.4400  -53.9300   63.5800 O.co2     3 ASP3        0.0000 
     28 OD1       -92.8600  -53.3400   65.5700 O.co2     3 ASP3        0.0000 
     29 OD1       -92.7000  -51.8800   64.0400 O.co2     3 ASP3        0.0000 
     30 OD1       -91.8200  -52.9700   64.5600 O.co2     3 ASP3        0.0000 
     31 OD1       -95.1900  -47.1300   60.9600 O.co2     3 ASP3        0.0000 
     32 OD1       -94.1500  -46.7700   59.9400 O.co2     3 ASP3        0.0000 
     33 OD1       -95.4600  -45.0700   61.4200 O.co2     3 ASP3        0.0000 
     34 OD1       -94.4100  -44.7100   60.4000 O.co2     3 ASP3        0.0000 
     35 OD1       -93.5300  -45.8100   60.9200 O.co2     3 ASP3        0.0000 
     36 NZ        -93.4100  -57.9000   61.1700 N.4       4 LYS4        0.0000 
     37 NZ        -92.9500  -58.4000   63.6800 N.4       4 LYS4        0.0000 
     38 NZ        -91.9100  -58.0400   62.6600 N.4       4 LYS4        0.0000 
     39 CZ        -92.7900  -56.9400   62.1400 C.ar      5 PHE5        0.0000 
     40 CZ        -91.7500  -56.5800   61.1300 C.ar      5 PHE5        0.0000 
     41 CZ        -92.1700  -55.9900   63.1200 C.ar      5 PHE5        0.0000 
     42 CZ        -91.2900  -57.0800   63.6400 C.ar      5 PHE5        0.0000 
     43 CZ        -92.0100  -54.5300   61.5900 C.ar      5 PHE5        0.0000 
     44 CZ        -91.5500  -55.0300   64.1000 C.ar      5 PHE5        0.0000 
     45 CZ        -90.6700  -56.1300   64.6100 C.ar      5 PHE5        0.0000 
     46 CZ        -91.3900  -53.5700   62.5700 C.ar      5 PHE5        0.0000 
     47 CZ        -90.5100  -54.6700   63.0800 C.ar      5 PHE5        0.0000 
     48 CZ        -88.7500  -56.8600   64.1200 C.ar      5 PHE5        0.0000 
     49 CZ        -92.9700  -49.8200   64.5000 C.ar      5 PHE5        0.0000 
     50 CZ        -92.8100  -48.3600   62.9700 C.ar      5 PHE5        0.0000 
     51 CZ        -91.9200  -49.4600   63.4800 C.ar      5 PHE5        0.0000 
     52 CZ        -92.6500  -46.9100   61.4400 C.ar      5 PHE5        0.0000 
     53 CZ        -91.7600  -48.0000   61.9500 C.ar      5 PHE5        0.0000 
     54 CZ        -94.8400  -44.1200   62.3900 C.ar      5 PHE5        0.0000 
     55 CZ        -92.9100  -44.8500   61.9000 C.ar      5 PHE5        0.0000 
     56 CZ        -92.0300  -45.9500   62.4100 C.ar      5 PHE5        0.0000 
     57 CA        -93.8300  -57.3000   63.1600 C.3       6 GLY6        0.0000 
     58 CA        -93.6700  -55.8500   61.6300 C.3       6 GLY6        0.0000 
     59 CA        -92.6300  -55.4800   60.6100 C.3       6 GLY6        0.0000 
     60 CA        -92.3300  -57.4400   64.6500 C.3       6 GLY6        0.0000 
     61 CA        -93.9400  -53.7900   62.0900 C.3       6 GLY6        0.0000 
     62 CA        -90.4100  -58.1800   64.1500 C.3       6 GLY6        0.0000 
     63 CA        -92.8900  -53.4300   61.0700 C.3       6 GLY6        0.0000 
     64 CA        -93.1600  -51.3800   61.5300 C.3       6 GLY6        0.0000 
     65 CA        -92.2800  -52.4700   62.0500 C.3       6 GLY6        0.0000 
     66 CA        -92.1200  -51.0100   60.5200 C.3       6 GLY6        0.0000 
     67 CA        -91.2300  -52.1100   61.0300 C.3       6 GLY6        0.0000 
     68 CA        -92.5400  -50.4200   62.5100 C.3       6 GLY6        0.0000 
     69 CA        -92.3800  -48.9600   60.9800 C.3       6 GLY6        0.0000 
     70 CA        -91.5000  -50.0600   61.4900 C.3       6 GLY6        0.0000 
     71 CA        -91.3400  -48.6000   59.9600 C.3       6 GLY6        0.0000 
     72 CA        -90.4500  -49.7000   60.4800 C.3       6 GLY6        0.0000 
     73 CA        -89.5700  -50.7900   60.9900 C.3       6 GLY6        0.0000 
     74 CA        -93.6900  -47.2700   62.4500 C.3       6 GLY6        0.0000 
     75 CA        -91.0400  -50.5600   64.0000 C.3       6 GLY6        0.0000 
     76 CA        -90.8800  -49.1000   62.4700 C.3       6 GLY6        0.0000 
     77 CA        -90.7200  -47.6400   60.9400 C.3       6 GLY6        0.0000 
     78 CA        -89.6800  -47.2800   59.9200 C.3       6 GLY6        0.0000 
     79 CA        -88.7900  -48.3800   60.4400 C.3       6 GLY6        0.0000 
     80 CA        -91.4700  -49.9600   65.9900 C.3       6 GLY6        0.0000 
     81 DU        -90.9400  -54.0700   65.0700 H         7 CUB7        0.0000 
     82 DU        -91.6600  -51.5200   63.0200 H         7 CUB7        0.0000 
     83 DU        -92.0800  -50.9200   65.0200 H         7 CUB7        0.0000 
     84 DU        -91.2000  -52.0200   65.5300 H         7 CUB7        0.0000 
@<TRIPOS>BOND
@<TRIPOS>SUBSTRUCTURE
     1 SER1        1 GROUP   
     2 ALA2        2 GROUP   
     3 ASP3       22 GROUP   
     4 LYS4       36 GROUP   
     5 PHE5       39 GROUP   
     6 GLY6       57 GROUP   
     7 CUB7       81 GROUP   
@<TRIPOS>SET

