#    Name: 6kyh_3_GNP
#    Modification time : Fri May 22 19:28:37 2020

@<TRIPOS>MOLECULE
6kyh_3_GNP
   32    34     1     0     1
SMALL
NO_CHARGES


@<TRIPOS>ATOM
      1 PG        -17.6150   34.5130   21.9780 P.3       1 GNP201      0.0000 
      2 O1G       -17.4920   33.2130   22.7290 O.co2     1 GNP201      0.0000 
      3 O2G       -16.2560   35.1570   21.8000 O.co2     1 GNP201      0.0000 
      4 O3G       -18.1970   34.2060   20.6090 O.co2     1 GNP201      0.0000 
      5 N3B       -18.7200   35.4370   22.7160 N.3       1 GNP201      0.0000 
      6 PB        -19.7970   36.2170   21.7620 P.3       1 GNP201      0.0000 
      7 O1B       -19.1540   37.4830   21.3120 O.co2     1 GNP201      0.0000 
      8 O2B       -20.3040   35.2750   20.6960 O.co2     1 GNP201      0.0000 
      9 O3A       -21.0620   36.7000   22.6190 O.3       1 GNP201      0.0000 
     10 PA        -22.4880   36.0420   22.3430 P.3       1 GNP201      0.0000 
     11 O1A       -22.1890   34.7870   21.5880 O.co2     1 GNP201      0.0000 
     12 O2A       -23.3750   37.0780   21.7480 O.co2     1 GNP201      0.0000 
     13 O5'       -23.0230   35.6760   23.8000 O.3       1 GNP201      0.0000 
     14 C5'       -24.3690   35.1770   23.7930 C.3       1 GNP201      0.0000 
     15 C4'       -24.8810   35.1620   25.2040 C.3       1 GNP201      0.0000 
     16 O4'       -24.9840   36.5240   25.6790 O.3       1 GNP201      0.0000 
     17 C3'       -26.2720   34.5500   25.3560 C.3       1 GNP201      0.0000 
     18 O3'       -26.3320   33.7810   26.5440 O.3       1 GNP201      0.0000 
     19 C2'       -27.2070   35.7570   25.3790 C.3       1 GNP201      0.0000 
     20 O2'       -28.3040   35.5880   26.2480 O.3       1 GNP201      0.0000 
     21 C1'       -26.3290   36.8670   25.9330 C.3       1 GNP201      0.0000 
     22 N9        -26.6470   38.1400   25.3020 N.pl3     1 GNP201      0.0000 
     23 C8        -26.1080   38.6330   24.1440 C.2       1 GNP201      0.0000 
     24 N7        -26.5910   39.8040   23.8000 N.2       1 GNP201      0.0000 
     25 C5        -27.5430   40.0810   24.7750 C.2       1 GNP201      0.0000 
     26 C6        -28.4120   41.1950   24.9200 C.2       1 GNP201      0.0000 
     27 O6        -28.5050   42.1880   24.1900 O.2       1 GNP201      0.0000 
     28 N1        -29.2370   41.0720   26.0410 N.am      1 GNP201      0.0000 
     29 C2        -29.2070   40.0240   26.9280 C.2       1 GNP201      0.0000 
     30 N2        -30.0600   40.0840   27.9610 N.pl3     1 GNP201      0.0000 
     31 N3        -28.3860   38.9790   26.7980 N.2       1 GNP201      0.0000 
     32 C4        -27.5920   39.0620   25.7000 C.2       1 GNP201      0.0000 
@<TRIPOS>BOND
     1    1    2 ar   
     2    1    3 ar   
     3    1    4 ar   
     4    1    5 1    
     5    5    6 1    
     6    6    7 ar   
     7    6    8 ar   
     8    6    9 1    
     9    9   10 1    
    10   10   11 ar   
    11   10   12 ar   
    12   10   13 1    
    13   13   14 1    
    14   14   15 1    
    15   15   16 1    
    16   15   17 1    
    17   16   21 1    
    18   17   18 1    
    19   17   19 1    
    20   19   20 1    
    21   19   21 1    
    22   21   22 1    
    23   22   23 1    
    24   22   32 1    
    25   23   24 2    
    26   24   25 1    
    27   25   26 1    
    28   25   32 2    
    29   26   27 2    
    30   26   28 am   
    31   28   29 1    
    32   29   30 1    
    33   29   31 2    
    34   31   32 1    
@<TRIPOS>SUBSTRUCTURE
     1 GNP201      1 GROUP   
@<TRIPOS>SET
ATOM$ORANGE STATIC     ATOMS   COLORGROUP SYSTEM 
20 14 14 15 15 17 17 19 19 21 21 23 23 25 25 26 26 29 \
29 32 32 

