#    Name: 6kyh_2_GNP
#    Modification time : Fri May 22 19:28:32 2020

@<TRIPOS>MOLECULE
6kyh_2_GNP
   32    34     1     0     1
SMALL
NO_CHARGES


@<TRIPOS>ATOM
      1 PG        -94.7120  -44.4780   60.9270 P.3       1 GNP201      0.0000 
      2 O1G       -94.2490  -43.9340   62.2510 O.co2     1 GNP201      0.0000 
      3 O2G       -95.7880  -43.5100   60.4830 O.co2     1 GNP201      0.0000 
      4 O3G       -93.6160  -44.4650   59.8810 O.co2     1 GNP201      0.0000 
      5 N3B       -95.1430  -46.0770   61.0720 N.3       1 GNP201      0.0000 
      6 PB        -94.3340  -47.3540   60.3840 P.3       1 GNP201      0.0000 
      7 O1B       -95.1950  -48.1780   59.4770 O.co2     1 GNP201      0.0000 
      8 O2B       -93.1000  -46.7790   59.7680 O.co2     1 GNP201      0.0000 
      9 O3A       -93.7810  -48.3580   61.5010 O.3       1 GNP201      0.0000 
     10 PA        -92.2230  -48.6880   61.5910 P.3       1 GNP201      0.0000 
     11 O1A       -91.5690  -47.5670   62.3420 O.co2     1 GNP201      0.0000 
     12 O2A       -91.7910  -48.9260   60.1910 O.co2     1 GNP201      0.0000 
     13 O5'       -92.1300  -50.0740   62.4060 O.3       1 GNP201      0.0000 
     14 C5'       -92.8030  -50.2840   63.6700 C.3       1 GNP201      0.0000 
     15 C4'       -91.9100  -51.0270   64.6320 C.3       1 GNP201      0.0000 
     16 O4'       -92.2990  -52.4210   64.6840 O.3       1 GNP201      0.0000 
     17 C3'       -90.4180  -51.0410   64.2950 C.3       1 GNP201      0.0000 
     18 O3'       -89.6390  -51.0580   65.4820 O.3       1 GNP201      0.0000 
     19 C2'       -90.2350  -52.3330   63.5000 C.3       1 GNP201      0.0000 
     20 O2'       -88.9660  -52.9060   63.7270 O.3       1 GNP201      0.0000 
     21 C1'       -91.3550  -53.2320   64.0210 C.3       1 GNP201      0.0000 
     22 N9        -92.0170  -53.9300   62.9260 N.pl3     1 GNP201      0.0000 
     23 C8        -92.3760  -53.3470   61.7400 C.2       1 GNP201      0.0000 
     24 N7        -92.9110  -54.1830   60.8870 N.2       1 GNP201      0.0000 
     25 C5        -92.8980  -55.4040   61.5460 C.2       1 GNP201      0.0000 
     26 C6        -93.3390  -56.6770   61.1030 C.2       1 GNP201      0.0000 
     27 O6        -93.8410  -56.9760   60.0100 O.2       1 GNP201      0.0000 
     28 N1        -93.1310  -57.6520   62.0830 N.am      1 GNP201      0.0000 
     29 C2        -92.5830  -57.4280   63.3250 C.2       1 GNP201      0.0000 
     30 N2        -92.4680  -58.4890   64.1380 N.pl3     1 GNP201      0.0000 
     31 N3        -92.1630  -56.2310   63.7400 N.2       1 GNP201      0.0000 
     32 C4        -92.3450  -55.2660   62.8040 C.2       1 GNP201      0.0000 
@<TRIPOS>BOND
     1    1    2 ar   
     2    1    3 ar   
     3    1    4 ar   
     4    1    5 1    
     5    5    6 1    
     6    6    7 ar   
     7    6    8 ar   
     8    6    9 1    
     9    9   10 1    
    10   10   11 ar   
    11   10   12 ar   
    12   10   13 1    
    13   13   14 1    
    14   14   15 1    
    15   15   16 1    
    16   15   17 1    
    17   16   21 1    
    18   17   18 1    
    19   17   19 1    
    20   19   20 1    
    21   19   21 1    
    22   21   22 1    
    23   22   23 1    
    24   22   32 1    
    25   23   24 2    
    26   24   25 1    
    27   25   26 1    
    28   25   32 2    
    29   26   27 2    
    30   26   28 am   
    31   28   29 1    
    32   29   30 1    
    33   29   31 2    
    34   31   32 1    
@<TRIPOS>SUBSTRUCTURE
     1 GNP201      1 GROUP   
@<TRIPOS>SET
ATOM$ORANGE STATIC     ATOMS   COLORGROUP SYSTEM 
20 14 14 15 15 17 17 19 19 21 21 23 23 25 25 26 26 29 \
29 32 32 

