#    Name: 6a3j_3_SOE_CAVITY_N1_4
#    Modification time : Fri May 22 19:30:15 2020

@<TRIPOS>MOLECULE
6a3j_3_SOE_CAVITY_N1_4
   52     0     7     0     0
SMALL
NO_CHARGES


@<TRIPOS>ATOM
      1 OG        -38.8300    9.6700  -37.1800 O.3       1 SER1        0.0000 
      2 OG        -37.5600    9.6700  -37.9800 O.3       1 SER1        0.0000 
      3 OG        -36.4700   11.1400  -39.0600 O.3       1 SER1        0.0000 
      4 OG        -38.0500   10.0000  -35.9400 O.3       1 SER1        0.0000 
      5 OG        -36.7800   10.0000  -36.7400 O.3       1 SER1        0.0000 
      6 N         -40.1000    9.6700  -36.3800 N.am      2 ALA2        0.0000 
      7 O         -40.9400   12.9200  -34.9000 O.2       2 ALA2        0.0000 
      8 N         -40.7600   11.4600  -34.6200 N.am      2 ALA2        0.0000 
      9 O         -39.8500   14.3900  -35.9800 O.2       2 ALA2        0.0000 
     10 O         -39.6700   12.9300  -35.7000 O.2       2 ALA2        0.0000 
     11 O         -39.4900   11.4600  -35.4200 O.2       2 ALA2        0.0000 
     12 O         -38.2200   11.4600  -36.2200 O.2       2 ALA2        0.0000 
     13 O         -39.0700   14.7200  -34.7400 O.2       2 ALA2        0.0000 
     14 O         -38.8900   13.2600  -34.4600 O.2       2 ALA2        0.0000 
     15 O         -37.4400   11.8000  -34.9800 O.2       2 ALA2        0.0000 
     16 OD1       -39.9700   12.2600  -38.9700 O.co2     3 ASP3        0.0000 
     17 OD1       -39.7900   10.8000  -38.6900 O.co2     3 ASP3        0.0000 
     18 OD1       -42.2500   16.9800  -36.9700 O.co2     3 ASP3        0.0000 
     19 OD1       -42.0800   15.5200  -36.6900 O.co2     3 ASP3        0.0000 
     20 OD1       -40.8100   15.5200  -37.4900 O.co2     3 ASP3        0.0000 
     21 OD1       -40.6300   14.0600  -37.2100 O.co2     3 ASP3        0.0000 
     22 OD1       -40.4500   12.5900  -36.9300 O.co2     3 ASP3        0.0000 
     23 OD1       -39.5400   15.5200  -38.3000 O.co2     3 ASP3        0.0000 
     24 OD1       -39.3600   14.0600  -38.0200 O.co2     3 ASP3        0.0000 
     25 OD1       -39.1800   12.6000  -37.7400 O.co2     3 ASP3        0.0000 
     26 NZ        -41.0600   10.8000  -37.8900 N.4       4 LYS4        0.0000 
     27 NZ        -41.7200   12.5900  -36.1300 N.4       4 LYS4        0.0000 
     28 NZ        -41.5400   11.1300  -35.8500 N.4       4 LYS4        0.0000 
     29 NZ        -40.2700   11.1300  -36.6500 N.4       4 LYS4        0.0000 
     30 CZ        -40.0300   15.8500  -36.2600 C.ar      5 PHE5        0.0000 
     31 CZ        -39.2400   16.1800  -35.0200 C.ar      5 PHE5        0.0000 
     32 CA        -38.8800   13.7300  -40.0500 C.3       6 GLY6        0.0000 
     33 CA        -38.7000   12.2700  -39.7700 C.3       6 GLY6        0.0000 
     34 CA        -38.2700   15.5200  -39.1000 C.3       6 GLY6        0.0000 
     35 CA        -38.1000   14.0600  -38.8200 C.3       6 GLY6        0.0000 
     36 CA        -37.9200   12.6000  -38.5400 C.3       6 GLY6        0.0000 
     37 CA        -37.7400   11.1300  -38.2600 C.3       6 GLY6        0.0000 
     38 CA        -36.8300   14.0600  -39.6200 C.3       6 GLY6        0.0000 
     39 CA        -36.6500   12.6000  -39.3400 C.3       6 GLY6        0.0000 
     40 CA        -39.3100   10.0000  -35.1400 C.3       6 GLY6        0.0000 
     41 CA        -38.5800   14.3900  -36.7800 C.3       6 GLY6        0.0000 
     42 CA        -38.4000   12.9300  -36.5000 C.3       6 GLY6        0.0000 
     43 CA        -37.4900   15.8500  -37.8600 C.3       6 GLY6        0.0000 
     44 CA        -37.3100   14.3900  -37.5800 C.3       6 GLY6        0.0000 
     45 CA        -37.1400   12.9300  -37.3000 C.3       6 GLY6        0.0000 
     46 CA        -36.9600   11.4700  -37.0200 C.3       6 GLY6        0.0000 
     47 CA        -35.8700   12.9300  -38.1000 C.3       6 GLY6        0.0000 
     48 CA        -37.9800   16.1800  -35.8200 C.3       6 GLY6        0.0000 
     49 CA        -37.8000   14.7200  -35.5400 C.3       6 GLY6        0.0000 
     50 CA        -36.5300   14.7200  -36.3500 C.3       6 GLY6        0.0000 
     51 DU        -39.0100   11.1300  -37.4600 H         7 CUB7        0.0000 
     52 DU        -38.7600   15.8500  -37.0600 H         7 CUB7        0.0000 
@<TRIPOS>BOND
@<TRIPOS>SUBSTRUCTURE
     1 SER1        1 GROUP   
     2 ALA2        6 GROUP   
     3 ASP3       16 GROUP   
     4 LYS4       26 GROUP   
     5 PHE5       30 GROUP   
     6 GLY6       32 GROUP   
     7 CUB7       51 GROUP   
@<TRIPOS>SET

