#    Name: 6a3j_7_NAI
#    Modification time : Fri May 22 19:30:19 2020

@<TRIPOS>MOLECULE
6a3j_7_NAI
   36    39     1     0     1
SMALL
NO_CHARGES


@<TRIPOS>ATOM
      1 PA        -43.0120   16.9510  -44.0650 P.3       1 NAI403      0.0000 
      2 O1A       -44.2820   17.6340  -43.7070 O.co2     1 NAI403      0.0000 
      3 O2A       -41.6360   17.4680  -43.7680 O.co2     1 NAI403      0.0000 
      4 O5B       -42.9230   16.6050  -45.6210 O.3       1 NAI403      0.0000 
      5 C5B       -44.0840   16.2810  -46.3380 C.3       1 NAI403      0.0000 
      6 C4B       -43.8970   16.7750  -47.7490 C.3       1 NAI403      0.0000 
      7 O4B       -44.9050   16.1290  -48.5190 O.3       1 NAI403      0.0000 
      8 C3B       -44.0660   18.2990  -47.7930 C.3       1 NAI403      0.0000 
      9 O3B       -42.9190   18.8720  -48.4070 O.3       1 NAI403      0.0000 
     10 C2B       -45.2980   18.4430  -48.6520 C.3       1 NAI403      0.0000 
     11 O2B       -45.3140   19.5850  -49.5240 O.3       1 NAI403      0.0000 
     12 C1B       -45.2920   17.1190  -49.4200 C.3       1 NAI403      0.0000 
     13 N9A       -46.6340   16.9050  -49.9750 N.pl3     1 NAI403      0.0000 
     14 C8A       -47.8260   17.1440  -49.4350 C.2       1 NAI403      0.0000 
     15 N7A       -48.8040   16.8630  -50.3330 N.2       1 NAI403      0.0000 
     16 C5A       -48.2000   16.4740  -51.4610 C.ar      1 NAI403      0.0000 
     17 C6A       -48.5920   16.0830  -52.8200 C.ar      1 NAI403      0.0000 
     18 N6A       -49.8850   15.9850  -53.1420 N.pl3     1 NAI403      0.0000 
     19 N1A       -47.6350   15.7540  -53.6930 N.ar      1 NAI403      0.0000 
     20 C2A       -46.3340   15.8000  -53.4160 C.ar      1 NAI403      0.0000 
     21 N3A       -45.8980   16.1750  -52.2010 N.ar      1 NAI403      0.0000 
     22 C4A       -46.7780   16.5010  -51.2260 C.ar      1 NAI403      0.0000 
     23 O3        -43.1560   15.4570  -43.4140 O.3       1 NAI403      0.0000 
     24 PN        -41.8940   14.4750  -43.1380 P.3       1 NAI403      0.0000 
     25 O1N       -41.3390   14.7930  -41.7620 O.co2     1 NAI403      0.0000 
     26 O2N       -40.9420   14.4000  -44.2780 O.co2     1 NAI403      0.0000 
     27 O5D       -42.7250   13.0580  -43.0300 O.3       1 NAI403      0.0000 
     28 C5D       -43.0660   12.3390  -44.2260 C.3       1 NAI403      0.0000 
     29 C4D       -43.4420   10.9020  -43.9030 C.3       1 NAI403      0.0000 
     30 O4D       -42.3070   10.2720  -43.2990 O.3       1 NAI403      0.0000 
     31 C3D       -44.5760   10.7980  -42.9320 C.3       1 NAI403      0.0000 
     32 O3D       -45.3960    9.6700  -43.3210 O.3       1 NAI403      0.0000 
     33 C2D       -43.8400   10.6050  -41.5980 C.3       1 NAI403      0.0000 
     34 O2D       -44.5430    9.7920  -40.6850 O.3       1 NAI403      0.0000 
     35 C1D       -42.5690    9.8830  -41.9680 C.3       1 NAI403      0.0000 
     36 N1N       -41.4110   10.1500  -41.1360 N.pl3     1 NAI403      0.0000 
@<TRIPOS>BOND
     1    1    2 ar   
     2    1    3 ar   
     3    1    4 1    
     4    1   23 1    
     5    4    5 1    
     6    5    6 1    
     7    6    7 1    
     8    6    8 1    
     9    7   12 1    
    10    8    9 1    
    11    8   10 1    
    12   10   11 1    
    13   10   12 1    
    14   12   13 1    
    15   13   14 1    
    16   13   22 1    
    17   14   15 2    
    18   15   16 1    
    19   16   17 ar   
    20   16   22 ar   
    21   17   18 1    
    22   17   19 ar   
    23   19   20 ar   
    24   20   21 ar   
    25   21   22 ar   
    26   23   24 1    
    27   24   25 ar   
    28   24   26 ar   
    29   24   27 1    
    30   27   28 1    
    31   28   29 1    
    32   29   30 1    
    33   29   31 1    
    34   30   35 1    
    35   31   32 1    
    36   31   33 1    
    37   33   34 1    
    38   33   35 1    
    39   35   36 1    
@<TRIPOS>SUBSTRUCTURE
     1 NAI403      1 GROUP   
@<TRIPOS>SET
ATOM$ORANGE STATIC     ATOMS   COLORGROUP SYSTEM 
30 5 5 6 6 8 8 10 10 12 12 14 14 16 16 17 17 20 \
20 22 22 28 28 29 29 31 31 33 33 35 35 

