#    Name: 6a3j_7_NAI_CAVITY_N1_8
#    Modification time : Fri May 22 19:30:21 2020

@<TRIPOS>MOLECULE
6a3j_7_NAI_CAVITY_N1_8
   68     0     7     0     0
SMALL
NO_CHARGES


@<TRIPOS>ATOM
      1 OG        -43.8800   19.9100  -36.7300 O.3       1 SER1        0.0000 
      2 OG        -38.8300    9.6700  -37.1800 O.3       1 SER1        0.0000 
      3 OG        -38.0500   10.0000  -35.9400 O.3       1 SER1        0.0000 
      4 O         -43.7500   22.5000  -39.3200 O.2       2 ALA2        0.0000 
      5 O         -42.9700   22.8300  -38.0900 O.2       2 ALA2        0.0000 
      6 N         -40.1000    9.6700  -36.3800 N.am      2 ALA2        0.0000 
      7 O         -41.1200   14.3900  -35.1800 O.2       2 ALA2        0.0000 
      8 O         -40.9400   12.9200  -34.9000 O.2       2 ALA2        0.0000 
      9 N         -40.7600   11.4600  -34.6200 N.am      2 ALA2        0.0000 
     10 O         -39.8500   14.3900  -35.9800 O.2       2 ALA2        0.0000 
     11 O         -39.6700   12.9300  -35.7000 O.2       2 ALA2        0.0000 
     12 O         -39.4900   11.4600  -35.4200 O.2       2 ALA2        0.0000 
     13 O         -38.2200   11.4600  -36.2200 O.2       2 ALA2        0.0000 
     14 OD1       -40.3200   15.1900  -39.5300 O.co2     3 ASP3        0.0000 
     15 OD1       -39.9700   12.2600  -38.9700 O.co2     3 ASP3        0.0000 
     16 OD1       -39.7900   10.8000  -38.6900 O.co2     3 ASP3        0.0000 
     17 OD1       -42.4300   18.4400  -37.2500 O.co2     3 ASP3        0.0000 
     18 OD1       -42.2500   16.9800  -36.9700 O.co2     3 ASP3        0.0000 
     19 OD1       -42.0800   15.5200  -36.6900 O.co2     3 ASP3        0.0000 
     20 OD1       -40.9900   16.9800  -37.7700 O.co2     3 ASP3        0.0000 
     21 OD1       -40.8100   15.5200  -37.4900 O.co2     3 ASP3        0.0000 
     22 OD1       -40.6300   14.0600  -37.2100 O.co2     3 ASP3        0.0000 
     23 OD1       -40.4500   12.5900  -36.9300 O.co2     3 ASP3        0.0000 
     24 OD1       -39.5400   15.5200  -38.3000 O.co2     3 ASP3        0.0000 
     25 OD1       -39.3600   14.0600  -38.0200 O.co2     3 ASP3        0.0000 
     26 OD1       -39.1800   12.6000  -37.7400 O.co2     3 ASP3        0.0000 
     27 NZ        -41.0600   10.8000  -37.8900 N.4       4 LYS4        0.0000 
     28 NZ        -41.7200   12.5900  -36.1300 N.4       4 LYS4        0.0000 
     29 NZ        -41.5400   11.1300  -35.8500 N.4       4 LYS4        0.0000 
     30 NZ        -40.2700   11.1300  -36.6500 N.4       4 LYS4        0.0000 
     31 CZ        -43.5700   21.0400  -39.0400 C.ar      5 PHE5        0.0000 
     32 CZ        -43.3900   19.5800  -38.7600 C.ar      5 PHE5        0.0000 
     33 CZ        -41.9500   18.1100  -39.2900 C.ar      5 PHE5        0.0000 
     34 CZ        -40.5000   16.6500  -39.8100 C.ar      5 PHE5        0.0000 
     35 CZ        -43.7000   18.4400  -36.4500 C.ar      5 PHE5        0.0000 
     36 CZ        -42.7900   21.3700  -37.8100 C.ar      5 PHE5        0.0000 
     37 CZ        -42.6100   19.9100  -37.5300 C.ar      5 PHE5        0.0000 
     38 CZ        -41.5200   21.3700  -38.6100 C.ar      5 PHE5        0.0000 
     39 CZ        -41.3400   19.9100  -38.3300 C.ar      5 PHE5        0.0000 
     40 CZ        -41.1700   18.4500  -38.0500 C.ar      5 PHE5        0.0000 
     41 CZ        -39.9000   18.4500  -38.8500 C.ar      5 PHE5        0.0000 
     42 CZ        -39.7200   16.9800  -38.5700 C.ar      5 PHE5        0.0000 
     43 CZ        -41.8300   20.2400  -36.2900 C.ar      5 PHE5        0.0000 
     44 CZ        -41.6500   18.7800  -36.0100 C.ar      5 PHE5        0.0000 
     45 CZ        -41.4700   17.3100  -35.7300 C.ar      5 PHE5        0.0000 
     46 CZ        -41.2900   15.8500  -35.4500 C.ar      5 PHE5        0.0000 
     47 CZ        -40.0300   15.8500  -36.2600 C.ar      5 PHE5        0.0000 
     48 CA        -44.8400   21.0400  -38.2400 C.3       6 GLY6        0.0000 
     49 CA        -38.8800   13.7300  -40.0500 C.3       6 GLY6        0.0000 
     50 CA        -38.7000   12.2700  -39.7700 C.3       6 GLY6        0.0000 
     51 CA        -37.6100   13.7300  -40.8600 C.3       6 GLY6        0.0000 
     52 CA        -44.0600   21.3700  -37.0100 C.3       6 GLY6        0.0000 
     53 CA        -38.2700   15.5200  -39.1000 C.3       6 GLY6        0.0000 
     54 CA        -38.1000   14.0600  -38.8200 C.3       6 GLY6        0.0000 
     55 CA        -37.9200   12.6000  -38.5400 C.3       6 GLY6        0.0000 
     56 CA        -37.7400   11.1300  -38.2600 C.3       6 GLY6        0.0000 
     57 CA        -36.8300   14.0600  -39.6200 C.3       6 GLY6        0.0000 
     58 CA        -36.6500   12.6000  -39.3400 C.3       6 GLY6        0.0000 
     59 CA        -39.3100   10.0000  -35.1400 C.3       6 GLY6        0.0000 
     60 CA        -38.5800   14.3900  -36.7800 C.3       6 GLY6        0.0000 
     61 CA        -38.4000   12.9300  -36.5000 C.3       6 GLY6        0.0000 
     62 CA        -37.3100   14.3900  -37.5800 C.3       6 GLY6        0.0000 
     63 CA        -37.1400   12.9300  -37.3000 C.3       6 GLY6        0.0000 
     64 CA        -36.9600   11.4700  -37.0200 C.3       6 GLY6        0.0000 
     65 CA        -35.8700   12.9300  -38.1000 C.3       6 GLY6        0.0000 
     66 DU        -39.0100   11.1300  -37.4600 H         7 CUB7        0.0000 
     67 DU        -40.2100   17.3100  -36.5400 H         7 CUB7        0.0000 
     68 DU        -38.7600   15.8500  -37.0600 H         7 CUB7        0.0000 
@<TRIPOS>BOND
@<TRIPOS>SUBSTRUCTURE
     1 SER1        1 GROUP   
     2 ALA2        4 GROUP   
     3 ASP3       14 GROUP   
     4 LYS4       27 GROUP   
     5 PHE5       31 GROUP   
     6 GLY6       48 GROUP   
     7 CUB7       66 GROUP   
@<TRIPOS>SET

