#    Name: 6a3j_3_SOE
#    Modification time : Fri May 22 19:30:14 2020

@<TRIPOS>MOLECULE
6a3j_3_SOE
   12    12     1     0     0
SMALL
NO_CHARGES


@<TRIPOS>ATOM
      1 C1        -40.8060   12.5460  -35.3070 C.3       1 SOE402      0.0000 
      2 O1        -41.7710   13.3270  -35.9520 O.3       1 SOE402      0.0000 
      3 C2        -39.8530   11.9290  -36.3270 C.3       1 SOE402      0.0000 
      4 O2        -39.4370   12.7950  -37.3480 O.3       1 SOE402      0.0000 
      5 C3        -40.4410   10.6790  -36.9970 C.3       1 SOE402      0.0000 
      6 O3        -41.5210   11.0550  -37.8430 O.3       1 SOE402      0.0000 
      7 C4        -39.3590    9.9160  -37.7630 C.3       1 SOE402      0.0000 
      8 O4        -39.9080    8.7340  -38.3500 O.3       1 SOE402      0.0000 
      9 C5        -38.2120    9.5820  -36.8280 C.3       1 SOE402      0.0000 
     10 O5        -37.1000    8.9690  -37.4940 O.3       1 SOE402      0.0000 
     11 C6        -37.7140   10.8550  -36.1760 C.3       1 SOE402      0.0000 
     12 O6        -38.7650   11.5510  -35.4900 O.3       1 SOE402      0.0000 
@<TRIPOS>BOND
     1    1    2 1    
     2    1    3 1    
     3    3    4 1    
     4    3    5 1    
     5    3   12 1    
     6    5    6 1    
     7    5    7 1    
     8    7    8 1    
     9    7    9 1    
    10    9   10 1    
    11    9   11 1    
    12   11   12 1    
@<TRIPOS>SUBSTRUCTURE
     1 SOE402      1 GROUP   
@<TRIPOS>SET

