#    Name: 6ddw_1_NDP
#    Modification time : Fri May 22 19:25:51 2020

@<TRIPOS>MOLECULE
6ddw_1_NDP
   48    52     1     0     1
SMALL
NO_CHARGES


@<TRIPOS>ATOM
      1 PA         18.7740   13.3890    8.5060 P.3       1 NDP201      0.0000 
      2 O1A        18.3610   14.1780    7.3380 O.co2     1 NDP201      0.0000 
      3 O2A        19.8060   12.3250    8.3630 O.co2     1 NDP201      0.0000 
      4 O5B        19.2880   14.3260    9.7490 O.3       1 NDP201      0.0000 
      5 C5B        18.3070   15.2800   10.1410 C.3       1 NDP201      0.0000 
      6 C4B        19.0460   16.1590   11.1640 C.3       1 NDP201      0.0000 
      7 O4B        19.9050   17.0360   10.4490 O.3       1 NDP201      0.0000 
      8 C3B        18.1310   17.0380   12.0430 C.3       1 NDP201      0.0000 
      9 O3B        17.6660   16.3160   13.1640 O.3       1 NDP201      0.0000 
     10 C2B        19.1850   18.1150   12.4770 C.3       1 NDP201      0.0000 
     11 O2B        20.1590   17.6500   13.2570 O.3       1 NDP201      0.0000 
     12 C1B        19.9090   18.3180   11.1190 C.3       1 NDP201      0.0000 
     13 N9A        19.2980   19.3070   10.2750 N.pl3     1 NDP201      0.0000 
     14 C8A        18.1600   19.1950    9.4660 C.2       1 NDP201      0.0000 
     15 N7A        17.8650   20.3230    8.8100 N.2       1 NDP201      0.0000 
     16 C5A        18.8580   21.2160    9.2260 C.ar      1 NDP201      0.0000 
     17 C6A        19.1080   22.5610    8.9130 C.ar      1 NDP201      0.0000 
     18 N6A        18.2900   23.2440    8.0330 N.pl3     1 NDP201      0.0000 
     19 N1A        20.1780   23.2100    9.4620 N.ar      1 NDP201      0.0000 
     20 C2A        20.9530   22.4750   10.3300 C.ar      1 NDP201      0.0000 
     21 N3A        20.8450   21.1970   10.7310 N.ar      1 NDP201      0.0000 
     22 C4A        19.7570   20.5890   10.1470 C.ar      1 NDP201      0.0000 
     23 O3         17.4220   12.7270    9.2900 O.3       1 NDP201      0.0000 
     24 PN         16.2200   11.9000    8.5740 P.3       1 NDP201      0.0000 
     25 O1N        15.4960   11.3340    9.7280 O.co2     1 NDP201      0.0000 
     26 O2N        15.5290   12.6780    7.4840 O.co2     1 NDP201      0.0000 
     27 O5D        16.9460   10.6370    7.6940 O.3       1 NDP201      0.0000 
     28 C5D        17.5190    9.6170    8.4750 C.3       1 NDP201      0.0000 
     29 C4D        17.0460    8.2910    7.8840 C.3       1 NDP201      0.0000 
     30 O4D        17.4550    8.1670    6.5040 O.3       1 NDP201      0.0000 
     31 C3D        17.6500    7.0670    8.6340 C.3       1 NDP201      0.0000 
     32 O3D        16.6450    6.0870    8.6990 O.3       1 NDP201      0.0000 
     33 C2D        18.7760    6.6230    7.6940 C.3       1 NDP201      0.0000 
     34 O2D        19.0920    5.2540    7.7830 O.3       1 NDP201      0.0000 
     35 C1D        18.1030    6.9000    6.3340 C.3       1 NDP201      0.0000 
     36 N1N        19.0580    7.0610    5.2340 N.pl3     1 NDP201      0.0000 
     37 C2N        18.9020    6.2910    4.0960 C.2       1 NDP201      0.0000 
     38 C3N        19.6820    6.4850    3.0080 C.2       1 NDP201      0.0000 
     39 C7N        19.4790    5.6770    1.8260 C.2       1 NDP201      0.0000 
     40 O7N        20.0770    5.9150    0.7640 O.2       1 NDP201      0.0000 
     41 N7N        18.6060    4.6100    1.8790 N.am      1 NDP201      0.0000 
     42 C4N        20.7290    7.5050    2.9730 C.3       1 NDP201      0.0000 
     43 C5N        20.8450    8.2670    4.2400 C.2       1 NDP201      0.0000 
     44 C6N        20.0570    8.0530    5.2900 C.2       1 NDP201      0.0000 
     45 P2B        20.0060   17.9740   15.0320 P.3       1 NDP201      0.0000 
     46 O1X        18.7550   17.1880   15.2790 O.co2     1 NDP201      0.0000 
     47 O2X        21.3030   17.3880   15.6000 O.co2     1 NDP201      0.0000 
     48 O3X        19.8780   19.4590   15.0360 O.co2     1 NDP201      0.0000 
@<TRIPOS>BOND
     1    1    2 ar   
     2    1    3 ar   
     3    1    4 1    
     4    1   23 1    
     5    4    5 1    
     6    5    6 1    
     7    6    7 1    
     8    6    8 1    
     9    7   12 1    
    10    8    9 1    
    11    8   10 1    
    12   10   11 1    
    13   10   12 1    
    14   11   45 1    
    15   12   13 1    
    16   13   14 1    
    17   13   22 1    
    18   14   15 2    
    19   15   16 1    
    20   16   17 ar   
    21   16   22 ar   
    22   17   18 1    
    23   17   19 ar   
    24   19   20 ar   
    25   20   21 ar   
    26   21   22 ar   
    27   23   24 1    
    28   24   25 ar   
    29   24   26 ar   
    30   24   27 1    
    31   27   28 1    
    32   28   29 1    
    33   29   30 1    
    34   29   31 1    
    35   30   35 1    
    36   31   32 1    
    37   31   33 1    
    38   33   34 1    
    39   33   35 1    
    40   35   36 1    
    41   36   37 1    
    42   36   44 1    
    43   37   38 2    
    44   38   39 1    
    45   38   42 1    
    46   39   40 2    
    47   39   41 am   
    48   42   43 1    
    49   43   44 2    
    50   45   46 ar   
    51   45   47 ar   
    52   45   48 ar   
@<TRIPOS>SUBSTRUCTURE
     1 NDP201      1 GROUP   
@<TRIPOS>SET
ATOM$ORANGE STATIC     ATOMS   COLORGROUP SYSTEM 
42 5 5 6 6 8 8 10 10 12 12 14 14 16 16 17 17 20 \
20 22 22 28 28 29 29 31 31 33 33 35 35 37 37 38 38 39 \
39 42 42 43 43 44 44 

