#    Name: 6dh0_1_017
#    Modification time : Fri May 22 19:34:27 2020

@<TRIPOS>MOLECULE
6dh0_1_017
   75    78     1     0     0
SMALL
NO_CHARGES


@<TRIPOS>ATOM
      1 N1        116.6220   51.9170   12.5800 N.pl3     1 017101      0.0000 
      2 C2        117.6000   52.5830   13.4870 C.ar      1 017101      0.0000 
      3 C3        117.4390   53.9170   13.7880 C.ar      1 017101      0.0000 
      4 C4        118.3300   54.5440   14.6200 C.ar      1 017101      0.0000 
      5 C5        119.3890   53.8180   15.1630 C.ar      1 017101      0.0000 
      6 C6        119.5670   52.5010   14.8660 C.ar      1 017101      0.0000 
      7 C7        118.6600   51.8680   14.0210 C.ar      1 017101      0.0000 
      8 S8        120.5660   54.6890   16.2520 S.o2      1 017101      0.0000 
      9 O9        121.1210   53.8150   17.2750 O.2       1 017101      0.0000 
     10 O10       119.8860   55.7780   16.9970 O.2       1 017101      0.0000 
     11 N11       121.7980   55.2930   15.2060 N.pl3     1 017101      0.0000 
     12 C12       122.5700   54.2790   14.4700 C.3       1 017101      0.0000 
     13 C13       124.0580   54.6430   14.4130 C.3       1 017101      0.0000 
     14 C14       124.8190   53.6580   13.4660 C.3       1 017101      0.0000 
     15 C15       124.6940   54.7030   15.8230 C.3       1 017101      0.0000 
     16 C16       121.4700   56.6470   14.5360 C.3       1 017101      0.0000 
     17 C17       122.4180   57.7470   15.1030 C.3       1 017101      0.0000 
     18 O18       122.2940   58.8930   14.3430 O.3       1 017101      0.0000 
     19 C19       122.0620   58.0410   16.5690 C.3       1 017101      0.0000 
     20 N20       123.0440   58.9790   17.0440 N.am      1 017101      0.0000 
     21 C21       124.0000   58.6550   18.0990 C.2       1 017101      0.0000 
     22 O22       123.9950   57.5990   18.6560 O.2       1 017101      0.0000 
     23 O23       124.8950   59.6790   18.3890 O.3       1 017101      0.0000 
     24 C24       125.6670   59.6570   19.5680 C.3       1 017101      0.0000 
     25 C25       127.1460   60.2500   19.1160 C.3       1 017101      0.0000 
     26 O26       126.9240   61.5700   18.9740 O.3       1 017101      0.0000 
     27 C27       125.8770   61.9150   20.0970 C.3       1 017101      0.0000 
     28 O28       124.9620   62.6560   19.6500 O.3       1 017101      0.0000 
     29 C29       123.5590   61.8380   19.7080 C.3       1 017101      0.0000 
     30 C30       123.7460   60.7820   20.4810 C.3       1 017101      0.0000 
     31 C31       125.2260   60.5240   20.4950 C.3       1 017101      0.0000 
     32 C32       120.7100   58.7300   16.7380 C.3       1 017101      0.0000 
     33 C33       120.2500   58.3010   19.1770 C.ar      1 017101      0.0000 
     34 C34       120.0590   58.7390   20.5020 C.ar      1 017101      0.0000 
     35 C35       120.1220   60.1100   20.8070 C.ar      1 017101      0.0000 
     36 C36       120.3740   61.0250   19.8080 C.ar      1 017101      0.0000 
     37 C37       120.5650   60.5900   18.4890 C.ar      1 017101      0.0000 
     38 C38       120.4990   59.2120   18.1770 C.ar      1 017101      0.0000 
     39 H11       116.8500   51.2020   12.1440 H         1 017101      0.0000 
     40 H12       115.8240   52.2450   12.4870 H         1 017101      0.0000 
     41 H3        116.7260   54.3920   13.4280 H         1 017101      0.0000 
     42 H4        118.2250   55.4440   14.8260 H         1 017101      0.0000 
     43 H6        120.2810   52.0300   15.2290 H         1 017101      0.0000 
     44 H7        118.7650   50.9680   13.8160 H         1 017101      0.0000 
     45 H121      122.2350   54.2160   13.5950 H         1 017101      0.0000 
     46 H122      122.4740   53.4480   14.8970 H         1 017101      0.0000 
     47 H13       124.1240   55.5020   14.0390 H         1 017101      0.0000 
     48 H141      125.4060   53.1260   13.9690 H         1 017101      0.0000 
     49 H142      124.2000   53.1080   13.0240 H         1 017101      0.0000 
     50 H143      125.3080   54.1490   12.8320 H         1 017101      0.0000 
     51 H151      125.4160   55.3030   15.8150 H         1 017101      0.0000 
     52 H152      124.0540   54.9960   16.4440 H         1 017101      0.0000 
     53 H153      124.9990   53.8500   16.0680 H         1 017101      0.0000 
     54 H161      121.5930   56.5750   13.6080 H         1 017101      0.0000 
     55 H162      120.5770   56.8760   14.7140 H         1 017101      0.0000 
     56 H17       123.3050   57.4430   15.0570 H         1 017101      0.0000 
     57 H18       121.4930   59.1080   14.2960 H         1 017101      0.0000 
     58 H19       122.0920   57.2530   17.0780 H         1 017101      0.0000 
     59 H20       123.0690   59.7700   16.6890 H         1 017101      0.0000 
     60 H24       125.7430   58.7890   19.9190 H         1 017101      0.0000 
     61 H251      127.4160   59.8720   18.3000 H         1 017101      0.0000 
     62 H252      127.7830   60.0920   19.7880 H         1 017101      0.0000 
     63 H27       126.2970   62.3110   20.8380 H         1 017101      0.0000 
     64 H291      123.3160   61.5620   18.8440 H         1 017101      0.0000 
     65 H292      122.8890   62.3840   20.0740 H         1 017101      0.0000 
     66 H301      123.4530   60.9740   21.3520 H         1 017101      0.0000 
     67 H302      123.2820   60.0410   20.1440 H         1 017101      0.0000 
     68 H31       125.5080   60.2620   21.3510 H         1 017101      0.0000 
     69 H321      120.6690   59.4700   16.1620 H         1 017101      0.0000 
     70 H322      120.0250   58.1290   16.5140 H         1 017101      0.0000 
     71 H33       120.2070   57.3950   18.9780 H         1 017101      0.0000 
     72 H34       119.8890   58.1210   21.1740 H         1 017101      0.0000 
     73 H35       119.9960   60.3990   21.6810 H         1 017101      0.0000 
     74 H36       120.4160   61.9310   20.0100 H         1 017101      0.0000 
     75 H37       120.7340   61.2090   17.8170 H         1 017101      0.0000 
@<TRIPOS>BOND
     1    1    2 1    
     2    2    3 ar   
     3    1   39 1    
     4    1   40 1    
     5    2    7 ar   
     6    3    4 ar   
     7    4    5 ar   
     8    3   41 1    
     9    5    6 ar   
    10    4   42 1    
    11    5    8 1    
    12    6    7 ar   
    13    8    9 2    
    14    6   43 1    
    15    7   44 1    
    16    8   10 2    
    17    8   11 1    
    18   11   12 1    
    19   11   16 1    
    20   12   13 1    
    21   13   14 1    
    22   12   45 1    
    23   12   46 1    
    24   13   15 1    
    25   16   17 1    
    26   13   47 1    
    27   14   48 1    
    28   14   49 1    
    29   14   50 1    
    30   15   51 1    
    31   15   52 1    
    32   15   53 1    
    33   17   18 1    
    34   16   54 1    
    35   16   55 1    
    36   17   19 1    
    37   19   20 1    
    38   17   56 1    
    39   18   57 1    
    40   19   32 1    
    41   20   21 am   
    42   19   58 1    
    43   21   22 2    
    44   20   59 1    
    45   21   23 1    
    46   23   24 1    
    47   24   25 1    
    48   24   31 1    
    49   25   26 1    
    50   24   60 1    
    51   31   68 1    
    52   26   27 1    
    53   25   61 1    
    54   25   62 1    
    55   27   28 1    
    56   27   31 1    
    57   28   29 1    
    58   27   63 1    
    59   29   30 1    
    60   30   66 1    
    61   30   31 1    
    62   29   64 1    
    63   29   65 1    
    64   30   67 1    
    65   32   38 1    
    66   33   34 ar   
    67   32   69 1    
    68   32   70 1    
    69   33   38 ar   
    70   34   35 ar   
    71   33   71 1    
    72   35   36 ar   
    73   34   72 1    
    74   36   37 ar   
    75   35   73 1    
    76   37   38 ar   
    77   36   74 1    
    78   37   75 1    
@<TRIPOS>SUBSTRUCTURE
     1 017101      1 GROUP   
@<TRIPOS>SET

