#    Name: 6ewz_3_GTP_CAVITY_N1_4
#    Modification time : Fri May 22 19:40:24 2020

@<TRIPOS>MOLECULE
6ewz_3_GTP_CAVITY_N1_4
   80     0     7     0     0
SMALL
NO_CHARGES


@<TRIPOS>ATOM
      1 OG         90.0300   17.0500   56.0200 O.3       1 SER1        0.0000 
      2 OG         88.6600   16.9300   56.6100 O.3       1 SER1        0.0000 
      3 OG         89.0900   15.7000   57.3600 O.3       1 SER1        0.0000 
      4 OG         93.1200   14.3500   58.8200 O.3       1 SER1        0.0000 
      5 OG         94.9200   15.3200   59.3700 O.3       1 SER1        0.0000 
      6 OG         95.7800   19.1200   62.0900 O.3       1 SER1        0.0000 
      7 OG         94.4100   19.0000   62.6900 O.3       1 SER1        0.0000 
      8 O          93.1200   16.4300   59.2200 O.2       2 ALA2        0.0000 
      9 O          91.7500   16.3100   59.8200 O.2       2 ALA2        0.0000 
     10 O          93.5500   15.2000   59.9700 O.2       2 ALA2        0.0000 
     11 O          93.9800   16.0600   61.1300 O.2       2 ALA2        0.0000 
     12 N          98.5300   15.1900   60.0800 N.am      2 ALA2        0.0000 
     13 N          98.9600   13.9600   60.8300 N.am      2 ALA2        0.0000 
     14 O          93.0400   16.8000   62.8800 O.2       2 ALA2        0.0000 
     15 O          93.4700   15.5700   63.6300 O.2       2 ALA2        0.0000 
     16 O          92.1000   15.4500   64.2300 O.2       2 ALA2        0.0000 
     17 OD1        88.2200   18.1500   55.8700 O.co2     3 ASP3        0.0000 
     18 OD1        91.4000   17.1700   55.4200 O.co2     3 ASP3        0.0000 
     19 OD1        93.2000   16.0600   55.5700 O.co2     3 ASP3        0.0000 
     20 OD1        93.2000   18.1400   55.9700 O.co2     3 ASP3        0.0000 
     21 OD1        91.8300   18.0200   56.5700 O.co2     3 ASP3        0.0000 
     22 OD1        96.3700   17.1500   55.5300 O.co2     3 ASP3        0.0000 
     23 OD1        95.0000   17.0300   56.1300 O.co2     3 ASP3        0.0000 
     24 OD1        93.6300   16.9200   56.7200 O.co2     3 ASP3        0.0000 
     25 OD1        91.3200   17.5300   59.0700 O.co2     3 ASP3        0.0000 
     26 OD1        97.2300   16.7800   57.4300 O.co2     3 ASP3        0.0000 
     27 OD1        95.8600   16.6600   58.0300 O.co2     3 ASP3        0.0000 
     28 OD1        95.3600   14.0900   60.1200 O.co2     3 ASP3        0.0000 
     29 OD1        91.7500   18.3900   60.2300 O.co2     3 ASP3        0.0000 
     30 OD1        96.2900   17.5200   59.1800 O.co2     3 ASP3        0.0000 
     31 OD1        92.1800   17.1700   60.9800 O.co2     3 ASP3        0.0000 
     32 OD1        98.1000   16.4100   59.3300 O.co2     3 ASP3        0.0000 
     33 OD1        96.7200   16.3000   59.9300 O.co2     3 ASP3        0.0000 
     34 OD1        95.7900   14.9500   61.2800 O.co2     3 ASP3        0.0000 
     35 OD1        94.4200   14.8300   61.8800 O.co2     3 ASP3        0.0000 
     36 OD1        97.5900   13.8400   61.4300 O.co2     3 ASP3        0.0000 
     37 OD1        95.3500   18.2600   60.9300 O.co2     3 ASP3        0.0000 
     38 OD1        92.6100   18.0200   62.1300 O.co2     3 ASP3        0.0000 
     39 OD1        97.1500   17.1500   61.0900 O.co2     3 ASP3        0.0000 
     40 OD1        96.2200   15.8100   62.4300 O.co2     3 ASP3        0.0000 
     41 OD1        94.8500   15.6900   63.0300 O.co2     3 ASP3        0.0000 
     42 OD1        93.0400   18.8800   63.2800 O.co2     3 ASP3        0.0000 
     43 OD1        93.4700   17.6500   64.0300 O.co2     3 ASP3        0.0000 
     44 OD1        95.2700   16.5500   64.1800 O.co2     3 ASP3        0.0000 
     45 OD1        93.9000   16.4300   64.7800 O.co2     3 ASP3        0.0000 
     46 OD1        92.5300   16.3100   65.3800 O.co2     3 ASP3        0.0000 
     47 NZ         89.5200   16.5600   58.5200 N.4       4 LYS4        0.0000 
     48 CZ         91.8300   15.9400   56.1700 C.ar      5 PHE5        0.0000 
     49 CZ         90.4600   15.8200   56.7600 C.ar      5 PHE5        0.0000 
     50 CZ         92.2600   16.8000   57.3200 C.ar      5 PHE5        0.0000 
     51 CZ         90.8900   16.6800   57.9200 C.ar      5 PHE5        0.0000 
     52 CZ         96.8000   15.9300   56.2800 C.ar      5 PHE5        0.0000 
     53 CZ         95.4300   15.8100   56.8700 C.ar      5 PHE5        0.0000 
     54 CZ         94.0600   15.6900   57.4700 C.ar      5 PHE5        0.0000 
     55 CZ         92.6900   15.5700   58.0700 C.ar      5 PHE5        0.0000 
     56 CZ         91.3200   15.4500   58.6700 C.ar      5 PHE5        0.0000 
     57 CZ         97.6700   15.5600   58.1800 C.ar      5 PHE5        0.0000 
     58 CZ         96.3000   15.4400   58.7800 C.ar      5 PHE5        0.0000 
     59 CZ         98.1000   14.3300   58.9300 C.ar      5 PHE5        0.0000 
     60 CZ         96.7300   14.2100   59.5300 C.ar      5 PHE5        0.0000 
     61 CZ         97.5900   15.9300   61.8300 C.ar      5 PHE5        0.0000 
     62 CZ         98.0200   14.7000   62.5800 C.ar      5 PHE5        0.0000 
     63 CZ         96.2100   17.8900   62.8400 C.ar      5 PHE5        0.0000 
     64 CZ         96.6500   16.6600   63.5900 C.ar      5 PHE5        0.0000 
     65 CA         99.3900   12.7400   61.5800 C.3       6 GLY6        0.0000 
     66 CA         99.3900   14.8200   61.9800 C.3       6 GLY6        0.0000 
     67 CA         99.8200   13.5900   62.7300 C.3       6 GLY6        0.0000 
     68 DU         90.4600   17.9000   57.1700 H         7 CUB7        0.0000 
     69 DU         89.0900   17.7900   57.7700 H         7 CUB7        0.0000 
     70 DU         92.6900   17.6500   58.4800 H         7 CUB7        0.0000 
     71 DU         94.4900   16.5500   58.6300 H         7 CUB7        0.0000 
     72 DU         94.9200   17.4000   59.7800 H         7 CUB7        0.0000 
     73 DU         93.5500   17.2800   60.3800 H         7 CUB7        0.0000 
     74 DU         95.3500   16.1800   60.5300 H         7 CUB7        0.0000 
     75 DU         97.1600   15.0700   60.6800 H         7 CUB7        0.0000 
     76 DU         93.5500   19.3700   60.7800 H         7 CUB7        0.0000 
     77 DU         93.9800   18.1400   61.5300 H         7 CUB7        0.0000 
     78 DU         95.7800   17.0300   61.6800 H         7 CUB7        0.0000 
     79 DU         94.4100   16.9100   62.2800 H         7 CUB7        0.0000 
     80 DU         94.8400   17.7700   63.4400 H         7 CUB7        0.0000 
@<TRIPOS>BOND
@<TRIPOS>SUBSTRUCTURE
     1 SER1        1 GROUP   
     2 ALA2        8 GROUP   
     3 ASP3       17 GROUP   
     4 LYS4       47 GROUP   
     5 PHE5       48 GROUP   
     6 GLY6       65 GROUP   
     7 CUB7       68 GROUP   
@<TRIPOS>SET

