#    Name: 6ewz_3_GTP_CAVITY_N1_8
#    Modification time : Fri May 22 19:40:24 2020

@<TRIPOS>MOLECULE
6ewz_3_GTP_CAVITY_N1_8
  119     0     7     0     0
SMALL
NO_CHARGES


@<TRIPOS>ATOM
      1 OG         90.0300   17.0500   56.0200 O.3       1 SER1        0.0000 
      2 OG         88.6600   16.9300   56.6100 O.3       1 SER1        0.0000 
      3 OG         89.0900   15.7000   57.3600 O.3       1 SER1        0.0000 
      4 OG         93.1200   14.3500   58.8200 O.3       1 SER1        0.0000 
      5 OG         94.9200   15.3200   59.3700 O.3       1 SER1        0.0000 
      6 OG        100.2500   12.3700   63.4800 O.3       1 SER1        0.0000 
      7 OG         95.3500   20.3400   61.3400 O.3       1 SER1        0.0000 
      8 OG         95.7800   19.1200   62.0900 O.3       1 SER1        0.0000 
      9 OG         94.4100   19.0000   62.6900 O.3       1 SER1        0.0000 
     10 OG        100.6800   13.2200   64.6400 O.3       1 SER1        0.0000 
     11 OG         96.6400   18.7500   63.9900 O.3       1 SER1        0.0000 
     12 OG         95.2700   18.6300   64.5900 O.3       1 SER1        0.0000 
     13 OG         97.0700   17.5200   64.7400 O.3       1 SER1        0.0000 
     14 OG         97.5100   16.2900   65.4900 O.3       1 SER1        0.0000 
     15 OG        100.6800   15.3100   65.0400 O.3       1 SER1        0.0000 
     16 OG         99.3100   15.1900   65.6400 O.3       1 SER1        0.0000 
     17 O          93.1200   16.4300   59.2200 O.2       2 ALA2        0.0000 
     18 O          91.7500   16.3100   59.8200 O.2       2 ALA2        0.0000 
     19 O          93.5500   15.2000   59.9700 O.2       2 ALA2        0.0000 
     20 O          93.9800   16.0600   61.1300 O.2       2 ALA2        0.0000 
     21 N          98.5300   15.1900   60.0800 N.am      2 ALA2        0.0000 
     22 N          98.9600   13.9600   60.8300 N.am      2 ALA2        0.0000 
     23 O          90.7400   13.2500   64.4200 O.2       2 ALA2        0.0000 
     24 N          92.5400   12.1400   64.5700 N.am      2 ALA2        0.0000 
     25 N          91.1700   12.0300   65.1700 N.am      2 ALA2        0.0000 
     26 O          93.0400   16.8000   62.8800 O.2       2 ALA2        0.0000 
     27 O          93.4700   15.5700   63.6300 O.2       2 ALA2        0.0000 
     28 O          92.1000   15.4500   64.2300 O.2       2 ALA2        0.0000 
     29 N          92.0300   11.6600   67.0700 N.am      2 ALA2        0.0000 
     30 N         102.4800   14.2000   65.1900 N.am      2 ALA2        0.0000 
     31 OD1        88.2200   18.1500   55.8700 O.co2     3 ASP3        0.0000 
     32 OD1        91.4000   17.1700   55.4200 O.co2     3 ASP3        0.0000 
     33 OD1        93.2000   16.0600   55.5700 O.co2     3 ASP3        0.0000 
     34 OD1        93.2000   18.1400   55.9700 O.co2     3 ASP3        0.0000 
     35 OD1        91.8300   18.0200   56.5700 O.co2     3 ASP3        0.0000 
     36 OD1        96.3700   17.1500   55.5300 O.co2     3 ASP3        0.0000 
     37 OD1        95.0000   17.0300   56.1300 O.co2     3 ASP3        0.0000 
     38 OD1        93.6300   16.9200   56.7200 O.co2     3 ASP3        0.0000 
     39 OD1        91.3200   17.5300   59.0700 O.co2     3 ASP3        0.0000 
     40 OD1        97.2300   16.7800   57.4300 O.co2     3 ASP3        0.0000 
     41 OD1        95.8600   16.6600   58.0300 O.co2     3 ASP3        0.0000 
     42 OD1        95.3600   14.0900   60.1200 O.co2     3 ASP3        0.0000 
     43 OD1        91.7500   18.3900   60.2300 O.co2     3 ASP3        0.0000 
     44 OD1        96.2900   17.5200   59.1800 O.co2     3 ASP3        0.0000 
     45 OD1        92.1800   17.1700   60.9800 O.co2     3 ASP3        0.0000 
     46 OD1        98.1000   16.4100   59.3300 O.co2     3 ASP3        0.0000 
     47 OD1        96.7200   16.3000   59.9300 O.co2     3 ASP3        0.0000 
     48 OD1        95.7900   14.9500   61.2800 O.co2     3 ASP3        0.0000 
     49 OD1        94.4200   14.8300   61.8800 O.co2     3 ASP3        0.0000 
     50 OD1        97.5900   13.8400   61.4300 O.co2     3 ASP3        0.0000 
     51 OD1        98.0200   12.6200   62.1800 O.co2     3 ASP3        0.0000 
     52 OD1        95.3500   18.2600   60.9300 O.co2     3 ASP3        0.0000 
     53 OD1        92.6100   18.0200   62.1300 O.co2     3 ASP3        0.0000 
     54 OD1        97.1500   17.1500   61.0900 O.co2     3 ASP3        0.0000 
     55 OD1        96.2200   15.8100   62.4300 O.co2     3 ASP3        0.0000 
     56 OD1        94.8500   15.6900   63.0300 O.co2     3 ASP3        0.0000 
     57 OD1        92.5400   14.2300   64.9700 O.co2     3 ASP3        0.0000 
     58 OD1        91.1700   14.1100   65.5700 O.co2     3 ASP3        0.0000 
     59 OD1        98.4500   13.4700   63.3300 O.co2     3 ASP3        0.0000 
     60 OD1        92.9700   13.0000   65.7200 O.co2     3 ASP3        0.0000 
     61 OD1        98.8800   12.2500   64.0800 O.co2     3 ASP3        0.0000 
     62 OD1        93.4000   11.7700   66.4700 O.co2     3 ASP3        0.0000 
     63 OD1        93.0400   18.8800   63.2800 O.co2     3 ASP3        0.0000 
     64 OD1        93.4700   17.6500   64.0300 O.co2     3 ASP3        0.0000 
     65 OD1        95.2700   16.5500   64.1800 O.co2     3 ASP3        0.0000 
     66 OD1        93.9000   16.4300   64.7800 O.co2     3 ASP3        0.0000 
     67 OD1        92.5300   16.3100   65.3800 O.co2     3 ASP3        0.0000 
     68 OD1        97.0800   15.4400   64.3300 O.co2     3 ASP3        0.0000 
     69 OD1        95.7100   15.3200   64.9300 O.co2     3 ASP3        0.0000 
     70 OD1        94.3400   15.2000   65.5300 O.co2     3 ASP3        0.0000 
     71 OD1        92.9700   15.0800   66.1300 O.co2     3 ASP3        0.0000 
     72 OD1        98.8800   14.3300   64.4900 O.co2     3 ASP3        0.0000 
     73 OD1        97.5100   14.2100   65.0800 O.co2     3 ASP3        0.0000 
     74 OD1        94.7700   13.9800   66.2800 O.co2     3 ASP3        0.0000 
     75 OD1        99.3100   13.1000   65.2300 O.co2     3 ASP3        0.0000 
     76 OD1        99.7500   11.8800   65.9800 O.co2     3 ASP3        0.0000 
     77 OD1        94.7700   16.0600   66.6800 O.co2     3 ASP3        0.0000 
     78 NZ         89.5200   16.5600   58.5200 N.4       4 LYS4        0.0000 
     79 CZ         91.8300   15.9400   56.1700 C.ar      5 PHE5        0.0000 
     80 CZ         90.4600   15.8200   56.7600 C.ar      5 PHE5        0.0000 
     81 CZ         92.2600   16.8000   57.3200 C.ar      5 PHE5        0.0000 
     82 CZ         90.8900   16.6800   57.9200 C.ar      5 PHE5        0.0000 
     83 CZ         96.8000   15.9300   56.2800 C.ar      5 PHE5        0.0000 
     84 CZ         95.4300   15.8100   56.8700 C.ar      5 PHE5        0.0000 
     85 CZ         94.0600   15.6900   57.4700 C.ar      5 PHE5        0.0000 
     86 CZ         92.6900   15.5700   58.0700 C.ar      5 PHE5        0.0000 
     87 CZ         91.3200   15.4500   58.6700 C.ar      5 PHE5        0.0000 
     88 CZ         97.6700   15.5600   58.1800 C.ar      5 PHE5        0.0000 
     89 CZ         96.3000   15.4400   58.7800 C.ar      5 PHE5        0.0000 
     90 CZ         98.1000   14.3300   58.9300 C.ar      5 PHE5        0.0000 
     91 CZ         96.7300   14.2100   59.5300 C.ar      5 PHE5        0.0000 
     92 CZ         97.5900   15.9300   61.8300 C.ar      5 PHE5        0.0000 
     93 CZ         98.0200   14.7000   62.5800 C.ar      5 PHE5        0.0000 
     94 CZ         96.2100   17.8900   62.8400 C.ar      5 PHE5        0.0000 
     95 CZ         96.6500   16.6600   63.5900 C.ar      5 PHE5        0.0000 
     96 CZ         98.4500   15.5600   63.7400 C.ar      5 PHE5        0.0000 
     97 CZ        100.2500   14.4500   63.8900 C.ar      5 PHE5        0.0000 
     98 CA         99.3900   12.7400   61.5800 C.3       6 GLY6        0.0000 
     99 CA         99.3900   14.8200   61.9800 C.3       6 GLY6        0.0000 
    100 CA         99.8200   13.5900   62.7300 C.3       6 GLY6        0.0000 
    101 CA         91.6000   12.8800   66.3200 C.3       6 GLY6        0.0000 
    102 CA         93.4000   13.8600   66.8800 C.3       6 GLY6        0.0000 
    103 CA         95.2000   14.8300   67.4300 C.3       6 GLY6        0.0000 
    104 DU         90.4600   17.9000   57.1700 H         7 CUB7        0.0000 
    105 DU         89.0900   17.7900   57.7700 H         7 CUB7        0.0000 
    106 DU         92.6900   17.6500   58.4800 H         7 CUB7        0.0000 
    107 DU         94.4900   16.5500   58.6300 H         7 CUB7        0.0000 
    108 DU         94.9200   17.4000   59.7800 H         7 CUB7        0.0000 
    109 DU         93.5500   17.2800   60.3800 H         7 CUB7        0.0000 
    110 DU         95.3500   16.1800   60.5300 H         7 CUB7        0.0000 
    111 DU         97.1600   15.0700   60.6800 H         7 CUB7        0.0000 
    112 DU         93.5500   19.3700   60.7800 H         7 CUB7        0.0000 
    113 DU         93.9800   18.1400   61.5300 H         7 CUB7        0.0000 
    114 DU         95.7800   17.0300   61.6800 H         7 CUB7        0.0000 
    115 DU         94.4100   16.9100   62.2800 H         7 CUB7        0.0000 
    116 DU         94.8400   17.7700   63.4400 H         7 CUB7        0.0000 
    117 DU         93.9000   18.5100   65.1900 H         7 CUB7        0.0000 
    118 DU         95.7000   17.4000   65.3400 H         7 CUB7        0.0000 
    119 DU         96.1400   16.1800   66.0900 H         7 CUB7        0.0000 
@<TRIPOS>BOND
@<TRIPOS>SUBSTRUCTURE
     1 SER1        1 GROUP   
     2 ALA2       17 GROUP   
     3 ASP3       31 GROUP   
     4 LYS4       78 GROUP   
     5 PHE5       79 GROUP   
     6 GLY6       98 GROUP   
     7 CUB7      104 GROUP   
@<TRIPOS>SET

