#    Name: 6ewz_3_GTP
#    Modification time : Fri May 22 19:40:23 2020

@<TRIPOS>MOLECULE
6ewz_3_GTP
   44    46     1     0     1
SMALL
NO_CHARGES


@<TRIPOS>ATOM
      1 PG         86.6560   20.5270   58.5890 P.3       1 GTP301      0.0000 
      2 O1G        86.9930   21.8940   58.2610 O.co2     1 GTP301      0.0000 
      3 O2G        87.8850   19.9220   59.0770 O.co2     1 GTP301      0.0000 
      4 O3G        85.7320   20.6270   59.7210 O.co2     1 GTP301      0.0000 
      5 O3B        86.0940   19.6400   57.3280 O.3       1 GTP301      0.0000 
      6 PB         87.2240   19.0430   56.2880 P.3       1 GTP301      0.0000 
      7 O1B        86.5750   18.2870   55.2200 O.co2     1 GTP301      0.0000 
      8 O2B        87.9240   20.1520   55.6470 O.co2     1 GTP301      0.0000 
      9 O3A        88.3290   18.1290   57.0690 O.3       1 GTP301      0.0000 
     10 PA         89.2680   16.9510   56.4030 P.3       1 GTP301      0.0000 
     11 O1A        89.8580   17.2840   55.0870 O.co2     1 GTP301      0.0000 
     12 O2A        88.5320   15.6820   56.1850 O.co2     1 GTP301      0.0000 
     13 O5'        90.5090   16.6370   57.5170 O.3       1 GTP301      0.0000 
     14 C5'        90.1350   16.3010   58.8370 C.3       1 GTP301      0.0000 
     15 C4'        91.3500   16.1450   59.6850 C.3       1 GTP301      0.0000 
     16 O4'        92.3060   15.1340   59.1250 O.3       1 GTP301      0.0000 
     17 C3'        92.1040   17.4050   59.7740 C.3       1 GTP301      0.0000 
     18 O3'        91.5130   18.3180   60.7680 O.3       1 GTP301      0.0000 
     19 C2'        93.4320   16.9520   60.1430 C.3       1 GTP301      0.0000 
     20 O2'        93.4490   16.5740   61.5770 O.3       1 GTP301      0.0000 
     21 C1'        93.6710   15.7700   59.2660 C.3       1 GTP301      0.0000 
     22 N9         94.2760   16.1550   58.0090 N.pl3     1 GTP301      0.0000 
     23 C8         93.6070   16.5850   57.1470 C.2       1 GTP301      0.0000 
     24 N7         94.3590   16.8470   56.2030 N.2       1 GTP301      0.0000 
     25 C5         95.8340   16.5430   56.4500 C.2       1 GTP301      0.0000 
     26 C6         97.1800   16.5530   55.9650 C.2       1 GTP301      0.0000 
     27 O6         97.4880   17.0210   54.6690 O.2       1 GTP301      0.0000 
     28 N1         98.2540   16.0630   56.8390 N.am      1 GTP301      0.0000 
     29 C2         97.9160   15.5590   58.2790 C.2       1 GTP301      0.0000 
     30 N2         98.9970   15.0610   59.1410 N.pl3     1 GTP301      0.0000 
     31 N3         96.5590   15.5930   58.6730 N.2       1 GTP301      0.0000 
     32 C4         95.5890   16.0340   57.8580 C.2       1 GTP301      0.0000 
     33 H5'        89.5800   17.0070   59.2030 H         1 GTP301      0.0000 
     34 H5''       89.6360   15.4690   58.8300 H         1 GTP301      0.0000 
     35 H4'        91.0860   15.8700   60.5780 H         1 GTP301      0.0000 
     36 H3'        92.1330   17.8310   58.9030 H         1 GTP301      0.0000 
     37 HO3'       90.7640   18.0100   61.0260 H         1 GTP301      0.0000 
     38 H2'        94.0860   17.6440   59.9620 H         1 GTP301      0.0000 
     39 HO2'       93.0260   17.1570   62.0280 H         1 GTP301      0.0000 
     40 H1'        94.2580   15.1510   59.7270 H         1 GTP301      0.0000 
     41 H8         92.6850   16.7060   57.1700 H         1 GTP301      0.0000 
     42 HN1        99.0680   16.0600   56.5610 H         1 GTP301      0.0000 
     43 HN21       99.0810   14.2170   59.2820 H         1 GTP301      0.0000 
     44 HN22       99.5450   15.6140   59.5060 H         1 GTP301      0.0000 
@<TRIPOS>BOND
     1    1    2 ar   
     2    1    3 ar   
     3    1    4 ar   
     4    1    5 1    
     5    5    6 1    
     6    6    7 ar   
     7    6    8 ar   
     8    6    9 1    
     9    9   10 1    
    10   10   11 ar   
    11   10   12 ar   
    12   10   13 1    
    13   13   14 1    
    14   14   15 1    
    15   14   33 1    
    16   14   34 1    
    17   15   16 1    
    18   15   17 1    
    19   15   35 1    
    20   16   21 1    
    21   17   18 1    
    22   17   19 1    
    23   17   36 1    
    24   19   20 1    
    25   18   37 1    
    26   19   21 1    
    27   19   38 1    
    28   21   22 1    
    29   20   39 1    
    30   21   40 1    
    31   22   23 1    
    32   22   32 1    
    33   23   24 2    
    34   24   25 1    
    35   23   41 1    
    36   25   26 1    
    37   25   32 2    
    38   26   27 2    
    39   26   28 am   
    40   28   29 1    
    41   29   30 1    
    42   28   42 1    
    43   29   31 2    
    44   31   32 1    
    45   30   43 1    
    46   30   44 1    
@<TRIPOS>SUBSTRUCTURE
     1 GTP301      1 GROUP   
@<TRIPOS>SET
ATOM$ORANGE STATIC     ATOMS   COLORGROUP SYSTEM 
20 14 14 15 15 17 17 19 19 21 21 23 23 25 25 26 26 29 \
29 32 32 

