#    Name: 6rpu_1_G5P_CAVITY_N1_4
#    Modification time : Fri May 22 19:24:07 2020

@<TRIPOS>MOLECULE
6rpu_1_G5P_CAVITY_N1_4
   72     0     7     0     0
SMALL
NO_CHARGES


@<TRIPOS>ATOM
      1 OG          7.8000  -53.3000   44.4900 O.3       1 SER1        0.0000 
      2 OG          9.7000  -53.9200   43.8000 O.3       1 SER1        0.0000 
      3 OG          8.8500  -54.2400   44.9900 O.3       1 SER1        0.0000 
      4 OG          7.5900  -52.4800   46.4300 O.3       1 SER1        0.0000 
      5 OG          6.7400  -52.7900   47.6300 O.3       1 SER1        0.0000 
      6 N          10.9900  -51.2400   41.6500 N.am      2 ALA2        0.0000 
      7 N          10.1400  -51.5500   42.8400 N.am      2 ALA2        0.0000 
      8 N          12.0500  -52.1700   42.1500 N.am      2 ALA2        0.0000 
      9 N          13.9500  -52.8000   41.4600 N.am      2 ALA2        0.0000 
     10 N          10.7800  -50.4200   43.5900 N.am      2 ALA2        0.0000 
     11 N          12.6900  -51.0500   42.9000 N.am      2 ALA2        0.0000 
     12 N          10.3700  -48.3500   43.8400 N.am      2 ALA2        0.0000 
     13 N          11.4300  -49.2900   44.3500 N.am      2 ALA2        0.0000 
     14 N          13.3300  -49.9200   43.6500 N.am      2 ALA2        0.0000 
     15 OD1         8.0100  -54.5500   46.1900 O.co2     3 ASP3        0.0000 
     16 OD1         7.1600  -54.8600   47.3900 O.co2     3 ASP3        0.0000 
     17 OD1         8.2400  -50.9200   43.5400 O.co2     3 ASP3        0.0000 
     18 OD1         9.2900  -51.8600   44.0400 O.co2     3 ASP3        0.0000 
     19 OD1         9.9400  -50.7300   44.7900 O.co2     3 ASP3        0.0000 
     20 OD1        15.6500  -52.6100   42.7200 O.co2     3 ASP3        0.0000 
     21 OD1        16.7100  -53.5500   43.2200 O.co2     3 ASP3        0.0000 
     22 OD1        18.2000  -52.1100   42.7800 O.co2     3 ASP3        0.0000 
     23 NZ          9.5000  -52.6800   42.0900 N.4       4 LYS4        0.0000 
     24 NZ          8.6500  -52.9900   43.2900 N.4       4 LYS4        0.0000 
     25 CZ         11.4000  -53.7300   45.0500 C.ar      5 PHE5        0.0000 
     26 CZ         12.4600  -54.6700   45.5600 C.ar      5 PHE5        0.0000 
     27 CZ         14.3600  -55.3000   44.8700 C.ar      5 PHE5        0.0000 
     28 CZ         11.8400  -51.3600   44.1000 C.ar      5 PHE5        0.0000 
     29 CZ         10.9900  -51.6700   45.3000 C.ar      5 PHE5        0.0000 
     30 CZ         13.7500  -51.9800   43.4100 C.ar      5 PHE5        0.0000 
     31 CZ         12.9000  -52.3000   44.6100 C.ar      5 PHE5        0.0000 
     32 CZ         14.8000  -52.9200   43.9100 C.ar      5 PHE5        0.0000 
     33 CZ         13.9500  -53.2300   45.1100 C.ar      5 PHE5        0.0000 
     34 CZ         10.5800  -49.6000   45.5400 C.ar      5 PHE5        0.0000 
     35 CZ         12.4800  -50.2300   44.8500 C.ar      5 PHE5        0.0000 
     36 CZ         16.2900  -51.4800   43.4700 C.ar      5 PHE5        0.0000 
     37 CZ         17.3500  -52.4200   43.9700 C.ar      5 PHE5        0.0000 
     38 CZ         12.0700  -48.1600   45.1000 C.ar      5 PHE5        0.0000 
     39 CZ         11.2200  -48.4700   46.2900 C.ar      5 PHE5        0.0000 
     40 CZ         13.9800  -48.7900   44.4000 C.ar      5 PHE5        0.0000 
     41 CZ         13.1300  -49.1000   45.6000 C.ar      5 PHE5        0.0000 
     42 CZ         15.8800  -49.4200   43.7100 C.ar      5 PHE5        0.0000 
     43 CZ         16.9400  -50.3500   44.2200 C.ar      5 PHE5        0.0000 
     44 CA         11.4000  -53.3000   41.4000 C.3       6 GLY6        0.0000 
     45 CA         10.5500  -53.6100   42.6000 C.3       6 GLY6        0.0000 
     46 CA         10.7600  -54.8600   44.3000 C.3       6 GLY6        0.0000 
     47 CA          9.9100  -55.1700   45.5000 C.3       6 GLY6        0.0000 
     48 CA         11.8200  -55.8000   44.8100 C.3       6 GLY6        0.0000 
     49 CA         10.9700  -56.1100   46.0000 C.3       6 GLY6        0.0000 
     50 CA          7.3900  -51.2300   44.7300 C.3       6 GLY6        0.0000 
     51 CA          8.4400  -52.1700   45.2400 C.3       6 GLY6        0.0000 
     52 CA          9.5000  -53.1100   45.7400 C.3       6 GLY6        0.0000 
     53 CA          8.6500  -53.4200   46.9400 C.3       6 GLY6        0.0000 
     54 CA         13.1000  -53.1100   42.6600 C.3       6 GLY6        0.0000 
     55 CA         12.2500  -53.4200   43.8600 C.3       6 GLY6        0.0000 
     56 CA         10.5500  -54.0500   46.2500 C.3       6 GLY6        0.0000 
     57 CA          9.7000  -54.3600   47.4500 C.3       6 GLY6        0.0000 
     58 CA         15.0100  -53.7400   41.9700 C.3       6 GLY6        0.0000 
     59 CA         14.1600  -54.0500   43.1600 C.3       6 GLY6        0.0000 
     60 CA         13.3100  -54.3600   44.3600 C.3       6 GLY6        0.0000 
     61 CA         11.6100  -54.9800   46.7500 C.3       6 GLY6        0.0000 
     62 CA         16.0600  -54.6800   42.4700 C.3       6 GLY6        0.0000 
     63 CA         15.2100  -54.9900   43.6700 C.3       6 GLY6        0.0000 
     64 CA         10.1400  -51.9800   46.4900 C.3       6 GLY6        0.0000 
     65 CA          9.2900  -52.2900   47.6900 C.3       6 GLY6        0.0000 
     66 CA         14.5900  -51.6700   42.2100 C.3       6 GLY6        0.0000 
     67 CA         15.2400  -50.5400   42.9600 C.3       6 GLY6        0.0000 
     68 CA         14.8300  -48.4800   43.2100 C.3       6 GLY6        0.0000 
     69 DU         11.2000  -52.4900   43.3500 H         7 CUB7        0.0000 
     70 DU         10.3500  -52.8000   44.5500 H         7 CUB7        0.0000 
     71 DU          7.8000  -53.7300   48.1400 H         7 CUB7        0.0000 
     72 DU          9.0900  -51.0400   45.9900 H         7 CUB7        0.0000 
@<TRIPOS>BOND
@<TRIPOS>SUBSTRUCTURE
     1 SER1        1 GROUP   
     2 ALA2        6 GROUP   
     3 ASP3       15 GROUP   
     4 LYS4       23 GROUP   
     5 PHE5       25 GROUP   
     6 GLY6       44 GROUP   
     7 CUB7       69 GROUP   
@<TRIPOS>SET

