#    Name: 6rpu_1_G5P
#    Modification time : Fri May 22 19:24:05 2020

@<TRIPOS>MOLECULE
6rpu_1_G5P
   82    87     1     0     0
SMALL
NO_CHARGES


@<TRIPOS>ATOM
      1 PE          4.4560  -60.3980   50.3060 P.3       1 G5P601      0.0000 
      2 O1E         3.2670  -60.9110   49.5480 O.co2     1 G5P601      0.0000 
      3 O2E         5.7320  -60.0750   49.5810 O.co2     1 G5P601      0.0000 
      4 PD          5.1110  -58.1250   51.7890 P.3       1 G5P601      0.0000 
      5 O1D         4.3880  -57.1320   52.6510 O.co2     1 G5P601      0.0000 
      6 O2D         6.1550  -59.0130   52.4020 O.co2     1 G5P601      0.0000 
      7 O3D         4.0190  -59.0680   51.0860 O.3       1 G5P601      0.0000 
      8 PG          7.0670  -56.3940   50.9280 P.3       1 G5P601      0.0000 
      9 O1G         6.6790  -55.4830   52.0540 O.co2     1 G5P601      0.0000 
     10 O2G         8.2750  -57.2660   51.0580 O.co2     1 G5P601      0.0000 
     11 O3G         5.7980  -57.3130   50.5940 O.3       1 G5P601      0.0000 
     12 PB          8.4980  -54.5540   49.3470 P.3       1 G5P601      0.0000 
     13 O1B         9.4250  -55.1790   48.3420 O.co2     1 G5P601      0.0000 
     14 O2B         9.0540  -54.0820   50.6610 O.co2     1 G5P601      0.0000 
     15 O3B         7.2360  -55.5160   49.6030 O.3       1 G5P601      0.0000 
     16 O3A         7.7260  -53.3320   48.6670 O.3       1 G5P601      0.0000 
     17 PA          7.0510  -53.5680   47.2410 P.3       1 G5P601      0.0000 
     18 O1A         7.4630  -54.9200   46.7360 O.co2     1 G5P601      0.0000 
     19 O2A         5.5880  -53.2350   47.3500 O.co2     1 G5P601      0.0000 
     20 O5'         7.7780  -52.4340   46.3750 O.3       1 G5P601      0.0000 
     21 C5'         8.9590  -52.7450   45.6460 C.3       1 G5P601      0.0000 
     22 C4'         9.0980  -51.8250   44.4420 C.3       1 G5P601      0.0000 
     23 O4'        10.4640  -51.4560   44.2590 O.3       1 G5P601      0.0000 
     24 C3'         8.6540  -52.5370   43.1830 C.3       1 G5P601      0.0000 
     25 O3'         7.8930  -51.6570   42.3530 O.3       1 G5P601      0.0000 
     26 C2'         9.9460  -52.9240   42.5030 C.3       1 G5P601      0.0000 
     27 O2'         9.8160  -52.9380   41.0810 O.3       1 G5P601      0.0000 
     28 C1'        10.9340  -51.8780   42.9810 C.3       1 G5P601      0.0000 
     29 N9         12.2950  -52.4320   43.1290 N.pl3     1 G5P601      0.0000 
     30 C8         13.3710  -52.0120   42.4490 C.2       1 G5P601      0.0000 
     31 N7         14.4620  -52.7300   42.7980 N.2       1 G5P601      0.0000 
     32 C5         14.0840  -53.6350   43.7090 C.2       1 G5P601      0.0000 
     33 C6         14.7490  -54.7020   44.4840 C.2       1 G5P601      0.0000 
     34 O6         15.9670  -54.9220   44.3520 O.2       1 G5P601      0.0000 
     35 N1         14.0060  -55.4230   45.3280 N.am      1 G5P601      0.0000 
     36 C2         12.6890  -55.1980   45.4830 C.2       1 G5P601      0.0000 
     37 N2         12.0030  -55.9680   46.3570 N.pl3     1 G5P601      0.0000 
     38 N3         12.0160  -54.2370   44.8040 N.2       1 G5P601      0.0000 
     39 C4         12.6490  -53.4450   43.9140 C.2       1 G5P601      0.0000 
     40 O5F         4.7680  -61.4510   51.4700 O.3       1 G5P601      0.0000 
     41 C5F         3.7960  -62.4170   51.8520 C.3       1 G5P601      0.0000 
     42 C4F         4.4600  -63.6780   52.3880 C.3       1 G5P601      0.0000 
     43 O4F         4.5870  -64.6240   51.3320 O.3       1 G5P601      0.0000 
     44 C1F         5.9420  -65.0290   51.1730 C.3       1 G5P601      0.0000 
     45 C2F         6.7990  -64.0450   51.9400 C.3       1 G5P601      0.0000 
     46 O2F         7.9030  -64.7050   52.5590 O.3       1 G5P601      0.0000 
     47 C3F         5.8490  -63.4350   52.9480 C.3       1 G5P601      0.0000 
     48 O3F         5.9640  -64.0700   54.2240 O.3       1 G5P601      0.0000 
     49 N9A         6.2700  -65.0050   49.7360 N.pl3     1 G5P601      0.0000 
     50 C4A         6.5130  -66.0730   48.9880 C.ar      1 G5P601      0.0000 
     51 N3A         6.5710  -67.4010   49.2140 N.ar      1 G5P601      0.0000 
     52 C2A         6.8590  -68.2620   48.2280 C.ar      1 G5P601      0.0000 
     53 N1A         7.1060  -67.8720   46.9690 N.ar      1 G5P601      0.0000 
     54 C6A         7.0790  -66.5770   46.5980 C.ar      1 G5P601      0.0000 
     55 N6A         7.3290  -66.2140   45.3210 N.pl3     1 G5P601      0.0000 
     56 C5A         6.7700  -65.5740   47.6380 C.ar      1 G5P601      0.0000 
     57 N7A         6.6480  -64.2400   47.6970 N.2       1 G5P601      0.0000 
     58 C8A         6.3380  -63.9070   48.9700 C.2       1 G5P601      0.0000 
     59 H5'1        8.9200  -53.7830   45.3110 H         1 G5P601      0.0000 
     60 H5'2        9.8300  -52.6320   46.2950 H         1 G5P601      0.0000 
     61 H4'         8.4760  -50.9320   44.5930 H         1 G5P601      0.0000 
     62 H7          8.0810  -53.4380   43.4430 H         1 G5P601      0.0000 
     63 H9          7.6190  -52.1270   41.5530 H         1 G5P601      0.0000 
     64 H10        10.2620  -53.9110   42.8680 H         1 G5P601      0.0000 
     65 H11         9.1280  -53.5680   40.8260 H         1 G5P601      0.0000 
     66 H1'        10.9380  -51.0340   42.2770 H         1 G5P601      0.0000 
     67 H8         13.3690  -51.2040   41.7280 H         1 G5P601      0.0000 
     68 HN1        14.4580  -56.1780   45.8820 H         1 G5P601      0.0000 
     69 HN21       12.4810  -56.6920   46.8740 H         1 G5P601      0.0000 
     70 HN22       11.0130  -55.8210   46.4900 H         1 G5P601      0.0000 
     71 H11X        3.1750  -62.6700   50.9900 H         1 G5P601      0.0000 
     72 H12         3.1460  -61.9930   52.6200 H         1 G5P601      0.0000 
     73 H1          3.8290  -64.0940   53.1850 H         1 G5P601      0.0000 
     74 H2          6.0900  -66.0370   51.5840 H         1 G5P601      0.0000 
     75 H2'         7.1530  -63.2620   51.2550 H         1 G5P601      0.0000 
     76 H3          8.4640  -64.0520   52.9990 H         1 G5P601      0.0000 
     77 H3'         6.0340  -62.3550   53.0270 H         1 G5P601      0.0000 
     78 H4          6.8750  -63.9940   54.5400 H         1 G5P601      0.0000 
     79 H6          6.8950  -69.3200   48.4590 H         1 G5P601      0.0000 
     80 HN61        7.5530  -66.2890   44.3390 H         1 G5P601      0.0000 
     81 HN62        7.4310  -67.2150   45.2410 H         1 G5P601      0.0000 
     82 H5          6.1800  -62.8950   49.3230 H         1 G5P601      0.0000 
@<TRIPOS>BOND
     1   17   20 1    
     2   20   21 1    
     3   21   22 1    
     4   21   59 1    
     5   21   60 1    
     6   22   23 1    
     7   22   24 1    
     8   22   61 1    
     9   23   28 1    
    10   24   25 1    
    11   24   26 1    
    12   24   62 1    
    13   25   63 1    
    14   26   27 1    
    15   26   28 1    
    16   26   64 1    
    17   27   65 1    
    18   28   29 1    
    19   28   66 1    
    20   29   30 1    
    21   29   39 1    
    22   30   67 1    
    23   30   31 2    
    24   31   32 1    
    25   32   33 1    
    26   32   39 2    
    27   33   34 2    
    28   33   35 am   
    29   35   68 1    
    30   35   36 1    
    31   36   37 1    
    32   36   38 2    
    33   37   69 1    
    34   37   70 1    
    35   38   39 1    
    36   40   41 1    
    37   41   71 1    
    38   41   72 1    
    39   41   42 1    
    40   42   73 1    
    41   42   43 1    
    42   42   47 1    
    43   43   44 1    
    44   44   74 1    
    45   44   45 1    
    46   44   49 1    
    47   45   75 1    
    48   45   46 1    
    49   45   47 1    
    50   46   76 1    
    51   47   77 1    
    52   47   48 1    
    53   48   78 1    
    54   49   50 1    
    55   49   58 1    
    56   50   51 ar   
    57   50   56 ar   
    58   51   52 ar   
    59   52   79 1    
    60   52   53 ar   
    61   53   54 ar   
    62   55   81 1    
    63   54   55 1    
    64   54   56 ar   
    65   55   80 1    
    66   56   57 1    
    67   57   58 2    
    68   58   82 1    
    69    1    2 ar   
    70    1    3 ar   
    71    1    7 1    
    72    1   40 1    
    73    4    5 ar   
    74    4    6 ar   
    75    4    7 1    
    76    4   11 1    
    77    8    9 ar   
    78    8   10 ar   
    79    8   11 1    
    80    8   15 1    
    81   12   13 ar   
    82   12   14 ar   
    83   12   15 1    
    84   12   16 1    
    85   16   17 1    
    86   17   18 ar   
    87   17   19 ar   
@<TRIPOS>SUBSTRUCTURE
     1 G5P601      1 GROUP   
@<TRIPOS>SET

