#    Name: 6kdt_2_SAH
#    Modification time : Fri May 22 19:27:02 2020

@<TRIPOS>MOLECULE
6kdt_2_SAH
   26    28     1     0     0
SMALL
NO_CHARGES


@<TRIPOS>ATOM
      1 N         -24.9220  -19.6280  -27.4250 N.4       1 SAH901      0.0000 
      2 CA        -23.8680  -18.6400  -27.6610 C.3       1 SAH901      0.0000 
      3 CB        -23.7560  -18.4350  -29.1800 C.3       1 SAH901      0.0000 
      4 CG        -24.3860  -19.5640  -30.0050 C.3       1 SAH901      0.0000 
      5 SD        -24.4120  -19.3430  -31.8200 S.3       1 SAH901      0.0000 
      6 C         -24.0950  -17.3170  -26.8740 C.2       1 SAH901      0.0000 
      7 O         -24.9350  -17.2380  -25.9580 O.co2     1 SAH901      0.0000 
      8 OXT       -23.4270  -16.2910  -27.1090 O.co2     1 SAH901      0.0000 
      9 C5'       -22.9470  -20.3680  -32.1490 C.3       1 SAH901      0.0000 
     10 C4'       -21.5740  -19.7980  -31.7360 C.3       1 SAH901      0.0000 
     11 O4'       -20.5660  -20.7660  -32.0260 O.3       1 SAH901      0.0000 
     12 C3'       -21.1440  -18.4970  -32.4280 C.3       1 SAH901      0.0000 
     13 O3'       -20.8780  -17.4910  -31.4650 O.3       1 SAH901      0.0000 
     14 C2'       -19.9010  -18.8810  -33.2570 C.3       1 SAH901      0.0000 
     15 O2'       -18.8470  -17.9460  -33.2830 O.3       1 SAH901      0.0000 
     16 C1'       -19.4170  -20.1950  -32.6520 C.3       1 SAH901      0.0000 
     17 N9        -18.8240  -21.1070  -33.6660 N.pl3     1 SAH901      0.0000 
     18 C8        -19.1720  -21.1870  -34.9930 C.2       1 SAH901      0.0000 
     19 N7        -18.4140  -22.1380  -35.6000 N.2       1 SAH901      0.0000 
     20 C5        -17.5860  -22.6840  -34.6800 C.ar      1 SAH901      0.0000 
     21 C6        -16.6260  -23.6910  -34.7760 C.ar      1 SAH901      0.0000 
     22 N6        -16.3910  -24.2850  -35.9470 N.pl3     1 SAH901      0.0000 
     23 N1        -15.9240  -24.0680  -33.6530 N.ar      1 SAH901      0.0000 
     24 C2        -16.1720  -23.4110  -32.4580 C.ar      1 SAH901      0.0000 
     25 N3        -17.1240  -22.4120  -32.3730 N.ar      1 SAH901      0.0000 
     26 C4        -17.8300  -22.0460  -33.4640 C.ar      1 SAH901      0.0000 
@<TRIPOS>BOND
     1    1    2 1    
     2    2    3 1    
     3    2    6 1    
     4    3    4 1    
     5    4    5 1    
     6    5    9 1    
     7    6    7 ar   
     8    6    8 ar   
     9    9   10 1    
    10   10   11 1    
    11   10   12 1    
    12   11   16 1    
    13   12   13 1    
    14   12   14 1    
    15   14   15 1    
    16   14   16 1    
    17   16   17 1    
    18   17   18 1    
    19   17   26 1    
    20   18   19 2    
    21   19   20 1    
    22   20   21 ar   
    23   20   26 ar   
    24   21   22 1    
    25   21   23 ar   
    26   23   24 ar   
    27   24   25 ar   
    28   25   26 ar   
@<TRIPOS>SUBSTRUCTURE
     1 SAH901      1 GROUP   
@<TRIPOS>SET

