#    Name: 6kdt_1_SAH
#    Modification time : Fri May 22 19:26:56 2020

@<TRIPOS>MOLECULE
6kdt_1_SAH
   26    28     1     0     0
SMALL
NO_CHARGES


@<TRIPOS>ATOM
      1 N         -16.6350   22.0820  -23.5480 N.4       1 SAH901      0.0000 
      2 CA        -17.2920   20.9100  -24.1340 C.3       1 SAH901      0.0000 
      3 CB        -16.7620   20.7610  -25.5740 C.3       1 SAH901      0.0000 
      4 CG        -16.0670   21.9730  -26.2090 C.3       1 SAH901      0.0000 
      5 SD        -15.4420   21.7200  -27.9060 S.3       1 SAH901      0.0000 
      6 C         -17.1700   19.5570  -23.3660 C.2       1 SAH901      0.0000 
      7 O         -17.5430   18.5000  -23.8970 O.co2     1 SAH901      0.0000 
      8 OXT       -16.7360   19.4490  -22.2140 O.co2     1 SAH901      0.0000 
      9 C5'       -16.5110   22.9590  -28.6740 C.3       1 SAH901      0.0000 
     10 C4'       -17.9330   22.4320  -28.9310 C.3       1 SAH901      0.0000 
     11 O4'       -18.7640   23.4430  -29.4700 O.3       1 SAH901      0.0000 
     12 C3'       -18.0200   21.2610  -29.9020 C.3       1 SAH901      0.0000 
     13 O3'       -18.4640   20.1210  -29.1980 O.3       1 SAH901      0.0000 
     14 C2'       -19.0380   21.6730  -30.9620 C.3       1 SAH901      0.0000 
     15 O2'       -19.9840   20.6590  -31.2280 O.3       1 SAH901      0.0000 
     16 C1'       -19.7170   22.9060  -30.3740 C.3       1 SAH901      0.0000 
     17 N9        -20.1370   23.9380  -31.3700 N.pl3     1 SAH901      0.0000 
     18 C8        -19.5030   24.2430  -32.5510 C.2       1 SAH901      0.0000 
     19 N7        -20.1880   25.2400  -33.1610 N.2       1 SAH901      0.0000 
     20 C5        -21.2500   25.5980  -32.3930 C.ar      1 SAH901      0.0000 
     21 C6        -22.2650   26.5580  -32.5410 C.ar      1 SAH901      0.0000 
     22 N6        -22.3080   27.3530  -33.6160 N.pl3     1 SAH901      0.0000 
     23 N1        -23.2480   26.7000  -31.5710 N.ar      1 SAH901      0.0000 
     24 C2        -23.2160   25.8860  -30.4620 C.ar      1 SAH901      0.0000 
     25 N3        -22.2080   24.9430  -30.3260 N.ar      1 SAH901      0.0000 
     26 C4        -21.2350   24.7860  -31.2670 C.ar      1 SAH901      0.0000 
@<TRIPOS>BOND
     1    1    2 1    
     2    2    3 1    
     3    2    6 1    
     4    3    4 1    
     5    4    5 1    
     6    5    9 1    
     7    6    7 ar   
     8    6    8 ar   
     9    9   10 1    
    10   10   11 1    
    11   10   12 1    
    12   11   16 1    
    13   12   13 1    
    14   12   14 1    
    15   14   15 1    
    16   14   16 1    
    17   16   17 1    
    18   17   18 1    
    19   17   26 1    
    20   18   19 2    
    21   19   20 1    
    22   20   21 ar   
    23   20   26 ar   
    24   21   22 1    
    25   21   23 ar   
    26   23   24 ar   
    27   24   25 ar   
    28   25   26 ar   
@<TRIPOS>SUBSTRUCTURE
     1 SAH901      1 GROUP   
@<TRIPOS>SET

