#    Name: 5ojc_1_IMD_CAVITY_N1_4
#    Modification time : Fri May 22 19:14:41 2020

@<TRIPOS>MOLECULE
5ojc_1_IMD_CAVITY_N1_4
   36     0     4     0     0
SMALL
NO_CHARGES


@<TRIPOS>ATOM
      1 N          -4.8000   -2.8600  -17.8200 N.am      1 ALA2        0.0000 
      2 N          -1.9600   -4.5400  -17.1700 N.am      1 ALA2        0.0000 
      3 N          -2.9100   -3.3800  -17.0000 N.am      1 ALA2        0.0000 
      4 N          -3.8500   -2.2300  -16.8300 N.am      1 ALA2        0.0000 
      5 N          -4.8000   -1.0800  -16.6700 N.am      1 ALA2        0.0000 
      6 N          -4.1100   -0.3500  -17.7900 N.am      1 ALA2        0.0000 
      7 N          -0.3400   -3.1800  -17.3000 N.am      1 ALA2        0.0000 
      8 N          -1.9700   -2.7600  -16.0200 N.am      1 ALA2        0.0000 
      9 N          -1.2800   -2.0300  -17.1400 N.am      1 ALA2        0.0000 
     10 N          -0.6000   -1.3100  -18.2600 N.am      1 ALA2        0.0000 
     11 N          -2.9100   -1.6000  -15.8500 N.am      1 ALA2        0.0000 
     12 N          -2.2300   -0.8800  -16.9700 N.am      1 ALA2        0.0000 
     13 CZ         -1.0200   -3.9100  -16.1800 C.ar      2 PHE5        0.0000 
     14 CZ         -0.7700   -4.0000  -14.0800 C.ar      2 PHE5        0.0000 
     15 CZ          0.3500   -0.6800  -17.2700 C.ar      2 PHE5        0.0000 
     16 CZ         -1.9700   -0.9700  -14.8700 C.ar      2 PHE5        0.0000 
     17 CZ         -1.2800   -0.2500  -15.9900 C.ar      2 PHE5        0.0000 
     18 CZ         -2.9100    0.1800  -14.7000 C.ar      2 PHE5        0.0000 
     19 CZ         -2.2300    0.9000  -15.8200 C.ar      2 PHE5        0.0000 
     20 CA         -5.4800   -3.5800  -16.6900 C.3       3 GLY6        0.0000 
     21 CA         -5.7400   -1.7100  -17.6500 C.3       3 GLY6        0.0000 
     22 CA         -2.6500   -5.2600  -16.0500 C.3       3 GLY6        0.0000 
     23 CA         -3.6000   -4.1100  -15.8800 C.3       3 GLY6        0.0000 
     24 CA         -4.5400   -2.9600  -15.7100 C.3       3 GLY6        0.0000 
     25 CA         -5.4800   -1.8000  -15.5400 C.3       3 GLY6        0.0000 
     26 CA         -5.7400    0.0800  -16.5000 C.3       3 GLY6        0.0000 
     27 CA         -1.7100   -4.6300  -15.0600 C.3       3 GLY6        0.0000 
     28 CA         -2.6500   -3.4800  -14.9000 C.3       3 GLY6        0.0000 
     29 CA         -3.6000   -2.3300  -14.7300 C.3       3 GLY6        0.0000 
     30 CA         -4.5400   -1.1700  -14.5600 C.3       3 GLY6        0.0000 
     31 CA         -4.8000    0.7000  -15.5100 C.3       3 GLY6        0.0000 
     32 CA         -1.7100   -2.8500  -13.9100 C.3       3 GLY6        0.0000 
     33 CA         -2.6600   -1.7000  -13.7500 C.3       3 GLY6        0.0000 
     34 CA         -3.1700    2.0600  -15.6500 C.3       3 GLY6        0.0000 
     35 DU         -3.8600   -0.4500  -15.6800 H         4 CUB7        0.0000 
     36 DU         -3.1700    0.2800  -16.8000 H         4 CUB7        0.0000 
@<TRIPOS>BOND
@<TRIPOS>SUBSTRUCTURE
     1 ALA2        1 GROUP   
     2 PHE5       13 GROUP   
     3 GLY6       20 GROUP   
     4 CUB7       35 GROUP   
@<TRIPOS>SET

