#    Name: 5ojc_1_IMD
#    Modification time : Fri May 22 19:14:41 2020

@<TRIPOS>MOLECULE
5ojc_1_IMD
    5     5     1     0     0
SMALL
NO_CHARGES


@<TRIPOS>ATOM
      1 N1         -2.6650   -0.9430  -15.8870 N.pl3     1 IMD202      0.0000 
      2 C2         -2.7370   -1.5720  -14.7000 C.2       1 IMD202      0.0000 
      3 N3         -2.6700   -0.5970  -13.7810 N.2       1 IMD202      0.0000 
      4 C4         -2.5540    0.5930  -14.3980 C.2       1 IMD202      0.0000 
      5 C5         -2.5510    0.3800  -15.7570 C.2       1 IMD202      0.0000 
@<TRIPOS>BOND
     1    1    2 1    
     2    1    5 1    
     3    2    3 2    
     4    3    4 1    
     5    4    5 2    
@<TRIPOS>SUBSTRUCTURE
     1 IMD202      1 GROUP   
@<TRIPOS>SET

