#    Name: 6fn0_1_FAD
#    Modification time : Fri May 22 19:35:13 2020

@<TRIPOS>MOLECULE
6fn0_1_FAD
   53    58     1     0     1
SMALL
NO_CHARGES


@<TRIPOS>ATOM
      1 PA         14.6750  -39.9940  -25.8140 P.3       1 FAD501      0.0000 
      2 O1A        14.6200  -38.8880  -26.8410 O.co2     1 FAD501      0.0000 
      3 O2A        15.5550  -41.2080  -26.0330 O.co2     1 FAD501      0.0000 
      4 O5B        13.1700  -40.4890  -25.5200 O.3       1 FAD501      0.0000 
      5 C5B        12.0300  -39.6120  -25.6020 C.3       1 FAD501      0.0000 
      6 C4B        11.1660  -39.6830  -24.3440 C.3       1 FAD501      0.0000 
      7 O4B        10.8860  -41.0220  -23.9170 O.3       1 FAD501      0.0000 
      8 C3B        11.9010  -39.0570  -23.1740 C.3       1 FAD501      0.0000 
      9 O3B        11.8310  -37.6300  -23.2350 O.3       1 FAD501      0.0000 
     10 C2B        11.2620  -39.7200  -21.9720 C.3       1 FAD501      0.0000 
     11 O2B        10.0960  -39.0280  -21.5700 O.3       1 FAD501      0.0000 
     12 C1B        10.9200  -41.1160  -22.4830 C.3       1 FAD501      0.0000 
     13 N9A        11.9620  -42.0650  -22.0220 N.pl3     1 FAD501      0.0000 
     14 C8A        13.1780  -42.2740  -22.5800 C.2       1 FAD501      0.0000 
     15 N7A        13.9080  -43.1920  -21.8840 N.2       1 FAD501      0.0000 
     16 C5A        13.1640  -43.5780  -20.8430 C.ar      1 FAD501      0.0000 
     17 C6A        13.3210  -44.5250  -19.7080 C.ar      1 FAD501      0.0000 
     18 N6A        14.4520  -45.2700  -19.5340 N.pl3     1 FAD501      0.0000 
     19 N1A        12.2940  -44.6180  -18.8350 N.ar      1 FAD501      0.0000 
     20 C2A        11.1660  -43.8970  -18.9890 C.ar      1 FAD501      0.0000 
     21 N3A        10.9500  -43.0240  -20.0010 N.ar      1 FAD501      0.0000 
     22 C4A        11.8900  -42.8320  -20.9410 C.ar      1 FAD501      0.0000 
     23 N1         13.8970  -39.9900  -17.3210 N.2       1 FAD501      0.0000 
     24 C2         13.1110  -38.9840  -16.8540 C.2       1 FAD501      0.0000 
     25 O2         12.3640  -38.4150  -17.6820 O.2       1 FAD501      0.0000 
     26 N3         13.1130  -38.5990  -15.5440 N.am      1 FAD501      0.0000 
     27 C4         13.9050  -39.1750  -14.6060 C.2       1 FAD501      0.0000 
     28 O4         13.9030  -38.8040  -13.3980 O.2       1 FAD501      0.0000 
     29 C4X        14.8090  -40.2690  -15.0510 C.2       1 FAD501      0.0000 
     30 N5         15.6270  -40.8860  -14.1880 N.2       1 FAD501      0.0000 
     31 C5X        16.4320  -41.8780  -14.5810 C.ar      1 FAD501      0.0000 
     32 C6         17.2600  -42.4930  -13.6490 C.ar      1 FAD501      0.0000 
     33 C7         18.1130  -43.5220  -13.9940 C.ar      1 FAD501      0.0000 
     34 C7M        18.9820  -44.1320  -12.9270 C.3       1 FAD501      0.0000 
     35 C8         18.1640  -43.9620  -15.3990 C.ar      1 FAD501      0.0000 
     36 C8M        19.0620  -45.0820  -15.8200 C.3       1 FAD501      0.0000 
     37 C9         17.3370  -43.3730  -16.3300 C.ar      1 FAD501      0.0000 
     38 C9A        16.4510  -42.3330  -16.0030 C.ar      1 FAD501      0.0000 
     39 N10        15.5960  -41.6850  -16.9680 N.pl3     1 FAD501      0.0000 
     40 C10        14.7520  -40.6530  -16.4950 C.2       1 FAD501      0.0000 
     41 C1'        15.4670  -42.1420  -18.3720 C.3       1 FAD501      0.0000 
     42 C2'        16.2870  -41.5560  -19.4670 C.3       1 FAD501      0.0000 
     43 O2'        17.6250  -41.5330  -18.9800 O.3       1 FAD501      0.0000 
     44 C3'        15.7390  -40.1880  -19.8490 C.3       1 FAD501      0.0000 
     45 O3'        14.2890  -40.1250  -19.8810 O.3       1 FAD501      0.0000 
     46 C4'        16.3290  -39.8410  -21.1970 C.3       1 FAD501      0.0000 
     47 O4'        17.7450  -39.9880  -21.1500 O.3       1 FAD501      0.0000 
     48 C5'        15.9650  -38.4100  -21.5190 C.3       1 FAD501      0.0000 
     49 O5'        16.5170  -38.0100  -22.7670 O.3       1 FAD501      0.0000 
     50 P          15.5380  -37.8600  -24.0190 P.3       1 FAD501      0.0000 
     51 O1P        14.2890  -37.0910  -23.6440 O.co2     1 FAD501      0.0000 
     52 O2P        16.4590  -37.3440  -25.0990 O.co2     1 FAD501      0.0000 
     53 O3P        15.1170  -39.3940  -24.3580 O.3       1 FAD501      0.0000 
@<TRIPOS>BOND
     1    1    2 ar   
     2    1    3 ar   
     3    1    4 1    
     4    1   53 1    
     5    4    5 1    
     6    5    6 1    
     7    6    7 1    
     8    6    8 1    
     9    7   12 1    
    10    8    9 1    
    11    8   10 1    
    12   10   11 1    
    13   10   12 1    
    14   12   13 1    
    15   13   14 1    
    16   13   22 1    
    17   14   15 2    
    18   15   16 1    
    19   16   17 ar   
    20   16   22 ar   
    21   17   18 1    
    22   17   19 ar   
    23   19   20 ar   
    24   20   21 ar   
    25   21   22 ar   
    26   23   24 1    
    27   23   40 2    
    28   24   25 2    
    29   24   26 am   
    30   26   27 am   
    31   27   28 2    
    32   27   29 1    
    33   29   30 2    
    34   29   40 1    
    35   30   31 1    
    36   31   32 ar   
    37   31   38 ar   
    38   32   33 ar   
    39   33   34 1    
    40   33   35 ar   
    41   35   36 1    
    42   35   37 ar   
    43   37   38 ar   
    44   38   39 1    
    45   39   40 1    
    46   39   41 1    
    47   41   42 1    
    48   42   43 1    
    49   42   44 1    
    50   44   45 1    
    51   44   46 1    
    52   46   47 1    
    53   46   48 1    
    54   48   49 1    
    55   49   50 1    
    56   50   51 ar   
    57   50   52 ar   
    58   50   53 1    
@<TRIPOS>SUBSTRUCTURE
     1 FAD501      1 GROUP   
@<TRIPOS>SET
ATOM$ORANGE STATIC     ATOMS   COLORGROUP SYSTEM 
54 5 5 6 6 8 8 10 10 12 12 14 14 16 16 17 17 20 \
20 22 22 24 24 27 27 29 29 31 31 32 32 33 33 34 34 35 \
35 36 36 37 37 38 38 40 40 41 41 42 42 44 44 46 46 48 \
48 

