#    Name: 5och_13_ADP_CAVITY_N1_4
#    Modification time : Fri May 22 19:20:18 2020

@<TRIPOS>MOLECULE
5och_13_ADP_CAVITY_N1_4
    7     0     3     0     0
SMALL
NO_CHARGES


@<TRIPOS>ATOM
      1 OG        129.1600   42.9400  519.3200 O.3       1 SER1        0.0000 
      2 OG        129.9700   43.8800  518.4900 O.3       1 SER1        0.0000 
      3 OG        130.1200   41.0900  520.8700 O.3       1 SER1        0.0000 
      4 OG        129.2500   42.2300  521.3200 O.3       1 SER1        0.0000 
      5 OG        130.0700   43.1700  520.4800 O.3       1 SER1        0.0000 
      6 CA        130.1700   42.4700  522.4800 C.3       2 GLY6        0.0000 
      7 DU        131.7500   42.9800  519.2000 H         3 CUB7        0.0000 
@<TRIPOS>BOND
@<TRIPOS>SUBSTRUCTURE
     1 SER1        1 GROUP   
     2 GLY6        6 GROUP   
     3 CUB7        7 GROUP   
@<TRIPOS>SET

