#    Name: 5och_9_ADP_CAVITY_N1_4
#    Modification time : Fri May 22 19:19:27 2020

@<TRIPOS>MOLECULE
5och_9_ADP_CAVITY_N1_4
  108     0     7     0     0
SMALL
NO_CHARGES


@<TRIPOS>ATOM
      1 OG        174.6500   17.4900  440.5400 O.3       1 SER1        0.0000 
      2 OG        174.7400   16.7800  442.5300 O.3       1 SER1        0.0000 
      3 OG        175.5600   17.7300  441.7000 O.3       1 SER1        0.0000 
      4 OG        174.7000   18.8700  442.1500 O.3       1 SER1        0.0000 
      5 OG        173.0200   19.0700  443.4300 O.3       1 SER1        0.0000 
      6 OG        175.6600   17.0200  443.7000 O.3       1 SER1        0.0000 
      7 OG        174.7900   18.1600  444.1500 O.3       1 SER1        0.0000 
      8 OG        175.6600   20.4800  444.9200 O.3       1 SER1        0.0000 
      9 OG        176.4800   21.4300  444.0900 O.3       1 SER1        0.0000 
     10 OG        174.8000   21.6300  445.3700 O.3       1 SER1        0.0000 
     11 OG        175.6100   22.5700  444.5400 O.3       1 SER1        0.0000 
     12 OG        176.6700   16.5500  446.8600 O.3       1 SER1        0.0000 
     13 OG        177.4400   19.5800  445.6400 O.3       1 SER1        0.0000 
     14 OG        175.7600   19.7800  446.9200 O.3       1 SER1        0.0000 
     15 OG        176.5700   20.7200  446.0900 O.3       1 SER1        0.0000 
     16 OG        174.8900   20.9200  447.3700 O.3       1 SER1        0.0000 
     17 OG        175.7100   21.8600  446.5300 O.3       1 SER1        0.0000 
     18 OG        177.5400   18.8700  447.6400 O.3       1 SER1        0.0000 
     19 OG        176.6700   20.0100  448.0900 O.3       1 SER1        0.0000 
     20 OG        175.8100   21.1600  448.5300 O.3       1 SER1        0.0000 
     21 O         174.5500   18.1900  438.5400 O.2       2 ALA2        0.0000 
     22 O         175.3700   19.1400  437.7100 O.2       2 ALA2        0.0000 
     23 O         177.9600   19.1800  437.5900 O.2       2 ALA2        0.0000 
     24 O         176.2800   19.3700  438.8700 O.2       2 ALA2        0.0000 
     25 O         172.9200   19.7700  441.4300 O.2       2 ALA2        0.0000 
     26 O         177.1900   19.6100  440.0400 O.2       2 ALA2        0.0000 
     27 O         178.0100   20.5500  439.2000 O.2       2 ALA2        0.0000 
     28 N         173.8300   20.0100  442.5900 N.am      2 ALA2        0.0000 
     29 N         172.9700   21.1500  443.0400 N.am      2 ALA2        0.0000 
     30 N         173.7800   22.0900  442.2100 N.am      2 ALA2        0.0000 
     31 N         177.2900   22.3700  443.2600 N.am      2 ALA2        0.0000 
     32 N         176.4300   23.5100  443.7000 N.am      2 ALA2        0.0000 
     33 N         176.7200   17.9300  448.4700 N.am      2 ALA2        0.0000 
     34 N         177.6300   18.1700  449.6400 N.am      2 ALA2        0.0000 
     35 OD1       175.4100   17.0500  438.0900 O.co2     3 ASP3        0.0000 
     36 OD1       176.2300   18.0000  437.2600 O.co2     3 ASP3        0.0000 
     37 OD1       176.3300   17.2900  439.2600 O.co2     3 ASP3        0.0000 
     38 OD1       177.1400   18.2300  438.4300 O.co2     3 ASP3        0.0000 
     39 OD1       177.2400   17.5300  440.4200 O.co2     3 ASP3        0.0000 
     40 OD1       178.0600   18.4700  439.5900 O.co2     3 ASP3        0.0000 
     41 OD1       179.0200   16.6200  441.1400 O.co2     3 ASP3        0.0000 
     42 OD1       173.9300   22.7700  445.8200 O.co2     3 ASP3        0.0000 
     43 OD1       174.7500   23.7100  444.9800 O.co2     3 ASP3        0.0000 
     44 OD1       173.0700   23.9100  446.2600 O.co2     3 ASP3        0.0000 
     45 OD1       173.8800   24.8500  445.4300 O.co2     3 ASP3        0.0000 
     46 OD1       174.0300   22.0600  447.8100 O.co2     3 ASP3        0.0000 
     47 OD1       174.8500   23.0000  446.9800 O.co2     3 ASP3        0.0000 
     48 OD1       174.9900   20.2100  449.3700 O.co2     3 ASP3        0.0000 
     49 OD1       174.1300   21.3600  449.8100 O.co2     3 ASP3        0.0000 
     50 OD1       175.9100   20.4500  450.5300 O.co2     3 ASP3        0.0000 
     51 OD1       176.7200   21.3900  449.7000 O.co2     3 ASP3        0.0000 
     52 OD1       175.0400   21.5900  450.9800 O.co2     3 ASP3        0.0000 
     53 OD1       175.9600   21.8300  452.1400 O.co2     3 ASP3        0.0000 
     54 NZ        178.5000   17.0300  449.1900 N.4       4 LYS4        0.0000 
     55 NZ        179.4100   17.2600  450.3600 N.4       4 LYS4        0.0000 
     56 NZ        178.5500   18.4000  450.8000 N.4       4 LYS4        0.0000 
     57 CZ        173.9300   19.3000  444.5900 C.ar      5 PHE5        0.0000 
     58 CZ        175.7100   18.4000  445.3100 C.ar      5 PHE5        0.0000 
     59 CZ        174.8400   19.5400  445.7600 C.ar      5 PHE5        0.0000 
     60 CZ        173.9800   20.6800  446.2000 C.ar      5 PHE5        0.0000 
     61 CZ        175.8100   17.6900  447.3100 C.ar      5 PHE5        0.0000 
     62 CZ        174.9400   18.8300  447.7500 C.ar      5 PHE5        0.0000 
     63 CZ        174.0800   19.9800  448.2000 C.ar      5 PHE5        0.0000 
     64 CA        175.5100   16.3500  440.0900 C.3       6 GLY6        0.0000 
     65 CA        175.4600   18.4300  439.7000 C.3       6 GLY6        0.0000 
     66 CA        173.7800   18.6300  440.9800 C.3       6 GLY6        0.0000 
     67 CA        174.6000   19.5700  440.1500 C.3       6 GLY6        0.0000 
     68 CA        175.6100   15.6400  442.0900 C.3       6 GLY6        0.0000 
     69 CA        176.4300   16.5800  441.2600 C.3       6 GLY6        0.0000 
     70 CA        175.5100   19.8100  441.3100 C.3       6 GLY6        0.0000 
     71 CA        174.6500   20.9500  441.7600 C.3       6 GLY6        0.0000 
     72 CA        176.5200   15.8800  443.2500 C.3       6 GLY6        0.0000 
     73 CA        177.2400   20.9900  441.6500 C.3       6 GLY6        0.0000 
     74 CA        173.0700   20.4500  445.0400 C.3       6 GLY6        0.0000 
     75 CA        173.8800   21.3900  444.2000 C.3       6 GLY6        0.0000 
     76 CA        173.0200   22.5300  444.6500 C.3       6 GLY6        0.0000 
     77 CA        172.1500   23.6700  445.1000 C.3       6 GLY6        0.0000 
     78 CA        173.1100   21.8200  446.6500 C.3       6 GLY6        0.0000 
     79 CA        173.2100   21.1200  448.6500 C.3       6 GLY6        0.0000 
     80 CA        175.0400   18.1300  449.7500 C.3       6 GLY6        0.0000 
     81 CA        174.1700   19.2700  450.2000 C.3       6 GLY6        0.0000 
     82 CA        178.4500   19.1100  448.8100 C.3       6 GLY6        0.0000 
     83 CA        175.9500   18.3700  450.9200 C.3       6 GLY6        0.0000 
     84 CA        177.5900   20.2500  449.2500 C.3       6 GLY6        0.0000 
     85 CA        175.0900   19.5100  451.3600 C.3       6 GLY6        0.0000 
     86 CA        179.3700   19.3500  449.9700 C.3       6 GLY6        0.0000 
     87 CA        176.8700   18.6000  452.0800 C.3       6 GLY6        0.0000 
     88 CA        178.5000   20.4900  450.4200 C.3       6 GLY6        0.0000 
     89 CA        176.8200   20.6900  451.7000 C.3       6 GLY6        0.0000 
     90 CA        177.6400   21.6300  450.8600 C.3       6 GLY6        0.0000 
     91 DU        176.3800   18.6700  440.8700 H         7 CUB7        0.0000 
     92 DU        177.3400   16.8200  442.4200 H         7 CUB7        0.0000 
     93 DU        178.1600   17.7600  441.5900 H         7 CUB7        0.0000 
     94 DU        176.4800   17.9600  442.8700 H         7 CUB7        0.0000 
     95 DU        177.2900   18.9100  442.0300 H         7 CUB7        0.0000 
     96 DU        178.1100   19.8500  441.2000 H         7 CUB7        0.0000 
     97 DU        175.6100   19.1000  443.3100 H         7 CUB7        0.0000 
     98 DU        176.4300   20.0500  442.4800 H         7 CUB7        0.0000 
     99 DU        174.7500   20.2500  443.7600 H         7 CUB7        0.0000 
    100 DU        175.5600   21.1900  442.9300 H         7 CUB7        0.0000 
    101 DU        174.7000   22.3300  443.3700 H         7 CUB7        0.0000 
    102 DU        173.8300   23.4700  443.8200 H         7 CUB7        0.0000 
    103 DU        176.5200   19.3400  444.4800 H         7 CUB7        0.0000 
    104 DU        178.3000   18.4400  445.2000 H         7 CUB7        0.0000 
    105 DU        176.6200   18.6400  446.4800 H         7 CUB7        0.0000 
    106 DU        175.8600   19.0700  448.9200 H         7 CUB7        0.0000 
    107 DU        176.7700   19.3100  450.0900 H         7 CUB7        0.0000 
    108 DU        177.6800   19.5500  451.2500 H         7 CUB7        0.0000 
@<TRIPOS>BOND
@<TRIPOS>SUBSTRUCTURE
     1 SER1        1 GROUP   
     2 ALA2       21 GROUP   
     3 ASP3       35 GROUP   
     4 LYS4       54 GROUP   
     5 PHE5       57 GROUP   
     6 GLY6       64 GROUP   
     7 CUB7       91 GROUP   
@<TRIPOS>SET

