#    Name: 5och_8_ADP
#    Modification time : Fri May 22 19:19:14 2020

@<TRIPOS>MOLECULE
5och_8_ADP
   27    29     1     0     1
SMALL
NO_CHARGES


@<TRIPOS>ATOM
      1 PB        201.5030   11.5780  432.5920 P.3       1 ADP1001     0.0000 
      2 O1B       202.4180   11.5060  431.4300 O.co2     1 ADP1001     0.0000 
      3 O2B       200.1410   10.9510  432.3040 O.co2     1 ADP1001     0.0000 
      4 O3B       201.2440   13.0000  433.0750 O.co2     1 ADP1001     0.0000 
      5 PA        203.1350   11.1540  434.9670 P.3       1 ADP1001     0.0000 
      6 O1A       204.0420   12.2230  434.5230 O.co2     1 ADP1001     0.0000 
      7 O2A       202.3050   11.5030  436.2060 O.co2     1 ADP1001     0.0000 
      8 O3A       202.1060   10.7640  433.8200 O.3       1 ADP1001     0.0000 
      9 O5'       203.9210    9.8020  435.3080 O.3       1 ADP1001     0.0000 
     10 C5'       204.7180    9.0540  434.3710 C.3       1 ADP1001     0.0000 
     11 C4'       205.1770    7.7680  435.0120 C.3       1 ADP1001     0.0000 
     12 O4'       205.6430    8.0110  436.3570 O.3       1 ADP1001     0.0000 
     13 C3'       204.1520    6.6380  435.0990 C.3       1 ADP1001     0.0000 
     14 O3'       204.7470    5.3980  434.7310 O.3       1 ADP1001     0.0000 
     15 C2'       203.7060    6.6770  436.5660 C.3       1 ADP1001     0.0000 
     16 O2'       203.3200    5.3980  437.0570 O.3       1 ADP1001     0.0000 
     17 C1'       204.9710    7.1680  437.2740 C.3       1 ADP1001     0.0000 
     18 N9        204.7170    7.9300  438.4980 N.pl3     1 ADP1001     0.0000 
     19 C8        204.1360    9.1690  438.5880 C.2       1 ADP1001     0.0000 
     20 N7        204.0090    9.6120  439.8170 N.2       1 ADP1001     0.0000 
     21 C5        204.5440    8.5940  440.5910 C.ar      1 ADP1001     0.0000 
     22 C6        204.7030    8.4420  441.9850 C.ar      1 ADP1001     0.0000 
     23 N6        204.3130    9.3540  442.8820 N.pl3     1 ADP1001     0.0000 
     24 N1        205.2740    7.2990  442.4330 N.ar      1 ADP1001     0.0000 
     25 C2        205.6550    6.3750  441.5410 C.ar      1 ADP1001     0.0000 
     26 N3        205.5560    6.4090  440.2070 N.ar      1 ADP1001     0.0000 
     27 C4        204.9870    7.5510  439.7900 C.ar      1 ADP1001     0.0000 
@<TRIPOS>BOND
     1    1    2 ar   
     2    1    3 ar   
     3    1    4 ar   
     4    1    8 1    
     5    5    6 ar   
     6    5    7 ar   
     7    5    8 1    
     8    5    9 1    
     9    9   10 1    
    10   10   11 1    
    11   11   12 1    
    12   11   13 1    
    13   12   17 1    
    14   13   14 1    
    15   13   15 1    
    16   15   16 1    
    17   15   17 1    
    18   17   18 1    
    19   18   19 1    
    20   18   27 1    
    21   19   20 2    
    22   20   21 1    
    23   21   22 ar   
    24   21   27 ar   
    25   22   23 1    
    26   22   24 ar   
    27   24   25 ar   
    28   25   26 ar   
    29   26   27 ar   
@<TRIPOS>SUBSTRUCTURE
     1 ADP1001     1 GROUP   
@<TRIPOS>SET
ATOM$ORANGE STATIC     ATOMS   COLORGROUP SYSTEM 
20 10 10 11 11 13 13 15 15 17 17 19 19 21 21 22 22 25 \
25 27 27 

