#    Name: 5och_9_ADP
#    Modification time : Fri May 22 19:19:26 2020

@<TRIPOS>MOLECULE
5och_9_ADP
   27    29     1     0     1
SMALL
NO_CHARGES


@<TRIPOS>ATOM
      1 PB        175.7270   18.2070  438.2090 P.3       1 ADP1001     0.0000 
      2 O1B       174.4450   18.5830  437.5490 O.co2     1 ADP1001     0.0000 
      3 O2B       176.9040   19.0340  437.7070 O.co2     1 ADP1001     0.0000 
      4 O3B       176.1110   16.7270  438.0480 O.co2     1 ADP1001     0.0000 
      5 PA        175.0830   17.6180  440.9930 P.3       1 ADP1001     0.0000 
      6 O1A       174.0210   16.7020  440.5400 O.co2     1 ADP1001     0.0000 
      7 O2A       176.2820   16.9310  441.6500 O.co2     1 ADP1001     0.0000 
      8 O3A       175.6470   18.4740  439.7760 O.3       1 ADP1001     0.0000 
      9 O5'       174.5360   18.6870  442.0510 O.3       1 ADP1001     0.0000 
     10 C5'       173.4990   19.6500  441.7800 C.3       1 ADP1001     0.0000 
     11 C4'       173.3680   20.5990  442.9470 C.3       1 ADP1001     0.0000 
     12 O4'       173.3860   19.8690  444.1930 O.3       1 ADP1001     0.0000 
     13 C3'       174.4260   21.6950  443.0640 C.3       1 ADP1001     0.0000 
     14 O3'       173.8220   22.9410  443.3910 O.3       1 ADP1001     0.0000 
     15 C2'       175.3550   21.1720  444.1650 C.3       1 ADP1001     0.0000 
     16 O2'       175.9900   22.2110  444.9020 O.3       1 ADP1001     0.0000 
     17 C1'       174.3880   20.3840  445.0500 C.3       1 ADP1001     0.0000 
     18 N9        175.0060   19.2640  445.7550 N.pl3     1 ADP1001     0.0000 
     19 C8        175.5240   18.1210  445.2030 C.2       1 ADP1001     0.0000 
     20 N7        176.0470   17.2930  446.0720 N.2       1 ADP1001     0.0000 
     21 C5        175.8630   17.9320  447.2900 C.ar      1 ADP1001     0.0000 
     22 C6        176.2080   17.5840  448.6110 C.ar      1 ADP1001     0.0000 
     23 N6        176.8550   16.4590  448.9380 N.pl3     1 ADP1001     0.0000 
     24 N1        175.8810   18.4510  449.5970 N.ar      1 ADP1001     0.0000 
     25 C2        175.2530   19.5890  449.2750 C.ar      1 ADP1001     0.0000 
     26 N3        174.8810   20.0250  448.0670 N.ar      1 ADP1001     0.0000 
     27 C4        175.2180   19.1490  447.1110 C.ar      1 ADP1001     0.0000 
@<TRIPOS>BOND
     1    1    2 ar   
     2    1    3 ar   
     3    1    4 ar   
     4    1    8 1    
     5    5    6 ar   
     6    5    7 ar   
     7    5    8 1    
     8    5    9 1    
     9    9   10 1    
    10   10   11 1    
    11   11   12 1    
    12   11   13 1    
    13   12   17 1    
    14   13   14 1    
    15   13   15 1    
    16   15   16 1    
    17   15   17 1    
    18   17   18 1    
    19   18   19 1    
    20   18   27 1    
    21   19   20 2    
    22   20   21 1    
    23   21   22 ar   
    24   21   27 ar   
    25   22   23 1    
    26   22   24 ar   
    27   24   25 ar   
    28   25   26 ar   
    29   26   27 ar   
@<TRIPOS>SUBSTRUCTURE
     1 ADP1001     1 GROUP   
@<TRIPOS>SET
ATOM$ORANGE STATIC     ATOMS   COLORGROUP SYSTEM 
20 10 10 11 11 13 13 15 15 17 17 19 19 21 21 22 22 25 \
25 27 27 

