#    Name: 5och_5_Y01
#    Modification time : Fri May 22 19:18:40 2020

@<TRIPOS>MOLECULE
5och_5_Y01
   35    38     1     0     0
SMALL
NO_CHARGES


@<TRIPOS>ATOM
      1 CAA       137.9440   58.2780  480.4100 C.3       1 Y011003     0.0000 
      2 CBA       138.1260   56.8210  480.8080 C.3       1 Y011003     0.0000 
      3 CAB       139.3650   56.6190  481.6680 C.3       1 Y011003     0.0000 
      4 CAN       138.0160   55.8730  479.6160 C.3       1 Y011003     0.0000 
      5 CAJ       136.6630   55.1600  479.4540 C.3       1 Y011003     0.0000 
      6 CAO       136.4800   54.3450  478.1690 C.3       1 Y011003     0.0000 
      7 CBB       137.5580   53.2770  477.8880 C.3       1 Y011003     0.0000 
      8 CAC       137.0360   51.8930  478.2690 C.3       1 Y011003     0.0000 
      9 CBE       138.0860   53.3740  476.4370 C.3       1 Y011003     0.0000 
     10 CAP       138.4130   54.8290  476.0250 C.3       1 Y011003     0.0000 
     11 CAQ       139.4870   54.7450  474.9280 C.3       1 Y011003     0.0000 
     12 CBG       139.6130   53.2410  474.6330 C.3       1 Y011003     0.0000 
     13 CBI       139.3460   52.5760  476.0050 C.3       1 Y011003     0.0000 
     14 CAE       140.5110   52.7760  476.9990 C.3       1 Y011003     0.0000 
     15 CAU       139.1390   51.0790  475.7110 C.3       1 Y011003     0.0000 
     16 CAS       140.3140   50.4380  474.9640 C.3       1 Y011003     0.0000 
     17 CBF       140.7340   51.1810  473.6800 C.3       1 Y011003     0.0000 
     18 CBD       140.8570   52.7070  473.8940 C.3       1 Y011003     0.0000 
     19 CAK       141.0330   53.4000  472.5440 C.3       1 Y011003     0.0000 
     20 CAI       142.0230   52.7000  471.6660 C.2       1 Y011003     0.0000 
     21 CAZ       142.4670   51.4620  471.8500 C.2       1 Y011003     0.0000 
     22 CAV       143.4820   50.8660  470.8960 C.3       1 Y011003     0.0000 
     23 CBH       142.0130   50.5740  473.0150 C.3       1 Y011003     0.0000 
     24 CAD       143.1780   50.4540  474.0250 C.3       1 Y011003     0.0000 
     25 CAT       141.6690   49.1750  472.4570 C.3       1 Y011003     0.0000 
     26 CAR       142.7560   48.5670  471.5620 C.3       1 Y011003     0.0000 
     27 CBC       143.0850   49.4850  470.4040 C.3       1 Y011003     0.0000 
     28 OAW       144.2680   48.9310  469.7430 O.3       1 Y011003     0.0000 
     29 CAY       144.4910   49.1830  468.4340 C.2       1 Y011003     0.0000 
     30 OAG       143.6400   49.5290  467.6560 O.2       1 Y011003     0.0000 
     31 CAM       145.9490   49.0350  468.1070 C.3       1 Y011003     0.0000 
     32 CAL       146.2500   48.0850  466.9670 C.3       1 Y011003     0.0000 
     33 CAX       147.7200   47.8670  466.7660 C.2       1 Y011003     0.0000 
     34 OAH       148.1530   48.2900  465.6020 O.co2     1 Y011003     0.0000 
     35 OAF       148.4330   47.3400  467.6050 O.co2     1 Y011003     0.0000 
@<TRIPOS>BOND
     1    1    2 1    
     2    2    3 1    
     3    2    4 1    
     4    4    5 1    
     5    5    6 1    
     6    6    7 1    
     7    7    8 1    
     8    7    9 1    
     9    9   10 1    
    10    9   13 1    
    11   10   11 1    
    12   11   12 1    
    13   12   13 1    
    14   12   18 1    
    15   13   14 1    
    16   13   15 1    
    17   15   16 1    
    18   16   17 1    
    19   17   18 1    
    20   17   23 1    
    21   18   19 1    
    22   19   20 1    
    23   20   21 2    
    24   21   22 1    
    25   21   23 1    
    26   22   27 1    
    27   23   24 1    
    28   23   25 1    
    29   25   26 1    
    30   26   27 1    
    31   27   28 1    
    32   28   29 1    
    33   29   30 2    
    34   29   31 1    
    35   31   32 1    
    36   32   33 1    
    37   33   34 ar   
    38   33   35 ar   
@<TRIPOS>SUBSTRUCTURE
     1 Y011003     1 GROUP   
@<TRIPOS>SET

