#    Name: 5och_10_ADP
#    Modification time : Fri May 22 19:19:39 2020

@<TRIPOS>MOLECULE
5och_10_ADP
   27    29     1     0     1
SMALL
NO_CHARGES


@<TRIPOS>ATOM
      1 PB        245.9810   53.1590  405.0760 P.3       1 ADP1001     0.0000 
      2 O1B       246.8620   52.9450  403.8930 O.co2     1 ADP1001     0.0000 
      3 O2B       244.5440   52.7170  404.8320 O.co2     1 ADP1001     0.0000 
      4 O3B       245.9240   54.6160  405.5330 O.co2     1 ADP1001     0.0000 
      5 PA        247.6240   52.5900  407.4170 P.3       1 ADP1001     0.0000 
      6 O1A       248.6470   53.5220  406.9170 O.co2     1 ADP1001     0.0000 
      7 O2A       246.9060   53.0830  408.6680 O.co2     1 ADP1001     0.0000 
      8 O3A       246.5110   52.3080  406.3140 O.3       1 ADP1001     0.0000 
      9 O5'       248.2400   51.1520  407.7650 O.3       1 ADP1001     0.0000 
     10 C5'       248.9030   50.2870  406.8200 C.3       1 ADP1001     0.0000 
     11 C4'       249.2210   48.9650  407.4770 C.3       1 ADP1001     0.0000 
     12 O4'       249.7730   49.1720  408.7970 O.3       1 ADP1001     0.0000 
     13 C3'       248.0580   47.9830  407.6330 C.3       1 ADP1001     0.0000 
     14 O3'       248.4450   46.6610  407.2750 O.3       1 ADP1001     0.0000 
     15 C2'       247.6830   48.1110  409.1150 C.3       1 ADP1001     0.0000 
     16 O2'       247.1560   46.9030  409.6530 O.3       1 ADP1001     0.0000 
     17 C1'       249.0300   48.4480  409.7610 C.3       1 ADP1001     0.0000 
     18 N9        248.9260   49.2620  410.9730 N.pl3     1 ADP1001     0.0000 
     19 C8        248.5130   50.5680  411.0520 C.2       1 ADP1001     0.0000 
     20 N7        248.4870   51.0480  412.2740 N.2       1 ADP1001     0.0000 
     21 C5        248.9100   49.9820  413.0540 C.ar      1 ADP1001     0.0000 
     22 C6        249.0820   49.8330  414.4480 C.ar      1 ADP1001     0.0000 
     23 N6        248.8160   50.7950  415.3370 N.pl3     1 ADP1001     0.0000 
     24 N1        249.5190   48.6350  414.9030 N.ar      1 ADP1001     0.0000 
     25 C2        249.7620   47.6580  414.0210 C.ar      1 ADP1001     0.0000 
     26 N3        249.6270   47.6790  412.6900 N.ar      1 ADP1001     0.0000 
     27 C4        249.1910   48.8770  412.2650 C.ar      1 ADP1001     0.0000 
@<TRIPOS>BOND
     1    1    2 ar   
     2    1    3 ar   
     3    1    4 ar   
     4    1    8 1    
     5    5    6 ar   
     6    5    7 ar   
     7    5    8 1    
     8    5    9 1    
     9    9   10 1    
    10   10   11 1    
    11   11   12 1    
    12   11   13 1    
    13   12   17 1    
    14   13   14 1    
    15   13   15 1    
    16   15   16 1    
    17   15   17 1    
    18   17   18 1    
    19   18   19 1    
    20   18   27 1    
    21   19   20 2    
    22   20   21 1    
    23   21   22 ar   
    24   21   27 ar   
    25   22   23 1    
    26   22   24 ar   
    27   24   25 ar   
    28   25   26 ar   
    29   26   27 ar   
@<TRIPOS>SUBSTRUCTURE
     1 ADP1001     1 GROUP   
@<TRIPOS>SET
ATOM$ORANGE STATIC     ATOMS   COLORGROUP SYSTEM 
20 10 10 11 11 13 13 15 15 17 17 19 19 21 21 22 22 25 \
25 27 27 

