#    Name: 5och_15_ADP_CAVITY_N1_8
#    Modification time : Fri May 22 19:20:42 2020

@<TRIPOS>MOLECULE
5och_15_ADP_CAVITY_N1_8
  127     0     7     0     0
SMALL
NO_CHARGES


@<TRIPOS>ATOM
      1 OG        238.9800   45.5000  513.7300 O.3       1 SER1        0.0000 
      2 OG        237.3000   45.7000  515.0100 O.3       1 SER1        0.0000 
      3 OG        239.0700   44.7900  515.7300 O.3       1 SER1        0.0000 
      4 OG        239.0800   48.2600  516.9500 O.3       1 SER1        0.0000 
      5 OG        239.8900   49.2000  516.1200 O.3       1 SER1        0.0000 
      6 OG        239.1700   47.5500  518.9500 O.3       1 SER1        0.0000 
      7 OG        239.9900   48.5000  518.1200 O.3       1 SER1        0.0000 
      8 OG        238.3100   48.6900  519.4000 O.3       1 SER1        0.0000 
      9 OG        239.1300   49.6400  518.5600 O.3       1 SER1        0.0000 
     10 OG        239.2200   48.9300  520.5600 O.3       1 SER1        0.0000 
     11 N         234.3600   49.8600  508.7400 N.am      2 ALA2        0.0000 
     12 N         235.3200   48.0200  510.2900 N.am      2 ALA2        0.0000 
     13 N         236.1400   48.9600  509.4600 N.am      2 ALA2        0.0000 
     14 N         234.4600   49.1600  510.7400 N.am      2 ALA2        0.0000 
     15 N         236.2400   48.2500  511.4600 N.am      2 ALA2        0.0000 
     16 N         235.3700   49.3900  511.9000 N.am      2 ALA2        0.0000 
     17 N         234.5100   50.5400  512.3500 N.am      2 ALA2        0.0000 
     18 N         237.2000   46.4000  513.0100 N.am      2 ALA2        0.0000 
     19 N         237.1500   48.4900  512.6200 N.am      2 ALA2        0.0000 
     20 N         235.4200   50.7700  513.5100 N.am      2 ALA2        0.0000 
     21 O         239.8400   44.3600  513.2800 O.2       2 ALA2        0.0000 
     22 N         238.1100   46.6400  514.1800 N.am      2 ALA2        0.0000 
     23 N         238.9300   47.5900  513.3400 N.am      2 ALA2        0.0000 
     24 N         238.0600   48.7300  513.7900 N.am      2 ALA2        0.0000 
     25 N         238.8800   49.6700  512.9600 N.am      2 ALA2        0.0000 
     26 N         234.7000   49.1200  516.3500 N.am      2 ALA2        0.0000 
     27 N         239.8400   47.8200  514.5100 N.am      2 ALA2        0.0000 
     28 N         236.7700   46.1000  523.0600 N.am      2 ALA2        0.0000 
     29 N         237.5900   47.0500  522.2300 N.am      2 ALA2        0.0000 
     30 N         237.6900   46.3400  524.2200 N.am      2 ALA2        0.0000 
     31 N         238.5000   47.2800  523.3900 N.am      2 ALA2        0.0000 
     32 N         237.6400   48.4200  523.8400 N.am      2 ALA2        0.0000 
     33 N         235.8600   52.7900  524.3400 N.am      2 ALA2        0.0000 
     34 N         237.7400   47.7200  525.8400 N.am      2 ALA2        0.0000 
     35 N         238.5500   48.6600  525.0000 N.am      2 ALA2        0.0000 
     36 N         239.3700   49.6100  524.1700 N.am      2 ALA2        0.0000 
     37 N         240.1900   50.5500  523.3400 N.am      2 ALA2        0.0000 
     38 N         238.5100   50.7500  524.6200 N.am      2 ALA2        0.0000 
     39 N         239.3200   51.6900  523.7800 N.am      2 ALA2        0.0000 
     40 N         238.4600   52.8300  524.2300 N.am      2 ALA2        0.0000 
     41 N         240.3300   47.7600  525.7200 N.am      2 ALA2        0.0000 
     42 N         238.6500   47.9600  527.0000 N.am      2 ALA2        0.0000 
     43 N         239.4700   48.9000  526.1700 N.am      2 ALA2        0.0000 
     44 N         240.2900   49.8400  525.3300 N.am      2 ALA2        0.0000 
     45 N         237.7900   49.1000  527.4500 N.am      2 ALA2        0.0000 
     46 N         238.6000   50.0400  526.6100 N.am      2 ALA2        0.0000 
     47 N         238.5600   52.1300  526.2300 N.am      2 ALA2        0.0000 
     48 N         239.3700   53.0700  525.3900 N.am      2 ALA2        0.0000 
     49 N         238.7000   49.3400  528.6100 N.am      2 ALA2        0.0000 
     50 OD1       238.1100   50.1100  515.4000 O.co2     3 ASP3        0.0000 
     51 OD1       236.4300   50.3100  516.6800 O.co2     3 ASP3        0.0000 
     52 OD1       237.2500   51.2500  515.8400 O.co2     3 ASP3        0.0000 
     53 OD1       238.2100   49.4000  517.4000 O.co2     3 ASP3        0.0000 
     54 OD1       239.0300   50.3400  516.5600 O.co2     3 ASP3        0.0000 
     55 OD1       239.8400   51.2900  515.7300 O.co2     3 ASP3        0.0000 
     56 OD1       236.5300   49.6000  518.6800 O.co2     3 ASP3        0.0000 
     57 OD1       237.3500   50.5400  517.8400 O.co2     3 ASP3        0.0000 
     58 OD1       236.6300   48.8900  520.6700 O.co2     3 ASP3        0.0000 
     59 OD1       237.4400   49.8400  519.8400 O.co2     3 ASP3        0.0000 
     60 OD1       237.5400   49.1300  521.8400 O.co2     3 ASP3        0.0000 
     61 OD1       238.3600   50.0700  521.0100 O.co2     3 ASP3        0.0000 
     62 OD1       239.2700   50.3100  522.1700 O.co2     3 ASP3        0.0000 
     63 OD1       238.4100   51.4500  522.6200 O.co2     3 ASP3        0.0000 
     64 OD1       237.5400   52.5900  523.0600 O.co2     3 ASP3        0.0000 
     65 NZ        239.4200   44.0600  523.3300 N.4       4 LYS4        0.0000 
     66 NZ        238.5500   45.2000  523.7800 N.4       4 LYS4        0.0000 
     67 NZ        239.3700   46.1400  522.9500 N.4       4 LYS4        0.0000 
     68 NZ        240.2800   46.3800  524.1100 N.4       4 LYS4        0.0000 
     69 NZ        239.4200   47.5200  524.5600 N.4       4 LYS4        0.0000 
     70 CZ        238.2100   45.9400  516.1700 C.ar      5 PHE5        0.0000 
     71 CZ        236.4800   48.2200  517.0600 C.ar      5 PHE5        0.0000 
     72 CZ        234.8000   48.4200  518.3400 C.ar      5 PHE5        0.0000 
     73 CZ        235.6200   49.3600  517.5100 C.ar      5 PHE5        0.0000 
     74 CZ        239.1200   46.1700  517.3400 C.ar      5 PHE5        0.0000 
     75 CZ        238.2600   47.3200  517.7800 C.ar      5 PHE5        0.0000 
     76 CZ        237.4000   48.4600  518.2300 C.ar      5 PHE5        0.0000 
     77 CZ        238.4100   44.5200  520.1700 C.ar      5 PHE5        0.0000 
     78 CZ        237.5400   45.6700  520.6200 C.ar      5 PHE5        0.0000 
     79 CZ        238.3600   46.6100  519.7800 C.ar      5 PHE5        0.0000 
     80 CZ        236.6800   46.8100  521.0600 C.ar      5 PHE5        0.0000 
     81 CZ        237.4900   47.7500  520.2300 C.ar      5 PHE5        0.0000 
     82 CZ        238.5000   43.8200  522.1700 C.ar      5 PHE5        0.0000 
     83 CZ        237.6400   44.9600  522.6100 C.ar      5 PHE5        0.0000 
     84 CZ        238.4500   45.9000  521.7800 C.ar      5 PHE5        0.0000 
     85 CA        235.4200   47.3100  512.2900 C.3       6 GLY6        0.0000 
     86 CA        236.3300   47.5500  513.4600 C.3       6 GLY6        0.0000 
     87 CA        235.4700   48.6900  513.9000 C.3       6 GLY6        0.0000 
     88 CA        236.2900   49.6300  513.0700 C.3       6 GLY6        0.0000 
     89 CA        239.7900   46.4400  512.9000 C.3       6 GLY6        0.0000 
     90 CA        236.4300   46.8400  515.4500 C.3       6 GLY6        0.0000 
     91 CA        237.2500   47.7800  514.6200 C.3       6 GLY6        0.0000 
     92 CA        235.5700   47.9800  515.9000 C.3       6 GLY6        0.0000 
     93 CA        236.3800   48.9300  515.0700 C.3       6 GLY6        0.0000 
     94 CA        235.5200   50.0700  515.5100 C.3       6 GLY6        0.0000 
     95 CA        241.5700   45.5400  513.6200 C.3       6 GLY6        0.0000 
     96 CA        240.7100   46.6800  514.0600 C.3       6 GLY6        0.0000 
     97 CA        234.7500   50.5000  517.9600 C.3       6 GLY6        0.0000 
     98 CA        235.5700   51.4500  517.1200 C.3       6 GLY6        0.0000 
     99 CA        235.7100   48.6600  519.5100 C.3       6 GLY6        0.0000 
    100 CA        235.8100   47.9500  521.5100 C.3       6 GLY6        0.0000 
    101 CA        236.7300   48.1900  522.6700 C.3       6 GLY6        0.0000 
    102 CA        236.6800   50.2700  522.2800 C.3       6 GLY6        0.0000 
    103 CA        240.1400   49.1700  521.7300 C.3       6 GLY6        0.0000 
    104 CA        238.4600   49.3700  523.0000 C.3       6 GLY6        0.0000 
    105 CA        237.5900   50.5100  523.4500 C.3       6 GLY6        0.0000 
    106 CA        236.7300   51.6500  523.9000 C.3       6 GLY6        0.0000 
    107 CA        241.0500   49.4100  522.8900 C.3       6 GLY6        0.0000 
    108 CA        237.6900   49.8000  525.4500 C.3       6 GLY6        0.0000 
    109 CA        236.0100   50.0000  526.7300 C.3       6 GLY6        0.0000 
    110 CA        236.8300   50.9500  525.8900 C.3       6 GLY6        0.0000 
    111 DU        237.2000   49.8700  514.2300 H         7 CUB7        0.0000 
    112 DU        238.0200   50.8100  513.4000 H         7 CUB7        0.0000 
    113 DU        236.3400   51.0100  514.6800 H         7 CUB7        0.0000 
    114 DU        239.8900   45.7400  514.8900 H         7 CUB7        0.0000 
    115 DU        239.0300   46.8800  515.3400 H         7 CUB7        0.0000 
    116 DU        238.1600   48.0200  515.7900 H         7 CUB7        0.0000 
    117 DU        238.9800   48.9600  514.9500 H         7 CUB7        0.0000 
    118 DU        239.8000   49.9100  514.1200 H         7 CUB7        0.0000 
    119 DU        237.3000   49.1600  516.2300 H         7 CUB7        0.0000 
    120 DU        239.9400   47.1200  516.5100 H         7 CUB7        0.0000 
    121 DU        240.7600   48.0600  515.6700 H         7 CUB7        0.0000 
    122 DU        239.2700   46.8500  520.9500 H         7 CUB7        0.0000 
    123 DU        238.4100   47.9900  521.3900 H         7 CUB7        0.0000 
    124 DU        239.3200   48.2300  522.5600 H         7 CUB7        0.0000 
    125 DU        240.2400   48.4600  523.7200 H         7 CUB7        0.0000 
    126 DU        237.6400   51.8900  525.0600 H         7 CUB7        0.0000 
    127 DU        237.7400   51.1800  527.0600 H         7 CUB7        0.0000 
@<TRIPOS>BOND
@<TRIPOS>SUBSTRUCTURE
     1 SER1        1 GROUP   
     2 ALA2       11 GROUP   
     3 ASP3       50 GROUP   
     4 LYS4       65 GROUP   
     5 PHE5       70 GROUP   
     6 GLY6       85 GROUP   
     7 CUB7      111 GROUP   
@<TRIPOS>SET

