#    Name: 5och_12_ADP_CAVITY_N1_6
#    Modification time : Fri May 22 19:20:06 2020

@<TRIPOS>MOLECULE
5och_12_ADP_CAVITY_N1_6
   68     0     6     0     0
SMALL
NO_CHARGES


@<TRIPOS>ATOM
      1 OG        155.4600   49.5100  528.2400 O.3       1 SER1        0.0000 
      2 OG        147.9600   47.2800  534.5700 O.3       1 SER1        0.0000 
      3 OG        148.7800   48.2200  533.7400 O.3       1 SER1        0.0000 
      4 OG        147.1000   48.4200  535.0200 O.3       1 SER1        0.0000 
      5 OG        147.9200   49.3600  534.1900 O.3       1 SER1        0.0000 
      6 OG        155.5500   48.8100  530.2400 O.3       1 SER1        0.0000 
      7 OG        156.3700   49.7500  529.4000 O.3       1 SER1        0.0000 
      8 OG        157.1900   50.6900  528.5700 O.3       1 SER1        0.0000 
      9 OG        150.5100   49.4000  534.0700 O.3       1 SER1        0.0000 
     10 OG        156.4700   49.0400  531.4000 O.3       1 SER1        0.0000 
     11 OG        155.6000   50.1900  531.8500 O.3       1 SER1        0.0000 
     12 OG        156.4200   51.1300  531.0100 O.3       1 SER1        0.0000 
     13 N         148.6300   47.5500  530.1300 N.am      2 ALA2        0.0000 
     14 N         150.4100   46.6400  530.8500 N.am      2 ALA2        0.0000 
     15 N         148.7300   46.8400  532.1300 N.am      2 ALA2        0.0000 
     16 N         149.5500   47.7900  531.3000 N.am      2 ALA2        0.0000 
     17 N         147.0500   47.0400  533.4100 N.am      2 ALA2        0.0000 
     18 O         148.6800   48.9300  531.7400 O.2       2 ALA2        0.0000 
     19 O         147.0000   49.1300  533.0200 O.2       2 ALA2        0.0000 
     20 O         148.7300   50.3100  533.3500 O.2       2 ALA2        0.0000 
     21 O         147.0500   50.5100  534.6300 O.2       2 ALA2        0.0000 
     22 O         156.4200   47.6600  529.7900 O.2       2 ALA2        0.0000 
     23 O         152.1900   49.2000  532.7900 O.2       2 ALA2        0.0000 
     24 O         151.3300   50.3500  533.2400 O.2       2 ALA2        0.0000 
     25 O         152.1000   53.3700  532.0200 O.2       2 ALA2        0.0000 
     26 O         154.8400   47.1600  533.0700 O.2       2 ALA2        0.0000 
     27 O         155.6500   48.1000  532.2300 O.2       2 ALA2        0.0000 
     28 O         152.2900   48.5000  534.7900 O.2       2 ALA2        0.0000 
     29 O         153.1100   49.4400  533.9600 O.2       2 ALA2        0.0000 
     30 O         156.5700   48.3400  533.4000 O.2       2 ALA2        0.0000 
     31 O         154.8800   48.5400  534.6800 O.2       2 ALA2        0.0000 
     32 O         155.7000   49.4800  533.8500 O.2       2 ALA2        0.0000 
     33 O         156.5200   50.4200  533.0100 O.2       2 ALA2        0.0000 
     34 OD1       152.1400   47.8300  531.1800 O.co2     3 ASP3        0.0000 
     35 OD1       149.6400   47.0800  533.2900 O.co2     3 ASP3        0.0000 
     36 OD1       150.4600   48.0200  532.4600 O.co2     3 ASP3        0.0000 
     37 OD1       151.2800   48.9700  531.6300 O.co2     3 ASP3        0.0000 
     38 OD1       153.0600   48.0600  532.3500 O.co2     3 ASP3        0.0000 
     39 OD1       150.5600   47.3200  534.4600 O.co2     3 ASP3        0.0000 
     40 OD1       151.3800   48.2600  533.6300 O.co2     3 ASP3        0.0000 
     41 OD1       153.1500   47.3600  534.3500 O.co2     3 ASP3        0.0000 
     42 OD1       153.9700   48.3000  533.5100 O.co2     3 ASP3        0.0000 
     43 NZ        147.9100   45.9000  532.9600 N.4       4 LYS4        0.0000 
     44 CA        155.5000   47.4300  528.6300 C.3       5 GLY6        0.0000 
     45 CA        153.8200   47.6300  529.9000 C.3       5 GLY6        0.0000 
     46 CA        150.4100   50.1100  532.0700 C.3       5 GLY6        0.0000 
     47 CA        151.2300   51.0500  531.2400 C.3       5 GLY6        0.0000 
     48 CA        149.5500   51.2500  532.5200 C.3       5 GLY6        0.0000 
     49 CA        150.3700   52.1900  531.6900 C.3       5 GLY6        0.0000 
     50 CA        154.7400   47.8600  531.0700 C.3       5 GLY6        0.0000 
     51 CA        153.0100   50.1500  531.9600 C.3       5 GLY6        0.0000 
     52 CA        152.1400   51.2900  532.4100 C.3       5 GLY6        0.0000 
     53 CA        150.4600   51.4900  533.6900 C.3       5 GLY6        0.0000 
     54 CA        151.2800   52.4300  532.8500 C.3       5 GLY6        0.0000 
     55 CA        154.7900   49.2400  532.6800 C.3       5 GLY6        0.0000 
     56 CA        153.9200   50.3800  533.1300 C.3       5 GLY6        0.0000 
     57 CA        154.7400   51.3300  532.2900 C.3       5 GLY6        0.0000 
     58 CA        154.6900   53.4100  531.9100 C.3       5 GLY6        0.0000 
     59 CA        153.0100   53.6100  533.1800 C.3       5 GLY6        0.0000 
     60 DU        147.8700   47.9900  532.5700 H         6 CUB7        0.0000 
     61 DU        149.5000   49.8700  530.9100 H         6 CUB7        0.0000 
     62 DU        152.9600   48.7700  530.3500 H         6 CUB7        0.0000 
     63 DU        149.6000   49.1700  532.9100 H         6 CUB7        0.0000 
     64 DU        153.8700   49.0100  531.5200 H         6 CUB7        0.0000 
     65 DU        154.6900   49.9500  530.6800 H         6 CUB7        0.0000 
     66 DU        155.5100   50.8900  529.8500 H         6 CUB7        0.0000 
     67 DU        153.8300   51.0900  531.1300 H         6 CUB7        0.0000 
     68 DU        155.5600   52.2700  531.4600 H         6 CUB7        0.0000 
@<TRIPOS>BOND
@<TRIPOS>SUBSTRUCTURE
     1 SER1        1 GROUP   
     2 ALA2       13 GROUP   
     3 ASP3       34 GROUP   
     4 LYS4       43 GROUP   
     5 GLY6       44 GROUP   
     6 CUB7       60 GROUP   
@<TRIPOS>SET

