#    Name: 5och_4_Y01
#    Modification time : Fri May 22 19:18:22 2020

@<TRIPOS>MOLECULE
5och_4_Y01
   28    31     1     0     0
SMALL
NO_CHARGES


@<TRIPOS>ATOM
      1 CBB       165.1450   55.7190  483.5610 C.3       1 Y011003     0.0000 
      2 CBE       165.1230   56.2470  482.1130 C.3       1 Y011003     0.0000 
      3 CAP       165.0470   55.1050  481.0740 C.3       1 Y011003     0.0000 
      4 CAQ       164.3680   55.7000  479.8250 C.3       1 Y011003     0.0000 
      5 CBG       164.2520   57.2030  480.1360 C.3       1 Y011003     0.0000 
      6 CBI       164.0230   57.2440  481.6650 C.3       1 Y011003     0.0000 
      7 CAE       162.6130   56.7570  482.0590 C.3       1 Y011003     0.0000 
      8 CAU       164.2190   58.7120  482.0920 C.3       1 Y011003     0.0000 
      9 CAS       163.3140   59.6890  481.3310 C.3       1 Y011003     0.0000 
     10 CBF       163.3940   59.5560  479.7960 C.3       1 Y011003     0.0000 
     11 CBD       163.2920   58.0870  479.3170 C.3       1 Y011003     0.0000 
     12 CAK       163.6220   58.0090  477.8260 C.3       1 Y011003     0.0000 
     13 CAI       162.9610   59.0940  477.0330 C.2       1 Y011003     0.0000 
     14 CAZ       162.4190   60.1960  477.5440 C.2       1 Y011003     0.0000 
     15 CAV       161.7720   61.2190  476.6330 C.3       1 Y011003     0.0000 
     16 CBH       162.3910   60.4960  479.0480 C.3       1 Y011003     0.0000 
     17 CAD       160.9440   60.3050  479.5550 C.3       1 Y011003     0.0000 
     18 CAT       162.8260   61.9630  479.2670 C.3       1 Y011003     0.0000 
     19 CAR       162.0930   62.9790  478.3820 C.3       1 Y011003     0.0000 
     20 CBC       162.2460   62.6350  476.9160 C.3       1 Y011003     0.0000 
     21 OAW       161.3440   63.5130  476.1670 O.3       1 Y011003     0.0000 
     22 CAY       161.6430   63.8480  474.8980 C.2       1 Y011003     0.0000 
     23 OAG       162.7470   63.7870  474.4260 O.2       1 Y011003     0.0000 
     24 CAM       160.4070   64.2470  474.1500 C.3       1 Y011003     0.0000 
     25 CAL       160.4800   65.6220  473.5160 C.3       1 Y011003     0.0000 
     26 CAX       159.1870   66.0440  472.8830 C.2       1 Y011003     0.0000 
     27 OAH       159.2600   66.1720  471.5810 O.co2     1 Y011003     0.0000 
     28 OAF       158.1740   66.2500  473.5250 O.co2     1 Y011003     0.0000 
@<TRIPOS>BOND
     1    1    2 1    
     2    2    3 1    
     3    2    6 1    
     4    3    4 1    
     5    4    5 1    
     6    5    6 1    
     7    5   11 1    
     8    6    7 1    
     9    6    8 1    
    10    8    9 1    
    11    9   10 1    
    12   10   11 1    
    13   10   16 1    
    14   11   12 1    
    15   12   13 1    
    16   13   14 2    
    17   14   15 1    
    18   14   16 1    
    19   15   20 1    
    20   16   17 1    
    21   16   18 1    
    22   18   19 1    
    23   19   20 1    
    24   20   21 1    
    25   21   22 1    
    26   22   23 2    
    27   22   24 1    
    28   24   25 1    
    29   25   26 1    
    30   26   27 ar   
    31   26   28 ar   
@<TRIPOS>SUBSTRUCTURE
     1 Y011003     1 GROUP   
@<TRIPOS>SET

