#    Name: 5och_12_ADP
#    Modification time : Fri May 22 19:20:05 2020

@<TRIPOS>MOLECULE
5och_12_ADP
   27    29     1     0     1
SMALL
NO_CHARGES


@<TRIPOS>ATOM
      1 PB        153.8750   48.1890  534.2530 P.3       1 ADP1001     0.0000 
      2 O1B       153.8180   46.7460  533.7430 O.co2     1 ADP1001     0.0000 
      3 O2B       152.4350   48.6580  534.4780 O.co2     1 ADP1001     0.0000 
      4 O3B       154.7300   48.3470  535.4740 O.co2     1 ADP1001     0.0000 
      5 PA        155.5810   48.8160  531.9640 P.3       1 ADP1001     0.0000 
      6 O1A       154.8720   48.3970  530.6870 O.co2     1 ADP1001     0.0000 
      7 O2A       156.5730   47.8450  532.4590 O.co2     1 ADP1001     0.0000 
      8 O3A       154.4500   49.0710  533.0550 O.3       1 ADP1001     0.0000 
      9 O5'       156.2310   50.2500  531.6700 O.3       1 ADP1001     0.0000 
     10 C5'       156.8950   51.0690  532.6550 C.3       1 ADP1001     0.0000 
     11 C4'       157.2410   52.4170  532.0660 C.3       1 ADP1001     0.0000 
     12 O4'       157.8110   52.2590  530.7500 O.3       1 ADP1001     0.0000 
     13 C3'       156.0910   53.4190  531.9290 C.3       1 ADP1001     0.0000 
     14 O3'       156.4920   54.7240  532.3350 O.3       1 ADP1001     0.0000 
     15 C2'       155.7280   53.3390  530.4430 C.3       1 ADP1001     0.0000 
     16 O2'       155.1740   54.5470  529.9310 O.3       1 ADP1001     0.0000 
     17 C1'       157.0840   53.0260  529.8060 C.3       1 ADP1001     0.0000 
     18 N9        156.9930   52.2580  528.5670 N.pl3     1 ADP1001     0.0000 
     19 C8        156.5750   50.9640  528.4240 C.2       1 ADP1001     0.0000 
     20 N7        156.5720   50.5310  527.1900 N.2       1 ADP1001     0.0000 
     21 C5        157.0200   51.6240  526.4570 C.ar      1 ADP1001     0.0000 
     22 C6        157.2220   51.8270  525.0830 C.ar      1 ADP1001     0.0000 
     23 N6        156.9620   50.9010  524.1570 N.pl3     1 ADP1001     0.0000 
     24 N1        157.6770   53.0370  524.6810 N.ar      1 ADP1001     0.0000 
     25 C2        157.9060   53.9780  525.6040 C.ar      1 ADP1001     0.0000 
     26 N3        157.7410   53.9050  526.9290 N.ar      1 ADP1001     0.0000 
     27 C4        157.2910   52.6970  527.2960 C.ar      1 ADP1001     0.0000 
@<TRIPOS>BOND
     1    1    2 ar   
     2    1    3 ar   
     3    1    4 ar   
     4    1    8 1    
     5    5    6 ar   
     6    5    7 ar   
     7    5    8 1    
     8    5    9 1    
     9    9   10 1    
    10   10   11 1    
    11   11   12 1    
    12   11   13 1    
    13   12   17 1    
    14   13   14 1    
    15   13   15 1    
    16   15   16 1    
    17   15   17 1    
    18   17   18 1    
    19   18   19 1    
    20   18   27 1    
    21   19   20 2    
    22   20   21 1    
    23   21   22 ar   
    24   21   27 ar   
    25   22   23 1    
    26   22   24 ar   
    27   24   25 ar   
    28   25   26 ar   
    29   26   27 ar   
@<TRIPOS>SUBSTRUCTURE
     1 ADP1001     1 GROUP   
@<TRIPOS>SET
ATOM$ORANGE STATIC     ATOMS   COLORGROUP SYSTEM 
20 10 10 11 11 13 13 15 15 17 17 19 19 21 21 22 22 25 \
25 27 27 

