#    Name: 5och_10_ADP_CAVITY_N1_4
#    Modification time : Fri May 22 19:19:40 2020

@<TRIPOS>MOLECULE
5och_10_ADP_CAVITY_N1_4
   43     0     6     0     0
SMALL
NO_CHARGES


@<TRIPOS>ATOM
      1 OG        247.3900   45.6100  408.6300 O.3       1 SER1        0.0000 
      2 OG        247.4900   44.9000  410.6300 O.3       1 SER1        0.0000 
      3 OG        248.3100   45.8400  409.7900 O.3       1 SER1        0.0000 
      4 OG        248.4100   45.1400  411.7900 O.3       1 SER1        0.0000 
      5 OG        249.2200   46.0800  410.9600 O.3       1 SER1        0.0000 
      6 OG        248.3600   47.2200  411.4000 O.3       1 SER1        0.0000 
      7 OG        247.6400   45.5700  414.2300 O.3       1 SER1        0.0000 
      8 OG        248.4600   46.5200  413.4000 O.3       1 SER1        0.0000 
      9 OG        249.2700   47.4600  412.5700 O.3       1 SER1        0.0000 
     10 OG        247.5900   47.6600  413.8500 O.3       1 SER1        0.0000 
     11 OG        248.4100   48.6000  413.0100 O.3       1 SER1        0.0000 
     12 N         249.3200   48.8400  414.1800 N.am      2 ALA2        0.0000 
     13 N         248.4600   49.9800  414.6300 N.am      2 ALA2        0.0000 
     14 N         248.5500   49.2800  416.6200 N.am      2 ALA2        0.0000 
     15 NZ        247.7400   48.3300  417.4600 N.4       3 LYS4        0.0000 
     16 CZ        249.1700   44.7000  409.3500 C.ar      4 PHE5        0.0000 
     17 CZ        250.0900   44.9400  410.5100 C.ar      4 PHE5        0.0000 
     18 CZ        251.8200   46.1200  410.8400 C.ar      4 PHE5        0.0000 
     19 CZ        250.1900   47.7000  413.7300 C.ar      4 PHE5        0.0000 
     20 CA        250.1800   44.2300  412.5100 C.3       5 GLY6        0.0000 
     21 CA        251.0000   45.1800  411.6800 C.3       5 GLY6        0.0000 
     22 CA        251.9200   45.4100  412.8400 C.3       5 GLY6        0.0000 
     23 CA        250.2300   45.6100  414.1200 C.3       5 GLY6        0.0000 
     24 CA        251.0500   46.5600  413.2900 C.3       5 GLY6        0.0000 
     25 CA        247.6900   46.9500  415.8500 C.3       5 GLY6        0.0000 
     26 CA        250.3300   44.9100  416.1200 C.3       5 GLY6        0.0000 
     27 CA        251.1500   45.8500  415.2900 C.3       5 GLY6        0.0000 
     28 CA        249.4700   46.0500  416.5700 C.3       5 GLY6        0.0000 
     29 CA        250.2800   46.9900  415.7300 C.3       5 GLY6        0.0000 
     30 CA        248.6000   47.1900  417.0100 C.3       5 GLY6        0.0000 
     31 CA        249.4200   48.1300  416.1800 C.3       5 GLY6        0.0000 
     32 CA        249.5200   47.4300  418.1800 C.3       5 GLY6        0.0000 
     33 CA        248.6500   48.5700  418.6200 C.3       5 GLY6        0.0000 
     34 DU        248.3600   43.7600  410.1800 H         6 CUB7        0.0000 
     35 DU        249.2700   44.0000  411.3500 H         6 CUB7        0.0000 
     36 DU        248.5000   44.4300  413.7900 H         6 CUB7        0.0000 
     37 DU        249.3200   45.3800  412.9600 H         6 CUB7        0.0000 
     38 DU        250.1400   46.3200  412.1200 H         6 CUB7        0.0000 
     39 DU        249.4200   44.6700  414.9500 H         6 CUB7        0.0000 
     40 DU        248.5500   45.8100  415.4000 H         6 CUB7        0.0000 
     41 DU        249.3700   46.7500  414.5700 H         6 CUB7        0.0000 
     42 DU        248.5100   47.9000  415.0100 H         6 CUB7        0.0000 
     43 DU        247.6400   49.0400  415.4600 H         6 CUB7        0.0000 
@<TRIPOS>BOND
@<TRIPOS>SUBSTRUCTURE
     1 SER1        1 GROUP   
     2 ALA2       12 GROUP   
     3 LYS4       15 GROUP   
     4 PHE5       16 GROUP   
     5 GLY6       20 GROUP   
     6 CUB7       34 GROUP   
@<TRIPOS>SET

