#    Name: 5och_13_ADP
#    Modification time : Fri May 22 19:20:17 2020

@<TRIPOS>MOLECULE
5och_13_ADP
   27    29     1     0     1
SMALL
NO_CHARGES


@<TRIPOS>ATOM
      1 PB        129.4840   38.8420  527.8230 P.3       1 ADP1001     0.0000 
      2 O1B       129.6420   40.3610  528.0100 O.co2     1 ADP1001     0.0000 
      3 O2B       130.7760   38.1800  528.3170 O.co2     1 ADP1001     0.0000 
      4 O3B       128.2600   38.2830  528.4720 O.co2     1 ADP1001     0.0000 
      5 PA        128.7690   39.3640  525.0440 P.3       1 ADP1001     0.0000 
      6 O1A       129.8700   40.2020  524.4030 O.co2     1 ADP1001     0.0000 
      7 O2A       127.6020   40.1420  525.4950 O.co2     1 ADP1001     0.0000 
      8 O3A       129.4350   38.5740  526.2530 O.3       1 ADP1001     0.0000 
      9 O5'       128.3750   38.2420  523.9760 O.3       1 ADP1001     0.0000 
     10 C5'       127.4660   37.1510  524.2250 C.3       1 ADP1001     0.0000 
     11 C4'       127.4560   36.2130  523.0410 C.3       1 ADP1001     0.0000 
     12 O4'       127.3900   36.9620  521.8070 O.3       1 ADP1001     0.0000 
     13 C3'       128.6430   35.2570  522.9120 C.3       1 ADP1001     0.0000 
     14 O3'       128.2130   33.9440  522.5680 O.3       1 ADP1001     0.0000 
     15 C2'       129.5060   35.9150  521.8300 C.3       1 ADP1001     0.0000 
     16 O2'       130.2830   34.9760  521.0970 O.3       1 ADP1001     0.0000 
     17 C1'       128.4500   36.5870  520.9480 C.3       1 ADP1001     0.0000 
     18 N9        128.9220   37.7890  520.2620 N.pl3     1 ADP1001     0.0000 
     19 C8        129.3040   38.9690  520.8450 C.2       1 ADP1001     0.0000 
     20 N7        129.7330   39.8730  519.9940 N.2       1 ADP1001     0.0000 
     21 C5        129.6250   39.2400  518.7640 C.ar      1 ADP1001     0.0000 
     22 C6        129.9620   39.6470  517.4580 C.ar      1 ADP1001     0.0000 
     23 N6        130.5260   40.8230  517.1730 N.pl3     1 ADP1001     0.0000 
     24 N1        129.7420   38.7700  516.4490 N.ar      1 ADP1001     0.0000 
     25 C2        129.2290   37.5680  516.7400 C.ar      1 ADP1001     0.0000 
     26 N3        128.8840   37.0720  517.9330 N.ar      1 ADP1001     0.0000 
     27 C4        129.1140   37.9590  518.9130 C.ar      1 ADP1001     0.0000 
@<TRIPOS>BOND
     1    1    2 ar   
     2    1    3 ar   
     3    1    4 ar   
     4    1    8 1    
     5    5    6 ar   
     6    5    7 ar   
     7    5    8 1    
     8    5    9 1    
     9    9   10 1    
    10   10   11 1    
    11   11   12 1    
    12   11   13 1    
    13   12   17 1    
    14   13   14 1    
    15   13   15 1    
    16   15   16 1    
    17   15   17 1    
    18   17   18 1    
    19   18   19 1    
    20   18   27 1    
    21   19   20 2    
    22   20   21 1    
    23   21   22 ar   
    24   21   27 ar   
    25   22   23 1    
    26   22   24 ar   
    27   24   25 ar   
    28   25   26 ar   
    29   26   27 ar   
@<TRIPOS>SUBSTRUCTURE
     1 ADP1001     1 GROUP   
@<TRIPOS>SET
ATOM$ORANGE STATIC     ATOMS   COLORGROUP SYSTEM 
20 10 10 11 11 13 13 15 15 17 17 19 19 21 21 22 22 25 \
25 27 27 

