#    Name: 5och_6_Y01
#    Modification time : Fri May 22 19:18:49 2020

@<TRIPOS>MOLECULE
5och_6_Y01
   21    24     1     0     0
SMALL
NO_CHARGES


@<TRIPOS>ATOM
      1 CBB       259.6680   47.4080  567.8380 C.3       1 Y011003     0.0000 
      2 CBE       259.1710   47.3870  569.2970 C.3       1 Y011003     0.0000 
      3 CAP       258.6420   48.7620  569.7560 C.3       1 Y011003     0.0000 
      4 CAQ       257.6630   48.4780  570.9140 C.3       1 Y011003     0.0000 
      5 CBG       257.7660   46.9580  571.1440 C.3       1 Y011003     0.0000 
      6 CBI       258.0630   46.3940  569.7310 C.3       1 Y011003     0.0000 
      7 CAE       256.8460   46.4510  568.7770 C.3       1 Y011003     0.0000 
      8 CAU       258.5040   44.9340  569.9500 C.3       1 Y011003     0.0000 
      9 CAS       257.4630   44.0970  570.7060 C.3       1 Y011003     0.0000 
     10 CBF       256.9860   44.7170  572.0370 C.3       1 Y011003     0.0000 
     11 CBD       256.6480   46.2200  571.9060 C.3       1 Y011003     0.0000 
     12 CAK       256.4420   46.8190  573.2960 C.3       1 Y011003     0.0000 
     13 CAI       255.5850   45.9520  574.1680 C.2       1 Y011003     0.0000 
     14 CAZ       255.2980   44.6730  573.9310 C.2       1 Y011003     0.0000 
     15 CAV       254.4050   43.9010  574.8830 C.3       1 Y011003     0.0000 
     16 CBH       255.8230   43.9100  572.7080 C.3       1 Y011003     0.0000 
     17 CAD       254.6430   43.6850  571.7320 C.3       1 Y011003     0.0000 
     18 CAT       256.3710   42.5440  573.1810 C.3       1 Y011003     0.0000 
     19 CAR       255.4080   41.7530  574.0770 Du        1 Y011003     0.0000 
     20 CBC       255.0000   42.5630  575.2890 Du        1 Y011003     0.0000 
     21 OAW       253.9470   41.8270  575.9880 Du        1 Y011003     0.0000 
@<TRIPOS>BOND
     1    1    2 1    
     2    2    3 1    
     3    2    6 1    
     4    3    4 1    
     5    4    5 1    
     6    5    6 1    
     7    5   11 1    
     8    6    7 1    
     9    6    8 1    
    10    8    9 1    
    11    9   10 1    
    12   10   11 1    
    13   10   16 1    
    14   11   12 1    
    15   12   13 1    
    16   13   14 2    
    17   14   15 1    
    18   14   16 1    
    19   15   20 du   
    20   16   17 1    
    21   16   18 1    
    22   18   19 du   
    23   19   20 du   
    24   20   21 du   
@<TRIPOS>SUBSTRUCTURE
     1 Y011003     1 GROUP   
@<TRIPOS>SET

