#    Name: 5och_11_ADP
#    Modification time : Fri May 22 19:19:52 2020

@<TRIPOS>MOLECULE
5och_11_ADP
   27    29     1     0     1
SMALL
NO_CHARGES


@<TRIPOS>ATOM
      1 PB        221.7900   63.5150  410.2890 P.3       1 ADP1001     0.0000 
      2 O1B       220.5990   64.0680  409.5830 O.co2     1 ADP1001     0.0000 
      3 O2B       223.1010   64.1080  409.7900 O.co2     1 ADP1001     0.0000 
      4 O3B       221.9180   61.9910  410.1900 O.co2     1 ADP1001     0.0000 
      5 PA        221.0010   63.1760  413.0760 P.3       1 ADP1001     0.0000 
      6 O1A       219.8160   62.4120  412.6450 O.co2     1 ADP1001     0.0000 
      7 O2A       222.0560   62.3370  413.7940 O.co2     1 ADP1001     0.0000 
      8 O3A       221.7230   63.8700  411.8400 O.3       1 ADP1001     0.0000 
      9 O5'       220.6220   64.3740  414.0690 O.3       1 ADP1001     0.0000 
     10 C5'       219.7580   65.4800  413.7380 C.3       1 ADP1001     0.0000 
     11 C4'       219.7600   66.4860  414.8650 C.3       1 ADP1001     0.0000 
     12 O4'       219.6540   65.8150  416.1410 O.3       1 ADP1001     0.0000 
     13 C3'       220.9720   67.4120  414.9550 C.3       1 ADP1001     0.0000 
     14 O3'       220.5610   68.7520  415.2020 O.3       1 ADP1001     0.0000 
     15 C2'       221.8000   66.7980  416.0940 C.3       1 ADP1001     0.0000 
     16 O2'       222.5890   67.7480  416.8010 O.3       1 ADP1001     0.0000 
     17 C1'       220.7150   66.2030  416.9950 C.3       1 ADP1001     0.0000 
     18 N9        221.1410   65.0270  417.7590 N.pl3     1 ADP1001     0.0000 
     19 C8        221.4540   63.7950  417.2540 C.2       1 ADP1001     0.0000 
     20 N7        221.8340   62.9230  418.1630 N.2       1 ADP1001     0.0000 
     21 C5        221.7650   63.6420  419.3500 C.ar      1 ADP1001     0.0000 
     22 C6        222.0650   63.2970  420.6850 C.ar      1 ADP1001     0.0000 
     23 N6        222.5500   62.1110  421.0600 N.pl3     1 ADP1001     0.0000 
     24 N1        221.8820   64.2460  421.6330 N.ar      1 ADP1001     0.0000 
     25 C2        221.4410   65.4540  421.2610 C.ar      1 ADP1001     0.0000 
     26 N3        221.1400   65.8950  420.0330 N.ar      1 ADP1001     0.0000 
     27 C4        221.3280   64.9380  419.1140 C.ar      1 ADP1001     0.0000 
@<TRIPOS>BOND
     1    1    2 ar   
     2    1    3 ar   
     3    1    4 ar   
     4    1    8 1    
     5    5    6 ar   
     6    5    7 ar   
     7    5    8 1    
     8    5    9 1    
     9    9   10 1    
    10   10   11 1    
    11   11   12 1    
    12   11   13 1    
    13   12   17 1    
    14   13   14 1    
    15   13   15 1    
    16   15   16 1    
    17   15   17 1    
    18   17   18 1    
    19   18   19 1    
    20   18   27 1    
    21   19   20 2    
    22   20   21 1    
    23   21   22 ar   
    24   21   27 ar   
    25   22   23 1    
    26   22   24 ar   
    27   24   25 ar   
    28   25   26 ar   
    29   26   27 ar   
@<TRIPOS>SUBSTRUCTURE
     1 ADP1001     1 GROUP   
@<TRIPOS>SET
ATOM$ORANGE STATIC     ATOMS   COLORGROUP SYSTEM 
20 10 10 11 11 13 13 15 15 17 17 19 19 21 21 22 22 25 \
25 27 27 

