#    Name: 5och_14_ADP
#    Modification time : Fri May 22 19:20:29 2020

@<TRIPOS>MOLECULE
5och_14_ADP
   27    29     1     0     1
SMALL
NO_CHARGES


@<TRIPOS>ATOM
      1 PB        267.5420   37.1340  516.7650 P.3       1 ADP1001     0.0000 
      2 O1B       268.7890   36.7530  516.0390 O.co2     1 ADP1001     0.0000 
      3 O2B       266.3060   36.3950  516.2460 O.co2     1 ADP1001     0.0000 
      4 O3B       267.2570   38.6430  516.7280 O.co2     1 ADP1001     0.0000 
      5 PA        268.2890   37.4900  519.5570 P.3       1 ADP1001     0.0000 
      6 O1A       269.3710   38.4060  519.1450 O.co2     1 ADP1001     0.0000 
      7 O2A       267.1390   38.1640  520.2930 O.co2     1 ADP1001     0.0000 
      8 O3A       267.6610   36.7400  518.3030 O.3       1 ADP1001     0.0000 
      9 O5'       268.8110   36.3070  520.5010 O.3       1 ADP1001     0.0000 
     10 C5'       269.8260   35.3470  520.1370 C.3       1 ADP1001     0.0000 
     11 C4'       269.9780   34.3280  521.2400 C.3       1 ADP1001     0.0000 
     12 O4'       270.0020   34.9760  522.5310 O.3       1 ADP1001     0.0000 
     13 C3'       268.9100   33.2380  521.3130 C.3       1 ADP1001     0.0000 
     14 O3'       269.5140   31.9660  521.5220 O.3       1 ADP1001     0.0000 
     15 C2'       268.0190   33.6930  522.4760 C.3       1 ADP1001     0.0000 
     16 O2'       267.4250   32.6040  523.1730 O.3       1 ADP1001     0.0000 
     17 C1'       269.0160   34.4210  523.3800 C.3       1 ADP1001     0.0000 
     18 N9        268.4300   35.5020  524.1710 N.pl3     1 ADP1001     0.0000 
     19 C8        267.9230   36.6860  523.6940 C.2       1 ADP1001     0.0000 
     20 N7        267.4320   37.4710  524.6270 N.2       1 ADP1001     0.0000 
     21 C5        267.6280   36.7520  525.7950 C.ar      1 ADP1001     0.0000 
     22 C6        267.3050   37.0250  527.1420 C.ar      1 ADP1001     0.0000 
     23 N6        266.6840   38.1360  527.5440 N.pl3     1 ADP1001     0.0000 
     24 N1        267.6310   36.0930  528.0670 N.ar      1 ADP1001     0.0000 
     25 C2        268.2380   34.9690  527.6660 C.ar      1 ADP1001     0.0000 
     26 N3        268.5850   34.6010  526.4280 N.ar      1 ADP1001     0.0000 
     27 C4        268.2460   35.5410  525.5300 C.ar      1 ADP1001     0.0000 
@<TRIPOS>BOND
     1    1    2 ar   
     2    1    3 ar   
     3    1    4 ar   
     4    1    8 1    
     5    5    6 ar   
     6    5    7 ar   
     7    5    8 1    
     8    5    9 1    
     9    9   10 1    
    10   10   11 1    
    11   11   12 1    
    12   11   13 1    
    13   12   17 1    
    14   13   14 1    
    15   13   15 1    
    16   15   16 1    
    17   15   17 1    
    18   17   18 1    
    19   18   19 1    
    20   18   27 1    
    21   19   20 2    
    22   20   21 1    
    23   21   22 ar   
    24   21   27 ar   
    25   22   23 1    
    26   22   24 ar   
    27   24   25 ar   
    28   25   26 ar   
    29   26   27 ar   
@<TRIPOS>SUBSTRUCTURE
     1 ADP1001     1 GROUP   
@<TRIPOS>SET
ATOM$ORANGE STATIC     ATOMS   COLORGROUP SYSTEM 
20 10 10 11 11 13 13 15 15 17 17 19 19 21 21 22 22 25 \
25 27 27 

