#    Name: 5och_10_ADP_CAVITY_N1_ALL
#    Modification time : Fri May 22 19:19:40 2020

@<TRIPOS>MOLECULE
5och_10_ADP_CAVITY_N1_ALL
   85     0     6     0     0
SMALL
NO_CHARGES


@<TRIPOS>ATOM
      1 OG        247.3900   45.6100  408.6300 O.3       1 SER1        0.0000 
      2 OG        247.4900   44.9000  410.6300 O.3       1 SER1        0.0000 
      3 OG        248.3100   45.8400  409.7900 O.3       1 SER1        0.0000 
      4 OG        248.5000   40.9700  412.5700 O.3       1 SER1        0.0000 
      5 OG        247.5900   44.1900  412.6200 O.3       1 SER1        0.0000 
      6 OG        248.4100   45.1400  411.7900 O.3       1 SER1        0.0000 
      7 OG        249.2200   46.0800  410.9600 O.3       1 SER1        0.0000 
      8 OG        248.3600   47.2200  411.4000 O.3       1 SER1        0.0000 
      9 OG        247.6400   45.5700  414.2300 O.3       1 SER1        0.0000 
     10 OG        248.4600   46.5200  413.4000 O.3       1 SER1        0.0000 
     11 OG        249.2700   47.4600  412.5700 O.3       1 SER1        0.0000 
     12 OG        247.5900   47.6600  413.8500 O.3       1 SER1        0.0000 
     13 OG        248.4100   48.6000  413.0100 O.3       1 SER1        0.0000 
     14 N         247.7300   41.4000  415.0100 N.am      2 ALA2        0.0000 
     15 N         247.6900   43.4900  414.6200 N.am      2 ALA2        0.0000 
     16 N         246.8200   44.6300  415.0700 N.am      2 ALA2        0.0000 
     17 N         247.7800   42.7800  416.6200 N.am      2 ALA2        0.0000 
     18 N         246.9200   43.9200  417.0700 N.am      2 ALA2        0.0000 
     19 N         247.7400   44.8700  416.2300 N.am      2 ALA2        0.0000 
     20 N         246.8700   46.0100  416.6800 N.am      2 ALA2        0.0000 
     21 N         249.3200   48.8400  414.1800 N.am      2 ALA2        0.0000 
     22 N         246.0100   47.1500  417.1200 N.am      2 ALA2        0.0000 
     23 N         248.4600   49.9800  414.6300 N.am      2 ALA2        0.0000 
     24 O         251.2000   43.7600  415.6700 O.2       2 ALA2        0.0000 
     25 N         247.8300   44.1600  418.2300 N.am      2 ALA2        0.0000 
     26 N         247.7900   46.2500  417.8400 N.am      2 ALA2        0.0000 
     27 N         246.9200   47.3900  418.2900 N.am      2 ALA2        0.0000 
     28 N         248.5500   49.2800  416.6200 N.am      2 ALA2        0.0000 
     29 N         248.7500   44.4000  419.4000 N.am      2 ALA2        0.0000 
     30 N         247.0700   44.6000  420.6700 N.am      2 ALA2        0.0000 
     31 N         247.8800   45.5400  419.8400 N.am      2 ALA2        0.0000 
     32 N         247.8400   47.6300  419.4500 N.am      2 ALA2        0.0000 
     33 N         246.9700   48.7700  419.9000 N.am      2 ALA2        0.0000 
     34 N         248.8000   45.7800  421.0100 N.am      2 ALA2        0.0000 
     35 NZ        247.7400   48.3300  417.4600 N.4       3 LYS4        0.0000 
     36 CZ        248.3100   42.3800  408.5700 C.ar      4 PHE5        0.0000 
     37 CZ        249.2200   42.6200  409.7300 C.ar      4 PHE5        0.0000 
     38 CZ        249.1700   44.7000  409.3500 C.ar      4 PHE5        0.0000 
     39 CZ        250.1300   42.8500  410.9000 C.ar      4 PHE5        0.0000 
     40 CZ        250.0900   44.9400  410.5100 C.ar      4 PHE5        0.0000 
     41 CZ        251.8200   46.1200  410.8400 C.ar      4 PHE5        0.0000 
     42 CZ        250.1900   47.7000  413.7300 C.ar      4 PHE5        0.0000 
     43 CA        247.5400   42.8200  411.0100 C.3       5 GLY6        0.0000 
     44 CA        251.0000   41.7100  410.4500 C.3       5 GLY6        0.0000 
     45 CA        247.6400   42.1100  413.0100 C.3       5 GLY6        0.0000 
     46 CA        251.0500   43.0900  412.0600 C.3       5 GLY6        0.0000 
     47 CA        251.8700   44.0300  411.2300 C.3       5 GLY6        0.0000 
     48 CA        249.3700   43.2900  413.3400 C.3       5 GLY6        0.0000 
     49 CA        250.1800   44.2300  412.5100 C.3       5 GLY6        0.0000 
     50 CA        251.0000   45.1800  411.6800 C.3       5 GLY6        0.0000 
     51 CA        245.9600   45.7700  415.5100 C.3       5 GLY6        0.0000 
     52 CA        250.2800   43.5300  414.5100 C.3       5 GLY6        0.0000 
     53 CA        251.9200   45.4100  412.8400 C.3       5 GLY6        0.0000 
     54 CA        250.2300   45.6100  414.1200 C.3       5 GLY6        0.0000 
     55 CA        251.0500   46.5600  413.2900 C.3       5 GLY6        0.0000 
     56 CA        247.6900   46.9500  415.8500 C.3       5 GLY6        0.0000 
     57 CA        249.5200   43.9600  416.9500 C.3       5 GLY6        0.0000 
     58 CA        250.3300   44.9100  416.1200 C.3       5 GLY6        0.0000 
     59 CA        251.1500   45.8500  415.2900 C.3       5 GLY6        0.0000 
     60 CA        248.6500   45.1100  417.4000 C.3       5 GLY6        0.0000 
     61 CA        249.4700   46.0500  416.5700 C.3       5 GLY6        0.0000 
     62 CA        250.2800   46.9900  415.7300 C.3       5 GLY6        0.0000 
     63 CA        248.6000   47.1900  417.0100 C.3       5 GLY6        0.0000 
     64 CA        249.4200   48.1300  416.1800 C.3       5 GLY6        0.0000 
     65 CA        250.4300   44.2000  418.1200 C.3       5 GLY6        0.0000 
     66 CA        249.5600   45.3400  418.5600 C.3       5 GLY6        0.0000 
     67 CA        248.7000   46.4800  419.0100 C.3       5 GLY6        0.0000 
     68 CA        249.5200   47.4300  418.1800 C.3       5 GLY6        0.0000 
     69 CA        248.6500   48.5700  418.6200 C.3       5 GLY6        0.0000 
     70 CA        250.4800   45.5800  419.7300 C.3       5 GLY6        0.0000 
     71 CA        249.6100   46.7200  420.1700 C.3       5 GLY6        0.0000 
     72 DU        248.3600   43.7600  410.1800 H         6 CUB7        0.0000 
     73 DU        249.3200   41.9100  411.7300 H         6 CUB7        0.0000 
     74 DU        248.4500   43.0500  412.1800 H         6 CUB7        0.0000 
     75 DU        249.2700   44.0000  411.3500 H         6 CUB7        0.0000 
     76 DU        248.5500   42.3500  414.1800 H         6 CUB7        0.0000 
     77 DU        248.5000   44.4300  413.7900 H         6 CUB7        0.0000 
     78 DU        249.3200   45.3800  412.9600 H         6 CUB7        0.0000 
     79 DU        250.1400   46.3200  412.1200 H         6 CUB7        0.0000 
     80 DU        248.6000   43.7300  415.7900 H         6 CUB7        0.0000 
     81 DU        249.4200   44.6700  414.9500 H         6 CUB7        0.0000 
     82 DU        248.5500   45.8100  415.4000 H         6 CUB7        0.0000 
     83 DU        249.3700   46.7500  414.5700 H         6 CUB7        0.0000 
     84 DU        248.5100   47.9000  415.0100 H         6 CUB7        0.0000 
     85 DU        247.6400   49.0400  415.4600 H         6 CUB7        0.0000 
@<TRIPOS>BOND
@<TRIPOS>SUBSTRUCTURE
     1 SER1        1 GROUP   
     2 ALA2       14 GROUP   
     3 LYS4       35 GROUP   
     4 PHE5       36 GROUP   
     5 GLY6       43 GROUP   
     6 CUB7       72 GROUP   
@<TRIPOS>SET

