#    Name: 5och_15_ADP_CAVITY_N1_4
#    Modification time : Fri May 22 19:20:42 2020

@<TRIPOS>MOLECULE
5och_15_ADP_CAVITY_N1_4
   96     0     7     0     0
SMALL
NO_CHARGES


@<TRIPOS>ATOM
      1 OG        238.9800   45.5000  513.7300 O.3       1 SER1        0.0000 
      2 OG        237.3000   45.7000  515.0100 O.3       1 SER1        0.0000 
      3 OG        239.0700   44.7900  515.7300 O.3       1 SER1        0.0000 
      4 OG        239.0800   48.2600  516.9500 O.3       1 SER1        0.0000 
      5 OG        239.8900   49.2000  516.1200 O.3       1 SER1        0.0000 
      6 OG        239.1700   47.5500  518.9500 O.3       1 SER1        0.0000 
      7 OG        239.9900   48.5000  518.1200 O.3       1 SER1        0.0000 
      8 OG        238.3100   48.6900  519.4000 O.3       1 SER1        0.0000 
      9 OG        239.1300   49.6400  518.5600 O.3       1 SER1        0.0000 
     10 OG        239.2200   48.9300  520.5600 O.3       1 SER1        0.0000 
     11 N         236.2400   48.2500  511.4600 N.am      2 ALA2        0.0000 
     12 N         235.3700   49.3900  511.9000 N.am      2 ALA2        0.0000 
     13 N         237.2000   46.4000  513.0100 N.am      2 ALA2        0.0000 
     14 N         237.1500   48.4900  512.6200 N.am      2 ALA2        0.0000 
     15 N         235.4200   50.7700  513.5100 N.am      2 ALA2        0.0000 
     16 O         239.8400   44.3600  513.2800 O.2       2 ALA2        0.0000 
     17 N         238.1100   46.6400  514.1800 N.am      2 ALA2        0.0000 
     18 N         238.9300   47.5900  513.3400 N.am      2 ALA2        0.0000 
     19 N         238.0600   48.7300  513.7900 N.am      2 ALA2        0.0000 
     20 N         238.8800   49.6700  512.9600 N.am      2 ALA2        0.0000 
     21 N         239.8400   47.8200  514.5100 N.am      2 ALA2        0.0000 
     22 N         236.7700   46.1000  523.0600 N.am      2 ALA2        0.0000 
     23 N         237.5900   47.0500  522.2300 N.am      2 ALA2        0.0000 
     24 N         237.6900   46.3400  524.2200 N.am      2 ALA2        0.0000 
     25 N         238.5000   47.2800  523.3900 N.am      2 ALA2        0.0000 
     26 N         237.6400   48.4200  523.8400 N.am      2 ALA2        0.0000 
     27 N         238.5500   48.6600  525.0000 N.am      2 ALA2        0.0000 
     28 N         239.3700   49.6100  524.1700 N.am      2 ALA2        0.0000 
     29 OD1       238.1100   50.1100  515.4000 O.co2     3 ASP3        0.0000 
     30 OD1       236.4300   50.3100  516.6800 O.co2     3 ASP3        0.0000 
     31 OD1       237.2500   51.2500  515.8400 O.co2     3 ASP3        0.0000 
     32 OD1       238.2100   49.4000  517.4000 O.co2     3 ASP3        0.0000 
     33 OD1       239.0300   50.3400  516.5600 O.co2     3 ASP3        0.0000 
     34 OD1       239.8400   51.2900  515.7300 O.co2     3 ASP3        0.0000 
     35 OD1       236.5300   49.6000  518.6800 O.co2     3 ASP3        0.0000 
     36 OD1       237.3500   50.5400  517.8400 O.co2     3 ASP3        0.0000 
     37 OD1       236.6300   48.8900  520.6700 O.co2     3 ASP3        0.0000 
     38 OD1       237.4400   49.8400  519.8400 O.co2     3 ASP3        0.0000 
     39 OD1       237.5400   49.1300  521.8400 O.co2     3 ASP3        0.0000 
     40 OD1       238.3600   50.0700  521.0100 O.co2     3 ASP3        0.0000 
     41 OD1       239.2700   50.3100  522.1700 O.co2     3 ASP3        0.0000 
     42 OD1       238.4100   51.4500  522.6200 O.co2     3 ASP3        0.0000 
     43 NZ        239.4200   44.0600  523.3300 N.4       4 LYS4        0.0000 
     44 NZ        238.5500   45.2000  523.7800 N.4       4 LYS4        0.0000 
     45 NZ        239.3700   46.1400  522.9500 N.4       4 LYS4        0.0000 
     46 NZ        240.2800   46.3800  524.1100 N.4       4 LYS4        0.0000 
     47 NZ        239.4200   47.5200  524.5600 N.4       4 LYS4        0.0000 
     48 CZ        238.2100   45.9400  516.1700 C.ar      5 PHE5        0.0000 
     49 CZ        236.4800   48.2200  517.0600 C.ar      5 PHE5        0.0000 
     50 CZ        234.8000   48.4200  518.3400 C.ar      5 PHE5        0.0000 
     51 CZ        235.6200   49.3600  517.5100 C.ar      5 PHE5        0.0000 
     52 CZ        239.1200   46.1700  517.3400 C.ar      5 PHE5        0.0000 
     53 CZ        238.2600   47.3200  517.7800 C.ar      5 PHE5        0.0000 
     54 CZ        237.4000   48.4600  518.2300 C.ar      5 PHE5        0.0000 
     55 CZ        238.4100   44.5200  520.1700 C.ar      5 PHE5        0.0000 
     56 CZ        237.5400   45.6700  520.6200 C.ar      5 PHE5        0.0000 
     57 CZ        238.3600   46.6100  519.7800 C.ar      5 PHE5        0.0000 
     58 CZ        236.6800   46.8100  521.0600 C.ar      5 PHE5        0.0000 
     59 CZ        237.4900   47.7500  520.2300 C.ar      5 PHE5        0.0000 
     60 CZ        238.5000   43.8200  522.1700 C.ar      5 PHE5        0.0000 
     61 CZ        237.6400   44.9600  522.6100 C.ar      5 PHE5        0.0000 
     62 CZ        238.4500   45.9000  521.7800 C.ar      5 PHE5        0.0000 
     63 CA        235.4200   47.3100  512.2900 C.3       6 GLY6        0.0000 
     64 CA        236.3300   47.5500  513.4600 C.3       6 GLY6        0.0000 
     65 CA        235.4700   48.6900  513.9000 C.3       6 GLY6        0.0000 
     66 CA        236.2900   49.6300  513.0700 C.3       6 GLY6        0.0000 
     67 CA        239.7900   46.4400  512.9000 C.3       6 GLY6        0.0000 
     68 CA        236.4300   46.8400  515.4500 C.3       6 GLY6        0.0000 
     69 CA        237.2500   47.7800  514.6200 C.3       6 GLY6        0.0000 
     70 CA        235.5700   47.9800  515.9000 C.3       6 GLY6        0.0000 
     71 CA        236.3800   48.9300  515.0700 C.3       6 GLY6        0.0000 
     72 CA        235.5200   50.0700  515.5100 C.3       6 GLY6        0.0000 
     73 CA        241.5700   45.5400  513.6200 C.3       6 GLY6        0.0000 
     74 CA        240.7100   46.6800  514.0600 C.3       6 GLY6        0.0000 
     75 CA        235.7100   48.6600  519.5100 C.3       6 GLY6        0.0000 
     76 CA        235.8100   47.9500  521.5100 C.3       6 GLY6        0.0000 
     77 CA        236.7300   48.1900  522.6700 C.3       6 GLY6        0.0000 
     78 CA        236.6800   50.2700  522.2800 C.3       6 GLY6        0.0000 
     79 CA        240.1400   49.1700  521.7300 C.3       6 GLY6        0.0000 
     80 CA        238.4600   49.3700  523.0000 C.3       6 GLY6        0.0000 
     81 CA        237.5900   50.5100  523.4500 C.3       6 GLY6        0.0000 
     82 DU        237.2000   49.8700  514.2300 H         7 CUB7        0.0000 
     83 DU        238.0200   50.8100  513.4000 H         7 CUB7        0.0000 
     84 DU        236.3400   51.0100  514.6800 H         7 CUB7        0.0000 
     85 DU        239.8900   45.7400  514.8900 H         7 CUB7        0.0000 
     86 DU        239.0300   46.8800  515.3400 H         7 CUB7        0.0000 
     87 DU        238.1600   48.0200  515.7900 H         7 CUB7        0.0000 
     88 DU        238.9800   48.9600  514.9500 H         7 CUB7        0.0000 
     89 DU        239.8000   49.9100  514.1200 H         7 CUB7        0.0000 
     90 DU        237.3000   49.1600  516.2300 H         7 CUB7        0.0000 
     91 DU        239.9400   47.1200  516.5100 H         7 CUB7        0.0000 
     92 DU        240.7600   48.0600  515.6700 H         7 CUB7        0.0000 
     93 DU        239.2700   46.8500  520.9500 H         7 CUB7        0.0000 
     94 DU        238.4100   47.9900  521.3900 H         7 CUB7        0.0000 
     95 DU        239.3200   48.2300  522.5600 H         7 CUB7        0.0000 
     96 DU        240.2400   48.4600  523.7200 H         7 CUB7        0.0000 
@<TRIPOS>BOND
@<TRIPOS>SUBSTRUCTURE
     1 SER1        1 GROUP   
     2 ALA2       11 GROUP   
     3 ASP3       29 GROUP   
     4 LYS4       43 GROUP   
     5 PHE5       48 GROUP   
     6 GLY6       63 GROUP   
     7 CUB7       82 GROUP   
@<TRIPOS>SET

