#    Name: 5och_13_ADP_CAVITY_N1_8
#    Modification time : Fri May 22 19:20:18 2020

@<TRIPOS>MOLECULE
5och_13_ADP_CAVITY_N1_8
   56     0     7     0     0
SMALL
NO_CHARGES


@<TRIPOS>ATOM
      1 OG        129.1600   42.9400  519.3200 O.3       1 SER1        0.0000 
      2 OG        129.9700   43.8800  518.4900 O.3       1 SER1        0.0000 
      3 OG        130.7900   44.8200  517.6500 O.3       1 SER1        0.0000 
      4 OG        128.2900   44.0800  519.7600 O.3       1 SER1        0.0000 
      5 OG        129.1100   45.0200  518.9300 O.3       1 SER1        0.0000 
      6 OG        130.1200   41.0900  520.8700 O.3       1 SER1        0.0000 
      7 OG        129.2500   42.2300  521.3200 O.3       1 SER1        0.0000 
      8 OG        130.0700   43.1700  520.4800 O.3       1 SER1        0.0000 
      9 OG        128.3900   43.3700  521.7600 O.3       1 SER1        0.0000 
     10 OG        129.2100   44.3200  520.9300 O.3       1 SER1        0.0000 
     11 N         133.7300   44.1200  525.1400 N.am      2 ALA2        0.0000 
     12 N         133.7800   45.5000  526.7600 N.am      2 ALA2        0.0000 
     13 OD1       131.7000   45.0600  518.8200 O.co2     3 ASP3        0.0000 
     14 NZ        132.8600   45.2700  525.5900 N.4       4 LYS4        0.0000 
     15 CZ        128.2400   46.1600  519.3800 C.ar      5 PHE5        0.0000 
     16 CZ        129.9800   47.3400  519.7100 C.ar      5 PHE5        0.0000 
     17 CZ        130.1200   48.0200  523.3200 C.ar      5 PHE5        0.0000 
     18 CA        129.9300   45.9700  518.1000 C.3       6 GLY6        0.0000 
     19 CA        127.4300   45.2200  520.2100 C.3       6 GLY6        0.0000 
     20 CA        129.0600   47.1100  518.5400 C.3       6 GLY6        0.0000 
     21 CA        130.8400   46.2000  519.2600 C.3       6 GLY6        0.0000 
     22 CA        128.3400   45.4600  521.3700 C.3       6 GLY6        0.0000 
     23 CA        129.1600   46.4000  520.5400 C.3       6 GLY6        0.0000 
     24 CA        130.7900   48.2900  518.8800 C.3       6 GLY6        0.0000 
     25 CA        128.2900   47.5400  520.9900 C.3       6 GLY6        0.0000 
     26 CA        130.1700   42.4700  522.4800 C.3       6 GLY6        0.0000 
     27 CA        130.9900   43.4100  521.6500 C.3       6 GLY6        0.0000 
     28 CA        133.4300   46.2400  519.1500 C.3       6 GLY6        0.0000 
     29 CA        130.1200   44.5500  522.0900 C.3       6 GLY6        0.0000 
     30 CA        131.7500   46.4400  520.4300 C.3       6 GLY6        0.0000 
     31 CA        132.5700   47.3800  519.6000 C.3       6 GLY6        0.0000 
     32 CA        129.2600   45.7000  522.5400 C.3       6 GLY6        0.0000 
     33 CA        128.3900   46.8400  522.9900 C.3       6 GLY6        0.0000 
     34 CA        129.2100   47.7800  522.1500 C.3       6 GLY6        0.0000 
     35 CA        134.3500   46.4800  520.3200 C.3       6 GLY6        0.0000 
     36 CA        131.8500   45.7300  522.4300 C.3       6 GLY6        0.0000 
     37 CA        130.9900   46.8800  522.8700 C.3       6 GLY6        0.0000 
     38 CA        129.3100   47.0700  524.1500 C.3       6 GLY6        0.0000 
     39 CA        132.7700   45.9700  523.5900 C.3       6 GLY6        0.0000 
     40 CA        131.9000   47.1100  524.0400 C.3       6 GLY6        0.0000 
     41 CA        132.8200   47.3500  525.2000 C.3       6 GLY6        0.0000 
     42 CA        135.4600   45.3000  525.4800 C.3       6 GLY6        0.0000 
     43 CA        134.5900   46.4500  525.9200 C.3       6 GLY6        0.0000 
     44 DU        131.7500   42.9800  519.2000 H         7 CUB7        0.0000 
     45 DU        130.8900   44.1200  519.6500 H         7 CUB7        0.0000 
     46 DU        130.0200   45.2600  520.1000 H         7 CUB7        0.0000 
     47 DU        131.8000   44.3500  520.8200 H         7 CUB7        0.0000 
     48 DU        132.6200   45.3000  519.9800 H         7 CUB7        0.0000 
     49 DU        130.9400   45.5000  521.2600 H         7 CUB7        0.0000 
     50 DU        130.0700   46.6400  521.7100 H         7 CUB7        0.0000 
     51 DU        130.8900   47.5800  520.8700 H         7 CUB7        0.0000 
     52 DU        132.7200   44.5900  521.9800 H         7 CUB7        0.0000 
     53 DU        133.5300   45.5400  521.1500 H         7 CUB7        0.0000 
     54 DU        132.6700   46.6800  521.5900 H         7 CUB7        0.0000 
     55 DU        133.5800   46.9100  522.7600 H         7 CUB7        0.0000 
     56 DU        133.6800   46.2100  524.7600 H         7 CUB7        0.0000 
@<TRIPOS>BOND
@<TRIPOS>SUBSTRUCTURE
     1 SER1        1 GROUP   
     2 ALA2       11 GROUP   
     3 ASP3       13 GROUP   
     4 LYS4       14 GROUP   
     5 PHE5       15 GROUP   
     6 GLY6       18 GROUP   
     7 CUB7       44 GROUP   
@<TRIPOS>SET

