#    Name: 5och_13_ADP_CAVITY_N1_6
#    Modification time : Fri May 22 19:20:18 2020

@<TRIPOS>MOLECULE
5och_13_ADP_CAVITY_N1_6
   27     0     5     0     0
SMALL
NO_CHARGES


@<TRIPOS>ATOM
      1 OG        129.1600   42.9400  519.3200 O.3       1 SER1        0.0000 
      2 OG        129.9700   43.8800  518.4900 O.3       1 SER1        0.0000 
      3 OG        130.7900   44.8200  517.6500 O.3       1 SER1        0.0000 
      4 OG        128.2900   44.0800  519.7600 O.3       1 SER1        0.0000 
      5 OG        129.1100   45.0200  518.9300 O.3       1 SER1        0.0000 
      6 OG        130.1200   41.0900  520.8700 O.3       1 SER1        0.0000 
      7 OG        129.2500   42.2300  521.3200 O.3       1 SER1        0.0000 
      8 OG        130.0700   43.1700  520.4800 O.3       1 SER1        0.0000 
      9 OG        128.3900   43.3700  521.7600 O.3       1 SER1        0.0000 
     10 OG        129.2100   44.3200  520.9300 O.3       1 SER1        0.0000 
     11 N         133.7300   44.1200  525.1400 N.am      2 ALA2        0.0000 
     12 OD1       131.7000   45.0600  518.8200 O.co2     3 ASP3        0.0000 
     13 CA        129.9300   45.9700  518.1000 C.3       4 GLY6        0.0000 
     14 CA        127.4300   45.2200  520.2100 C.3       4 GLY6        0.0000 
     15 CA        130.8400   46.2000  519.2600 C.3       4 GLY6        0.0000 
     16 CA        128.3400   45.4600  521.3700 C.3       4 GLY6        0.0000 
     17 CA        130.1700   42.4700  522.4800 C.3       4 GLY6        0.0000 
     18 CA        130.9900   43.4100  521.6500 C.3       4 GLY6        0.0000 
     19 CA        130.1200   44.5500  522.0900 C.3       4 GLY6        0.0000 
     20 CA        129.2600   45.7000  522.5400 C.3       4 GLY6        0.0000 
     21 DU        131.7500   42.9800  519.2000 H         5 CUB7        0.0000 
     22 DU        130.8900   44.1200  519.6500 H         5 CUB7        0.0000 
     23 DU        130.0200   45.2600  520.1000 H         5 CUB7        0.0000 
     24 DU        131.8000   44.3500  520.8200 H         5 CUB7        0.0000 
     25 DU        132.6200   45.3000  519.9800 H         5 CUB7        0.0000 
     26 DU        130.9400   45.5000  521.2600 H         5 CUB7        0.0000 
     27 DU        132.7200   44.5900  521.9800 H         5 CUB7        0.0000 
@<TRIPOS>BOND
@<TRIPOS>SUBSTRUCTURE
     1 SER1        1 GROUP   
     2 ALA2       11 GROUP   
     3 ASP3       12 GROUP   
     4 GLY6       13 GROUP   
     5 CUB7       21 GROUP   
@<TRIPOS>SET

