#    Name: 5och_1_Y01
#    Modification time : Fri May 22 19:17:41 2020

@<TRIPOS>MOLECULE
5och_1_Y01
   30    33     1     0     0
SMALL
NO_CHARGES


@<TRIPOS>ATOM
      1 CAO       212.4310    7.2350  483.7860 C.3       1 Y011003     0.0000 
      2 CBB       211.6130    5.9360  483.9360 C.3       1 Y011003     0.0000 
      3 CAC       212.0540    4.9230  482.8820 C.3       1 Y011003     0.0000 
      4 CBE       211.6490    5.3840  485.3810 C.3       1 Y011003     0.0000 
      5 CAP       211.3560    6.4770  486.4360 C.3       1 Y011003     0.0000 
      6 CAQ       210.7420    5.7640  487.6530 C.3       1 Y011003     0.0000 
      7 CBG       210.8990    4.2690  487.3330 C.3       1 Y011003     0.0000 
      8 CBI       210.7270    4.2020  485.7950 C.3       1 Y011003     0.0000 
      9 CAE       209.2680    4.4370  485.3420 C.3       1 Y011003     0.0000 
     10 CAU       211.1900    2.7900  485.3860 C.3       1 Y011003     0.0000 
     11 CAS       210.4190    1.6730  486.1010 C.3       1 Y011003     0.0000 
     12 CBF       210.4100    1.7970  487.6380 C.3       1 Y011003     0.0000 
     13 CBD       210.0780    3.2280  488.1220 C.3       1 Y011003     0.0000 
     14 CAK       210.3560    3.3320  489.6220 C.3       1 Y011003     0.0000 
     15 CAI       209.8190    2.1600  490.3860 C.2       1 Y011003     0.0000 
     16 CAZ       209.4400    1.0040  489.8440 C.2       1 Y011003     0.0000 
     17 CAV       208.8920   -0.1050  490.7200 C.3       1 Y011003     0.0000 
     18 CBH       209.5180    0.7180  488.3370 C.3       1 Y011003     0.0000 
     19 CAD       208.0780    0.7150  487.7710 C.3       1 Y011003     0.0000 
     20 CAT       210.1640   -0.6690  488.1290 C.3       1 Y011003     0.0000 
     21 CAR       209.5350   -1.7840  488.9720 C.3       1 Y011003     0.0000 
     22 CBC       209.5590   -1.4450  490.4500 C.3       1 Y011003     0.0000 
     23 OAW       208.7300   -2.4400  491.1340 O.3       1 Y011003     0.0000 
     24 CAY       208.9630   -2.7490  492.4240 C.2       1 Y011003     0.0000 
     25 OAG       210.0050   -2.5440  492.9890 O.2       1 Y011003     0.0000 
     26 CAM       207.7300   -3.3230  493.0590 C.3       1 Y011003     0.0000 
     27 CAL       207.9150   -4.6950  493.6780 C.3       1 Y011003     0.0000 
     28 CAX       206.6390   -5.2920  494.1960 C.2       1 Y011003     0.0000 
     29 OAH       206.6190   -5.4410  495.4980 O.co2     1 Y011003     0.0000 
     30 OAF       205.7190   -5.6190  493.4730 O.co2     1 Y011003     0.0000 
@<TRIPOS>BOND
     1    1    2 1    
     2    2    3 1    
     3    2    4 1    
     4    4    5 1    
     5    4    8 1    
     6    5    6 1    
     7    6    7 1    
     8    7    8 1    
     9    7   13 1    
    10    8    9 1    
    11    8   10 1    
    12   10   11 1    
    13   11   12 1    
    14   12   13 1    
    15   12   18 1    
    16   13   14 1    
    17   14   15 1    
    18   15   16 2    
    19   16   17 1    
    20   16   18 1    
    21   17   22 1    
    22   18   19 1    
    23   18   20 1    
    24   20   21 1    
    25   21   22 1    
    26   22   23 1    
    27   23   24 1    
    28   24   25 2    
    29   24   26 1    
    30   26   27 1    
    31   27   28 1    
    32   28   29 ar   
    33   28   30 ar   
@<TRIPOS>SUBSTRUCTURE
     1 Y011003     1 GROUP   
@<TRIPOS>SET

