#    Name: 5och_7_Y01
#    Modification time : Fri May 22 19:19:01 2020

@<TRIPOS>MOLECULE
5och_7_Y01
   28    31     1     0     0
SMALL
NO_CHARGES


@<TRIPOS>ATOM
      1 CBB       231.9250   46.5500  563.1810 C.3       1 Y011003     0.0000 
      2 CBE       231.9240   47.0190  564.6500 C.3       1 Y011003     0.0000 
      3 CAP       232.2050   45.8630  565.6350 C.3       1 Y011003     0.0000 
      4 CAQ       232.8180   46.5090  566.8950 C.3       1 Y011003     0.0000 
      5 CBG       232.6920   48.0220  566.6420 C.3       1 Y011003     0.0000 
      6 CBI       232.8790   48.1520  565.1110 C.3       1 Y011003     0.0000 
      7 CAE       234.3350   47.9010  564.6560 C.3       1 Y011003     0.0000 
      8 CAU       232.4490   49.5870  564.7520 C.3       1 Y011003     0.0000 
      9 CAS       233.2240   50.6580  565.5280 C.3       1 Y011003     0.0000 
     10 CBF       233.2030   50.4660  567.0570 C.3       1 Y011003     0.0000 
     11 CBD       233.5210   49.0120  567.4810 C.3       1 Y011003     0.0000 
     12 CAK       233.2300   48.8410  568.9710 C.3       1 Y011003     0.0000 
     13 CAI       233.7620   49.9750  569.7920 C.2       1 Y011003     0.0000 
     14 CAZ       234.1510   51.1530  569.3070 C.2       1 Y011003     0.0000 
     15 CAV       234.6950   52.2180  570.2370 C.3       1 Y011003     0.0000 
     16 CBH       234.0910   51.5070  567.8140 C.3       1 Y011003     0.0000 
     17 CAD       235.5350   51.5290  567.2580 C.3       1 Y011003     0.0000 
     18 CAT       233.4530   52.9070  567.6660 C.3       1 Y011003     0.0000 
     19 CAR       234.0840   53.9790  568.5630 C.3       1 Y011003     0.0000 
     20 CBC       234.0420   53.5740  570.0220 C.3       1 Y011003     0.0000 
     21 OAW       234.8610   54.5370  570.7620 O.3       1 Y011003     0.0000 
     22 CAY       234.6100   54.7790  572.0640 C.2       1 Y011003     0.0000 
     23 OAG       233.5590   54.5490  572.6050 O.2       1 Y011003     0.0000 
     24 CAM       235.8340   55.3120  572.7460 C.3       1 Y011003     0.0000 
     25 CAL       235.6350   56.6350  573.4570 C.3       1 Y011003     0.0000 
     26 CAX       236.9060   57.1940  574.0260 C.2       1 Y011003     0.0000 
     27 OAH       236.9060   57.2690  575.3350 O.co2     1 Y011003     0.0000 
     28 OAF       237.8410   57.5520  573.3330 O.co2     1 Y011003     0.0000 
@<TRIPOS>BOND
     1    1    2 1    
     2    2    3 1    
     3    2    6 1    
     4    3    4 1    
     5    4    5 1    
     6    5    6 1    
     7    5   11 1    
     8    6    7 1    
     9    6    8 1    
    10    8    9 1    
    11    9   10 1    
    12   10   11 1    
    13   10   16 1    
    14   11   12 1    
    15   12   13 1    
    16   13   14 2    
    17   14   15 1    
    18   14   16 1    
    19   15   20 1    
    20   16   17 1    
    21   16   18 1    
    22   18   19 1    
    23   19   20 1    
    24   20   21 1    
    25   21   22 1    
    26   22   23 2    
    27   22   24 1    
    28   24   25 1    
    29   25   26 1    
    30   26   27 ar   
    31   26   28 ar   
@<TRIPOS>SUBSTRUCTURE
     1 Y011003     1 GROUP   
@<TRIPOS>SET

