#    Name: 5och_2_Y01
#    Modification time : Fri May 22 19:17:57 2020

@<TRIPOS>MOLECULE
5och_2_Y01
   35    38     1     0     0
SMALL
NO_CHARGES


@<TRIPOS>ATOM
      1 CAA       183.7660   -0.7940  487.1900 C.3       1 Y011003     0.0000 
      2 CBA       183.9420    0.4630  486.3460 C.3       1 Y011003     0.0000 
      3 CAB       185.0950    0.2980  485.3650 C.3       1 Y011003     0.0000 
      4 CAN       184.1000    1.7080  487.2210 C.3       1 Y011003     0.0000 
      5 CAJ       183.2120    2.9110  486.9110 C.3       1 Y011003     0.0000 
      6 CAO       182.9230    3.7890  488.1260 C.3       1 Y011003     0.0000 
      7 CBB       183.9270    4.9310  488.3830 C.3       1 Y011003     0.0000 
      8 CAC       183.3130    6.2610  487.9470 C.3       1 Y011003     0.0000 
      9 CBE       184.4240    4.9190  489.8480 C.3       1 Y011003     0.0000 
     10 CAP       184.9350    3.5250  490.2840 C.3       1 Y011003     0.0000 
     11 CAQ       185.9400    3.7630  491.4220 C.3       1 Y011003     0.0000 
     12 CBG       185.8450    5.2730  491.7030 C.3       1 Y011003     0.0000 
     13 CBI       185.5460    5.8870  490.3130 C.3       1 Y011003     0.0000 
     14 CAE       186.7680    5.8380  489.3680 C.3       1 Y011003     0.0000 
     15 CAU       185.1300    7.3480  490.5790 C.3       1 Y011003     0.0000 
     16 CAS       186.1720    8.1500  491.3690 C.3       1 Y011003     0.0000 
     17 CBF       186.6340    7.4750  492.6780 C.3       1 Y011003     0.0000 
     18 CBD       186.9690    5.9750  492.4880 C.3       1 Y011003     0.0000 
     19 CAK       187.1750    5.3200  493.8520 C.3       1 Y011003     0.0000 
     20 CAI       188.0270    6.1500  494.7610 C.2       1 Y011003     0.0000 
     21 CAZ       188.3120    7.4380  494.5800 C.2       1 Y011003     0.0000 
     22 CAV       189.2000    8.1670  495.5670 C.3       1 Y011003     0.0000 
     23 CBH       187.7910    8.2520  493.3890 C.3       1 Y011003     0.0000 
     24 CAD       188.9740    8.5210  492.4290 C.3       1 Y011003     0.0000 
     25 CAT       187.2390    9.5940  493.9190 C.3       1 Y011003     0.0000 
     26 CAR       188.1960   10.3450  494.8520 C.3       1 Y011003     0.0000 
     27 CBC       188.6010    9.4850  496.0300 C.3       1 Y011003     0.0000 
     28 OAW       189.6690   10.1950  496.7390 O.3       1 Y011003     0.0000 
     29 CAY       189.8710    9.9770  498.0570 C.2       1 Y011003     0.0000 
     30 OAG       189.0440    9.5200  498.8030 O.2       1 Y011003     0.0000 
     31 CAM       191.2770   10.3230  498.4400 C.3       1 Y011003     0.0000 
     32 CAL       191.3910   11.3170  499.5740 C.3       1 Y011003     0.0000 
     33 CAX       192.8070   11.7250  499.8460 C.2       1 Y011003     0.0000 
     34 OAH       193.2380   11.3590  501.0300 O.co2     1 Y011003     0.0000 
     35 OAF       193.4840   12.3400  499.0410 O.co2     1 Y011003     0.0000 
@<TRIPOS>BOND
     1    1    2 1    
     2    2    3 1    
     3    2    4 1    
     4    4    5 1    
     5    5    6 1    
     6    6    7 1    
     7    7    8 1    
     8    7    9 1    
     9    9   10 1    
    10    9   13 1    
    11   10   11 1    
    12   11   12 1    
    13   12   13 1    
    14   12   18 1    
    15   13   14 1    
    16   13   15 1    
    17   15   16 1    
    18   16   17 1    
    19   17   18 1    
    20   17   23 1    
    21   18   19 1    
    22   19   20 1    
    23   20   21 2    
    24   21   22 1    
    25   21   23 1    
    26   22   27 1    
    27   23   24 1    
    28   23   25 1    
    29   25   26 1    
    30   26   27 1    
    31   27   28 1    
    32   28   29 1    
    33   29   30 2    
    34   29   31 1    
    35   31   32 1    
    36   32   33 1    
    37   33   34 ar   
    38   33   35 ar   
@<TRIPOS>SUBSTRUCTURE
     1 Y011003     1 GROUP   
@<TRIPOS>SET

