#    Name: 5och_3_Y01
#    Modification time : Fri May 22 19:18:06 2020

@<TRIPOS>MOLECULE
5och_3_Y01
   26    29     1     0     0
SMALL
NO_CHARGES


@<TRIPOS>ATOM
      1 CAO       226.6370   49.5400  460.9590 C.3       1 Y011003     0.0000 
      2 CBB       227.7840   50.5370  461.2080 C.3       1 Y011003     0.0000 
      3 CAC       227.3590   51.9320  460.7510 C.3       1 Y011003     0.0000 
      4 CBE       228.2860   50.4750  462.6710 C.3       1 Y011003     0.0000 
      5 CAP       228.5880   49.0260  463.1260 C.3       1 Y011003     0.0000 
      6 CAQ       229.6080   49.1350  464.2720 C.3       1 Y011003     0.0000 
      7 CBG       229.7480   50.6490  464.5210 C.3       1 Y011003     0.0000 
      8 CBI       229.5460   51.2710  463.1150 C.3       1 Y011003     0.0000 
      9 CAE       230.7400   51.0230  462.1600 C.3       1 Y011003     0.0000 
     10 CAU       229.3590   52.7830  463.3530 C.3       1 Y011003     0.0000 
     11 CAS       230.5200   53.4300  464.1190 C.3       1 Y011003     0.0000 
     12 CBF       230.8750   52.7270  465.4460 C.3       1 Y011003     0.0000 
     13 CBD       230.9670   51.1900  465.2970 C.3       1 Y011003     0.0000 
     14 CAK       231.0700   50.5470  466.6790 C.3       1 Y011003     0.0000 
     15 CAI       232.0500   51.2520  467.5650 C.2       1 Y011003     0.0000 
     16 CAZ       232.5350   52.4740  467.3510 C.2       1 Y011003     0.0000 
     17 CAV       233.5320   53.0790  468.3190 C.3       1 Y011003     0.0000 
     18 CBH       232.1440   53.3310  466.1400 C.3       1 Y011003     0.0000 
     19 CAD       233.3520   53.3950  465.1730 C.3       1 Y011003     0.0000 
     20 CAT       231.8090   54.7560  466.6370 C.3       1 Y011003     0.0000 
     21 CAR       232.8780   55.3700  467.5510 C.3       1 Y011003     0.0000 
     22 CBC       233.1490   54.4860  468.7510 C.3       1 Y011003     0.0000 
     23 OAW       234.3190   55.0330  469.4460 O.3       1 Y011003     0.0000 
     24 CAY       234.4820   54.8180  470.7710 C.2       1 Y011003     0.0000 
     25 OAG       233.5900   54.5210  471.5240 O.2       1 Y011003     0.0000 
     26 CAM       235.9250   54.9680  471.1650 C.3       1 Y011003     0.0000 
@<TRIPOS>BOND
     1    1    2 1    
     2    2    3 1    
     3    2    4 1    
     4    4    5 1    
     5    4    8 1    
     6    5    6 1    
     7    6    7 1    
     8    7    8 1    
     9    7   13 1    
    10    8    9 1    
    11    8   10 1    
    12   10   11 1    
    13   11   12 1    
    14   12   13 1    
    15   12   18 1    
    16   13   14 1    
    17   14   15 1    
    18   15   16 2    
    19   16   17 1    
    20   16   18 1    
    21   17   22 1    
    22   18   19 1    
    23   18   20 1    
    24   20   21 1    
    25   21   22 1    
    26   22   23 1    
    27   23   24 1    
    28   24   25 2    
    29   24   26 1    
@<TRIPOS>SUBSTRUCTURE
     1 Y011003     1 GROUP   
@<TRIPOS>SET

