#    Name: 5och_14_ADP_CAVITY_N1_12
#    Modification time : Fri May 22 19:20:30 2020

@<TRIPOS>MOLECULE
5och_14_ADP_CAVITY_N1_12
   89     0     6     0     0
SMALL
NO_CHARGES


@<TRIPOS>ATOM
      1 OG        261.7100   36.5600  515.0900 O.3       1 SER1        0.0000 
      2 OG        263.4900   35.6600  515.8100 O.3       1 SER1        0.0000 
      3 OG        264.3000   36.6000  514.9800 O.3       1 SER1        0.0000 
      4 OG        268.9200   35.7000  521.1900 O.3       1 SER1        0.0000 
      5 OG        269.7400   36.6500  520.3600 O.3       1 SER1        0.0000 
      6 OG        268.0600   36.8500  521.6400 O.3       1 SER1        0.0000 
      7 OG        268.8800   37.7900  520.8000 O.3       1 SER1        0.0000 
      8 OG        268.9700   37.0800  522.8000 O.3       1 SER1        0.0000 
      9 O         260.8900   35.6200  515.9200 O.2       2 ALA2        0.0000 
     10 N         260.0300   36.7600  516.3700 N.am      2 ALA2        0.0000 
     11 O         260.8400   37.7100  515.5400 O.2       2 ALA2        0.0000 
     12 O         262.6700   34.7200  516.6400 O.2       2 ALA2        0.0000 
     13 O         260.9900   34.9100  517.9200 O.2       2 ALA2        0.0000 
     14 O         261.8100   35.8600  517.0900 O.2       2 ALA2        0.0000 
     15 N         261.7600   37.9400  516.7000 N.am      2 ALA2        0.0000 
     16 O         265.2700   34.7500  516.5300 O.2       2 ALA2        0.0000 
     17 O         266.0800   35.7000  515.7000 O.2       2 ALA2        0.0000 
     18 O         261.9000   35.1500  519.0900 O.2       2 ALA2        0.0000 
     19 N         262.6700   38.1800  517.8700 N.am      2 ALA2        0.0000 
     20 O         265.3600   34.0500  518.5300 O.2       2 ALA2        0.0000 
     21 O         266.1800   34.9900  517.7000 O.2       2 ALA2        0.0000 
     22 O         267.0000   35.9300  516.8600 O.2       2 ALA2        0.0000 
     23 O         267.8100   36.8800  516.0300 O.2       2 ALA2        0.0000 
     24 O         268.7300   37.1200  517.2000 O.2       2 ALA2        0.0000 
     25 O         267.8600   38.2600  517.6400 O.2       2 ALA2        0.0000 
     26 N         269.7900   31.1000  519.5200 N.am      2 ALA2        0.0000 
     27 O         269.6900   35.2700  518.7500 O.2       2 ALA2        0.0000 
     28 O         268.8300   36.4100  519.1900 O.2       2 ALA2        0.0000 
     29 O         268.7800   38.4900  518.8100 O.2       2 ALA2        0.0000 
     30 N         270.7000   31.3300  520.6900 N.am      2 ALA2        0.0000 
     31 N         269.8400   32.4800  521.1300 N.am      2 ALA2        0.0000 
     32 N         270.6500   33.4200  520.3000 N.am      2 ALA2        0.0000 
     33 O         271.4700   34.3600  519.4700 O.2       2 ALA2        0.0000 
     34 O         270.6100   35.5000  519.9100 O.2       2 ALA2        0.0000 
     35 OD1       263.4400   37.7400  515.4200 O.co2     3 ASP3        0.0000 
     36 OD1       265.2200   36.8400  516.1400 O.co2     3 ASP3        0.0000 
     37 OD1       266.0400   37.7800  515.3100 O.co2     3 ASP3        0.0000 
     38 OD1       263.5400   37.0400  517.4200 O.co2     3 ASP3        0.0000 
     39 OD1       266.1300   37.0800  517.3100 O.co2     3 ASP3        0.0000 
     40 OD1       264.4500   37.2800  518.5900 O.co2     3 ASP3        0.0000 
     41 OD1       263.5900   38.4200  519.0300 O.co2     3 ASP3        0.0000 
     42 OD1       267.0500   37.3100  518.4700 O.co2     3 ASP3        0.0000 
     43 OD1       266.1800   38.4600  518.9200 O.co2     3 ASP3        0.0000 
     44 OD1       269.9300   31.7700  523.1300 O.co2     3 ASP3        0.0000 
     45 CZ        269.0200   35.0000  523.1900 C.ar      4 PHE5        0.0000 
     46 CA        264.4500   33.8100  517.3600 C.3       5 GLY6        0.0000 
     47 CA        263.5900   34.9500  517.8100 C.3       5 GLY6        0.0000 
     48 CA        265.4100   31.9600  518.9200 C.3       5 GLY6        0.0000 
     49 CA        264.5500   33.1000  519.3600 C.3       5 GLY6        0.0000 
     50 CA        266.3300   32.2000  520.0800 C.3       5 GLY6        0.0000 
     51 CA        266.2800   34.2900  519.6900 C.3       5 GLY6        0.0000 
     52 CA        267.1000   35.2300  518.8600 C.3       5 GLY6        0.0000 
     53 CA        267.9100   36.1700  518.0300 C.3       5 GLY6        0.0000 
     54 CA        268.0600   33.3800  520.4100 C.3       5 GLY6        0.0000 
     55 CA        268.8700   34.3200  519.5800 C.3       5 GLY6        0.0000 
     56 CA        268.0100   35.4700  520.0300 C.3       5 GLY6        0.0000 
     57 CA        269.6400   37.3500  518.3600 C.3       5 GLY6        0.0000 
     58 CA        264.7000   33.7800  522.9700 C.3       5 GLY6        0.0000 
     59 CA        267.9600   37.5500  519.6400 C.3       5 GLY6        0.0000 
     60 CA        267.1000   38.6900  520.0800 C.3       5 GLY6        0.0000 
     61 CA        266.2300   39.8300  520.5300 C.3       5 GLY6        0.0000 
     62 CA        269.7900   34.5600  520.7500 C.3       5 GLY6        0.0000 
     63 CA        266.4700   32.8700  523.6900 C.3       5 GLY6        0.0000 
     64 CA        268.0100   38.9300  521.2500 C.3       5 GLY6        0.0000 
     65 CA        271.6200   31.5700  521.8500 C.3       5 GLY6        0.0000 
     66 CA        270.7500   32.7100  522.3000 C.3       5 GLY6        0.0000 
     67 CA        271.5700   33.6600  521.4700 C.3       5 GLY6        0.0000 
     68 CA        269.8900   33.8600  522.7400 C.3       5 GLY6        0.0000 
     69 CA        270.7000   34.8000  521.9100 C.3       5 GLY6        0.0000 
     70 DU        262.6200   36.8000  516.2600 H         6 CUB7        0.0000 
     71 DU        264.4000   35.9000  516.9800 H         6 CUB7        0.0000 
     72 DU        262.7200   36.0900  518.2500 H         6 CUB7        0.0000 
     73 DU        264.5000   35.1900  518.9700 H         6 CUB7        0.0000 
     74 DU        265.3200   36.1300  518.1400 H         6 CUB7        0.0000 
     75 DU        265.4600   33.3400  520.5300 H         6 CUB7        0.0000 
     76 DU        265.4100   35.4300  520.1400 H         6 CUB7        0.0000 
     77 DU        266.2300   36.3700  519.3100 H         6 CUB7        0.0000 
     78 DU        265.3700   37.5100  519.7500 H         6 CUB7        0.0000 
     79 DU        268.1100   31.3000  520.8000 H         6 CUB7        0.0000 
     80 DU        267.2400   32.4400  521.2500 H         6 CUB7        0.0000 
     81 DU        266.3800   33.5800  521.6900 H         6 CUB7        0.0000 
     82 DU        267.1900   34.5200  520.8600 H         6 CUB7        0.0000 
     83 DU        267.1500   36.6100  520.4700 H         6 CUB7        0.0000 
     84 DU        269.8800   30.3900  521.5200 H         6 CUB7        0.0000 
     85 DU        269.0200   31.5300  521.9700 H         6 CUB7        0.0000 
     86 DU        268.1600   32.6700  522.4100 H         6 CUB7        0.0000 
     87 DU        268.9700   33.6200  521.5800 H         6 CUB7        0.0000 
     88 DU        267.2900   33.8200  522.8600 H         6 CUB7        0.0000 
     89 DU        268.1100   34.7600  522.0200 H         6 CUB7        0.0000 
@<TRIPOS>BOND
@<TRIPOS>SUBSTRUCTURE
     1 SER1        1 GROUP   
     2 ALA2        9 GROUP   
     3 ASP3       35 GROUP   
     4 PHE5       45 GROUP   
     5 GLY6       46 GROUP   
     6 CUB7       70 GROUP   
@<TRIPOS>SET

