#    Name: 5och_15_ADP
#    Modification time : Fri May 22 19:20:42 2020

@<TRIPOS>MOLECULE
5och_15_ADP
   27    29     1     0     1
SMALL
NO_CHARGES


@<TRIPOS>ATOM
      1 PB        242.0700   43.3240  511.7470 P.3       1 ADP1001     0.0000 
      2 O1B       241.1580   43.4280  510.5740 O.co2     1 ADP1001     0.0000 
      3 O2B       243.4190   44.0020  511.5070 O.co2     1 ADP1001     0.0000 
      4 O3B       242.3310   41.8740  512.1690 O.co2     1 ADP1001     0.0000 
      5 PA        240.4010   43.5910  514.1290 P.3       1 ADP1001     0.0000 
      6 O1A       239.5240   42.5180  513.6230 O.co2     1 ADP1001     0.0000 
      7 O2A       241.2190   43.2020  515.3550 O.co2     1 ADP1001     0.0000 
      8 O3A       241.4340   44.0580  513.0110 O.3       1 ADP1001     0.0000 
      9 O5'       239.5830   44.9140  514.5250 O.3       1 ADP1001     0.0000 
     10 C5'       238.7730   45.6840  513.6120 C.3       1 ADP1001     0.0000 
     11 C4'       238.2640   46.9260  514.3030 C.3       1 ADP1001     0.0000 
     12 O4'       237.7790   46.6020  515.6250 O.3       1 ADP1001     0.0000 
     13 C3'       239.2610   48.0740  514.4670 C.3       1 ADP1001     0.0000 
     14 O3'       238.6630   49.3250  514.1450 O.3       1 ADP1001     0.0000 
     15 C2'       239.6830   47.9700  515.9390 C.3       1 ADP1001     0.0000 
     16 O2'       240.0250   49.2290  516.5110 O.3       1 ADP1001     0.0000 
     17 C1'       238.4190   47.4100  516.5970 C.3       1 ADP1001     0.0000 
     18 N9        238.6740   46.5930  517.7800 N.pl3     1 ADP1001     0.0000 
     19 C8        239.2890   45.3660  517.8190 C.2       1 ADP1001     0.0000 
     20 N7        239.4060   44.8620  519.0220 N.2       1 ADP1001     0.0000 
     21 C5        238.8310   45.8210  519.8390 C.ar      1 ADP1001     0.0000 
     22 C6        238.6510   45.8990  521.2350 C.ar      1 ADP1001     0.0000 
     23 N6        239.0620   44.9560  522.0890 N.pl3     1 ADP1001     0.0000 
     24 N1        238.0410   47.0000  521.7330 N.ar      1 ADP1001     0.0000 
     25 C2        237.6410   47.9550  520.8840 C.ar      1 ADP1001     0.0000 
     26 N3        237.7610   47.9950  519.5520 N.ar      1 ADP1001     0.0000 
     27 C4        238.3700   46.8930  519.0890 C.ar      1 ADP1001     0.0000 
@<TRIPOS>BOND
     1    1    2 ar   
     2    1    3 ar   
     3    1    4 ar   
     4    1    8 1    
     5    5    6 ar   
     6    5    7 ar   
     7    5    8 1    
     8    5    9 1    
     9    9   10 1    
    10   10   11 1    
    11   11   12 1    
    12   11   13 1    
    13   12   17 1    
    14   13   14 1    
    15   13   15 1    
    16   15   16 1    
    17   15   17 1    
    18   17   18 1    
    19   18   19 1    
    20   18   27 1    
    21   19   20 2    
    22   20   21 1    
    23   21   22 ar   
    24   21   27 ar   
    25   22   23 1    
    26   22   24 ar   
    27   24   25 ar   
    28   25   26 ar   
    29   26   27 ar   
@<TRIPOS>SUBSTRUCTURE
     1 ADP1001     1 GROUP   
@<TRIPOS>SET
ATOM$ORANGE STATIC     ATOMS   COLORGROUP SYSTEM 
20 10 10 11 11 13 13 15 15 17 17 19 19 21 21 22 22 25 \
25 27 27 

