#    Name: 6r9w_2_NAD
#    Modification time : Fri May 22 19:25:55 2020

@<TRIPOS>MOLECULE
6r9w_2_NAD
   70    74     1     0     1
SMALL
NO_CHARGES


@<TRIPOS>ATOM
      1 PA        -28.7610  -16.1950   78.1670 P.3       1 NAD301      0.0000 
      2 O1A       -28.5010  -15.7140   76.7590 O.co2     1 NAD301      0.0000 
      3 O2A       -29.7900  -15.5180   79.0350 O.co2     1 NAD301      0.0000 
      4 O5B       -29.0090  -17.7890   78.1350 O.3       1 NAD301      0.0000 
      5 C5B       -29.6950  -18.6620   79.0690 C.3       1 NAD301      0.0000 
      6 C4B       -30.5770  -19.5610   78.2440 C.3       1 NAD301      0.0000 
      7 O4B       -31.3260  -20.4890   79.0810 O.3       1 NAD301      0.0000 
      8 C3B       -31.6450  -18.7770   77.4550 C.3       1 NAD301      0.0000 
      9 O3B       -31.5480  -19.0860   76.0700 O.3       1 NAD301      0.0000 
     10 C2B       -32.9620  -19.2270   78.0980 C.3       1 NAD301      0.0000 
     11 O2B       -34.0400  -19.1080   77.1960 O.3       1 NAD301      0.0000 
     12 C1B       -32.5820  -20.6430   78.4700 C.3       1 NAD301      0.0000 
     13 N9A       -33.5440  -21.2620   79.3540 N.pl3     1 NAD301      0.0000 
     14 C8A       -34.0890  -20.7250   80.5030 C.2       1 NAD301      0.0000 
     15 N7A       -35.0200  -21.4810   81.0260 N.2       1 NAD301      0.0000 
     16 C5A       -35.1030  -22.5680   80.1470 C.ar      1 NAD301      0.0000 
     17 C6A       -35.9000  -23.7280   80.1530 C.ar      1 NAD301      0.0000 
     18 N6A       -36.8410  -23.9340   81.0840 N.pl3     1 NAD301      0.0000 
     19 N1A       -35.7430  -24.6110   79.1220 N.ar      1 NAD301      0.0000 
     20 C2A       -34.8140  -24.3540   78.1860 C.ar      1 NAD301      0.0000 
     21 N3A       -33.9990  -23.2980   78.0870 N.ar      1 NAD301      0.0000 
     22 C4A       -34.2030  -22.4370   79.1080 C.ar      1 NAD301      0.0000 
     23 O3        -27.4030  -16.0940   78.9980 O.3       1 NAD301      0.0000 
     24 PN        -25.9620  -16.6980   78.6800 P.3       1 NAD301      0.0000 
     25 O1N       -25.0240  -15.7730   79.3950 O.co2     1 NAD301      0.0000 
     26 O2N       -25.7360  -16.9720   77.2220 O.co2     1 NAD301      0.0000 
     27 O5D       -26.0280  -18.1360   79.4540 O.3       1 NAD301      0.0000 
     28 C5D       -25.7320  -19.3870   78.8000 C.3       1 NAD301      0.0000 
     29 C4D       -25.0350  -20.2430   79.8240 C.3       1 NAD301      0.0000 
     30 O4D       -23.7190  -19.6910   80.0900 O.3       1 NAD301      0.0000 
     31 C3D       -25.7170  -20.3410   81.2040 C.3       1 NAD301      0.0000 
     32 O3D       -25.6170  -21.6790   81.6800 O.3       1 NAD301      0.0000 
     33 C2D       -24.9380  -19.3080   82.0390 C.3       1 NAD301      0.0000 
     34 O2D       -25.1180  -19.5310   83.4350 O.3       1 NAD301      0.0000 
     35 C1D       -23.5350  -19.6240   81.5250 C.3       1 NAD301      0.0000 
     36 N1N       -22.4850  -18.6010   81.8060 N.pl3     1 NAD301      0.0000 
     37 C2N       -22.7350  -17.2310   81.7530 C.ar      1 NAD301      0.0000 
     38 C3N       -21.6550  -16.3160   81.8250 C.ar      1 NAD301      0.0000 
     39 C7N       -21.8710  -14.8470   81.5910 C.2       1 NAD301      0.0000 
     40 O7N       -21.1100  -14.0580   82.1360 O.2       1 NAD301      0.0000 
     41 N7N       -22.8930  -14.4550   80.8220 N.am      1 NAD301      0.0000 
     42 C4N       -20.3700  -16.8140   82.0190 C.ar      1 NAD301      0.0000 
     43 C5N       -20.2500  -18.1280   82.3650 C.ar      1 NAD301      0.0000 
     44 C6N       -21.2200  -19.0170   81.9940 C.ar      1 NAD301      0.0000 
     45 H51A      -30.2360  -18.1360   79.6790 H         1 NAD301      0.0000 
     46 H52A      -29.0520  -19.1910   79.5660 H         1 NAD301      0.0000 
     47 H4B       -30.0310  -20.0650   77.6200 H         1 NAD301      0.0000 
     48 H3B       -31.5200  -17.8250   77.5950 H         1 NAD301      0.0000 
     49 HO3A      -31.8950  -19.8480   75.9240 H         1 NAD301      0.0000 
     50 H2B       -33.1330  -18.7040   78.8970 H         1 NAD301      0.0000 
     51 HO2A      -34.0920  -19.8110   76.7220 H         1 NAD301      0.0000 
     52 H1B       -32.4850  -21.1740   77.6640 H         1 NAD301      0.0000 
     53 H8A       -33.8260  -19.9090   80.8630 H         1 NAD301      0.0000 
     54 H61A      -37.3400  -24.6330   81.0430 H         1 NAD301      0.0000 
     55 H62A      -36.9460  -23.3670   81.7220 H         1 NAD301      0.0000 
     56 H2A       -34.7400  -24.9850   77.5070 H         1 NAD301      0.0000 
     57 H51N      -25.1490  -19.2370   78.0400 H         1 NAD301      0.0000 
     58 H52N      -26.5540  -19.8130   78.5100 H         1 NAD301      0.0000 
     59 H4D       -24.9340  -21.1390   79.4670 H         1 NAD301      0.0000 
     60 H3D       -26.6480  -20.0770   81.1340 H         1 NAD301      0.0000 
     61 HO3N      -26.3020  -21.8660   82.1480 H         1 NAD301      0.0000 
     62 H2D       -25.2010  -18.4080   81.7930 H         1 NAD301      0.0000 
     63 HO2N      -25.8750  -19.2300   83.6770 H         1 NAD301      0.0000 
     64 H1D       -23.2540  -20.4900   81.8590 H         1 NAD301      0.0000 
     65 H2N       -23.5490  -16.9360   81.4150 H         1 NAD301      0.0000 
     66 H71N      -23.4080  -15.0410   80.4600 H         1 NAD301      0.0000 
     67 H72N      -23.0290  -13.6170   80.6820 H         1 NAD301      0.0000 
     68 H4N       -19.6850  -16.2240   82.2370 H         1 NAD301      0.0000 
     69 H5N       -19.3870  -18.4610   82.4630 H         1 NAD301      0.0000 
     70 H6N       -20.7000  -19.7370   82.2440 H         1 NAD301      0.0000 
@<TRIPOS>BOND
     1    1    2 ar   
     2    1    3 ar   
     3    1    4 1    
     4    1   23 1    
     5    4    5 1    
     6    5    6 1    
     7    5   45 1    
     8    5   46 1    
     9    6    7 1    
    10    6    8 1    
    11    6   47 1    
    12    7   12 1    
    13    8    9 1    
    14    8   10 1    
    15    8   48 1    
    16    9   49 1    
    17   10   11 1    
    18   10   12 1    
    19   10   50 1    
    20   11   51 1    
    21   12   13 1    
    22   12   52 1    
    23   13   14 1    
    24   13   22 1    
    25   14   15 2    
    26   15   16 1    
    27   14   53 1    
    28   16   17 ar   
    29   16   22 ar   
    30   17   18 1    
    31   17   19 ar   
    32   19   20 ar   
    33   18   54 1    
    34   18   55 1    
    35   20   21 ar   
    36   21   22 ar   
    37   20   56 1    
    38   23   24 1    
    39   24   25 ar   
    40   24   26 ar   
    41   24   27 1    
    42   27   28 1    
    43   28   29 1    
    44   28   57 1    
    45   28   58 1    
    46   29   30 1    
    47   29   31 1    
    48   29   59 1    
    49   30   35 1    
    50   31   32 1    
    51   31   33 1    
    52   31   60 1    
    53   32   61 1    
    54   33   34 1    
    55   33   35 1    
    56   33   62 1    
    57   34   63 1    
    58   35   36 1    
    59   35   64 1    
    60   36   37 ar   
    61   36   44 ar   
    62   37   38 ar   
    63   38   39 1    
    64   37   65 1    
    65   38   42 ar   
    66   39   40 2    
    67   39   41 am   
    68   42   43 ar   
    69   41   66 1    
    70   41   67 1    
    71   43   44 ar   
    72   42   68 1    
    73   43   69 1    
    74   44   70 1    
@<TRIPOS>SUBSTRUCTURE
     1 NAD301      1 GROUP   
@<TRIPOS>SET
ATOM$ORANGE STATIC     ATOMS   COLORGROUP SYSTEM 
42 5 5 6 6 8 8 10 10 12 12 14 14 16 16 17 17 20 \
20 22 22 28 28 29 29 31 31 33 33 35 35 37 37 38 38 39 \
39 42 42 43 43 44 44 

