#    Name: 6r9w_3_NAD
#    Modification time : Fri May 22 19:25:59 2020

@<TRIPOS>MOLECULE
6r9w_3_NAD
   70    74     1     0     1
SMALL
NO_CHARGES


@<TRIPOS>ATOM
      1 PA        -41.3550  -37.2570    6.0310 P.3       1 NAD301      0.0000 
      2 O1A       -41.3800  -36.3390    4.8280 O.co2     1 NAD301      0.0000 
      3 O2A       -41.9340  -38.6410    5.9230 O.co2     1 NAD301      0.0000 
      4 O5B       -39.8390  -37.3880    6.5700 O.3       1 NAD301      0.0000 
      5 C5B       -39.4600  -38.4670    7.4170 C.3       1 NAD301      0.0000 
      6 C4B       -38.0630  -38.7920    7.0020 C.3       1 NAD301      0.0000 
      7 O4B       -37.5010  -39.8040    7.8740 O.3       1 NAD301      0.0000 
      8 C3B       -37.9550  -39.3110    5.5630 C.3       1 NAD301      0.0000 
      9 O3B       -37.0800  -38.5460    4.7390 O.3       1 NAD301      0.0000 
     10 C2B       -37.4080  -40.7200    5.7610 C.3       1 NAD301      0.0000 
     11 O2B       -36.5980  -41.1850    4.6920 O.3       1 NAD301      0.0000 
     12 C1B       -36.6230  -40.4950    7.0510 C.3       1 NAD301      0.0000 
     13 N9A       -36.1860  -41.7400    7.6570 N.pl3     1 NAD301      0.0000 
     14 C8A       -36.9450  -42.8220    8.0340 C.2       1 NAD301      0.0000 
     15 N7A       -36.2260  -43.8330    8.4520 N.2       1 NAD301      0.0000 
     16 C5A       -34.9190  -43.4050    8.2740 C.ar      1 NAD301      0.0000 
     17 C6A       -33.6830  -44.0330    8.5020 C.ar      1 NAD301      0.0000 
     18 N6A       -33.5660  -45.2880    8.9220 N.pl3     1 NAD301      0.0000 
     19 N1A       -32.5700  -43.3170    8.2060 N.ar      1 NAD301      0.0000 
     20 C2A       -32.6890  -42.0630    7.7550 C.ar      1 NAD301      0.0000 
     21 N3A       -33.7960  -41.3640    7.4920 N.ar      1 NAD301      0.0000 
     22 C4A       -34.8810  -42.1130    7.7810 C.ar      1 NAD301      0.0000 
     23 O3        -42.0040  -36.4540    7.2830 O.3       1 NAD301      0.0000 
     24 PN        -41.6060  -35.0790    8.0240 P.3       1 NAD301      0.0000 
     25 O1N       -40.8490  -34.1650    7.0990 O.co2     1 NAD301      0.0000 
     26 O2N       -42.8430  -34.5240    8.6660 O.co2     1 NAD301      0.0000 
     27 O5D       -40.6380  -35.6590    9.1970 O.3       1 NAD301      0.0000 
     28 C5D       -39.4130  -34.9800    9.5010 C.3       1 NAD301      0.0000 
     29 C4D       -39.3250  -34.7370   10.9810 C.3       1 NAD301      0.0000 
     30 O4D       -40.2760  -33.7030   11.4080 O.3       1 NAD301      0.0000 
     31 C3D       -39.5990  -35.9530   11.8810 C.3       1 NAD301      0.0000 
     32 O3D       -38.7100  -35.9650   12.9930 O.3       1 NAD301      0.0000 
     33 C2D       -41.0410  -35.6890   12.3440 C.3       1 NAD301      0.0000 
     34 O2D       -41.3550  -36.4530   13.4960 O.3       1 NAD301      0.0000 
     35 C1D       -40.9710  -34.1800   12.5890 C.3       1 NAD301      0.0000 
     36 N1N       -42.2950  -33.4990   12.6750 N.pl3     1 NAD301      0.0000 
     37 C2N       -43.3310  -33.7900   11.7780 C.ar      1 NAD301      0.0000 
     38 C3N       -44.5320  -33.0750   11.8790 C.ar      1 NAD301      0.0000 
     39 C7N       -45.6760  -33.3430   10.9430 C.2       1 NAD301      0.0000 
     40 O7N       -46.8120  -33.1450   11.3620 O.2       1 NAD301      0.0000 
     41 N7N       -45.4080  -33.7860    9.7170 N.am      1 NAD301      0.0000 
     42 C4N       -44.6960  -32.1110   12.8970 C.ar      1 NAD301      0.0000 
     43 C5N       -43.6800  -31.9120   13.8260 C.ar      1 NAD301      0.0000 
     44 C6N       -42.4860  -32.5780   13.6650 C.ar      1 NAD301      0.0000 
     45 H51A      -39.4810  -38.1910    8.3470 H         1 NAD301      0.0000 
     46 H52A      -40.0390  -39.2320    7.2780 H         1 NAD301      0.0000 
     47 H4B       -37.5220  -37.9900    7.0750 H         1 NAD301      0.0000 
     48 H3B       -38.8380  -39.3540    5.1640 H         1 NAD301      0.0000 
     49 HO3A      -36.6220  -39.0680    4.2500 H         1 NAD301      0.0000 
     50 H2B       -38.1390  -41.3380    5.9200 H         1 NAD301      0.0000 
     51 HO2A      -36.4810  -42.0230    4.7690 H         1 NAD301      0.0000 
     52 H1B       -35.8550  -39.9340    6.8640 H         1 NAD301      0.0000 
     53 H8A       -37.8750  -42.8210    8.0310 H         1 NAD301      0.0000 
     54 H61A      -32.7860  -45.6290    9.0440 H         1 NAD301      0.0000 
     55 H62A      -34.2700  -45.7590    9.0720 H         1 NAD301      0.0000 
     56 H2A       -31.8880  -41.6270    7.5720 H         1 NAD301      0.0000 
     57 H51N      -38.6620  -35.5210    9.2130 H         1 NAD301      0.0000 
     58 H52N      -39.3950  -34.1290    9.0360 H         1 NAD301      0.0000 
     59 H4D       -38.4290  -34.4220   11.1790 H         1 NAD301      0.0000 
     60 H3D       -39.5430  -36.7790   11.3750 H         1 NAD301      0.0000 
     61 HO3N      -38.4890  -36.7660   13.1720 H         1 NAD301      0.0000 
     62 H2D       -41.6590  -35.8890   11.6240 H         1 NAD301      0.0000 
     63 HO2N      -41.3330  -37.2810   13.3040 H         1 NAD301      0.0000 
     64 H1D       -40.4420  -33.9980   13.3820 H         1 NAD301      0.0000 
     65 H2N       -43.2020  -34.3960   11.0850 H         1 NAD301      0.0000 
     66 H71N      -44.5930  -33.9090    9.4740 H         1 NAD301      0.0000 
     67 H72N      -46.0500  -33.9460    9.1680 H         1 NAD301      0.0000 
     68 H4N       -45.5140  -31.6820   13.0030 H         1 NAD301      0.0000 
     69 H5N       -43.7720  -31.2680   14.4910 H         1 NAD301      0.0000 
     70 H6N       -42.1000  -32.1540   14.3860 H         1 NAD301      0.0000 
@<TRIPOS>BOND
     1    1    2 ar   
     2    1    3 ar   
     3    1    4 1    
     4    1   23 1    
     5    4    5 1    
     6    5    6 1    
     7    5   45 1    
     8    5   46 1    
     9    6    7 1    
    10    6    8 1    
    11    6   47 1    
    12    7   12 1    
    13    8    9 1    
    14    8   10 1    
    15    8   48 1    
    16    9   49 1    
    17   10   11 1    
    18   10   12 1    
    19   10   50 1    
    20   11   51 1    
    21   12   13 1    
    22   12   52 1    
    23   13   14 1    
    24   13   22 1    
    25   14   15 2    
    26   15   16 1    
    27   14   53 1    
    28   16   17 ar   
    29   16   22 ar   
    30   17   18 1    
    31   17   19 ar   
    32   19   20 ar   
    33   18   54 1    
    34   18   55 1    
    35   20   21 ar   
    36   21   22 ar   
    37   20   56 1    
    38   23   24 1    
    39   24   25 ar   
    40   24   26 ar   
    41   24   27 1    
    42   27   28 1    
    43   28   29 1    
    44   28   57 1    
    45   28   58 1    
    46   29   30 1    
    47   29   31 1    
    48   29   59 1    
    49   30   35 1    
    50   31   32 1    
    51   31   33 1    
    52   31   60 1    
    53   32   61 1    
    54   33   34 1    
    55   33   35 1    
    56   33   62 1    
    57   34   63 1    
    58   35   36 1    
    59   35   64 1    
    60   36   37 ar   
    61   36   44 ar   
    62   37   38 ar   
    63   38   39 1    
    64   37   65 1    
    65   38   42 ar   
    66   39   40 2    
    67   39   41 am   
    68   42   43 ar   
    69   41   66 1    
    70   41   67 1    
    71   43   44 ar   
    72   42   68 1    
    73   43   69 1    
    74   44   70 1    
@<TRIPOS>SUBSTRUCTURE
     1 NAD301      1 GROUP   
@<TRIPOS>SET
ATOM$ORANGE STATIC     ATOMS   COLORGROUP SYSTEM 
42 5 5 6 6 8 8 10 10 12 12 14 14 16 16 17 17 20 \
20 22 22 28 28 29 29 31 31 33 33 35 35 37 37 38 38 39 \
39 42 42 43 43 44 44 

