#    Name: 6r9w_4_NAD
#    Modification time : Fri May 22 19:26:03 2020

@<TRIPOS>MOLECULE
6r9w_4_NAD
   70    74     1     0     1
SMALL
NO_CHARGES


@<TRIPOS>ATOM
      1 PA        -33.0550  -51.6970   42.5440 P.3       1 NAD301      0.0000 
      2 O1A       -33.2520  -52.2550   43.9130 O.co2     1 NAD301      0.0000 
      3 O2A       -31.8840  -52.1180   41.7110 O.co2     1 NAD301      0.0000 
      4 O5B       -34.4390  -51.9530   41.7070 O.3       1 NAD301      0.0000 
      5 C5B       -34.4450  -52.2100   40.2740 C.3       1 NAD301      0.0000 
      6 C4B       -35.2790  -53.4460   40.0190 C.3       1 NAD301      0.0000 
      7 O4B       -35.4930  -53.6660   38.5970 O.3       1 NAD301      0.0000 
      8 C3B       -34.6620  -54.7570   40.5410 C.3       1 NAD301      0.0000 
      9 O3B       -35.5550  -55.3980   41.4430 O.3       1 NAD301      0.0000 
     10 C2B       -34.4440  -55.5870   39.2690 C.3       1 NAD301      0.0000 
     11 O2B       -34.4910  -56.9870   39.4760 O.3       1 NAD301      0.0000 
     12 C1B       -35.6070  -55.0580   38.4370 C.3       1 NAD301      0.0000 
     13 N9A       -35.5190  -55.4470   37.0440 N.pl3     1 NAD301      0.0000 
     14 C8A       -34.4510  -55.2600   36.2160 C.2       1 NAD301      0.0000 
     15 N7A       -34.6210  -55.7960   35.0330 N.2       1 NAD301      0.0000 
     16 C5A       -35.8720  -56.3970   35.0950 C.ar      1 NAD301      0.0000 
     17 C6A       -36.6170  -57.1500   34.1580 C.ar      1 NAD301      0.0000 
     18 N6A       -36.1550  -57.5010   32.9590 N.pl3     1 NAD301      0.0000 
     19 N1A       -37.8240  -57.6370   34.5550 N.ar      1 NAD301      0.0000 
     20 C2A       -38.2490  -57.3360   35.7880 C.ar      1 NAD301      0.0000 
     21 N3A       -37.6410  -56.6250   36.7360 N.ar      1 NAD301      0.0000 
     22 C4A       -36.4350  -56.1940   36.3330 C.ar      1 NAD301      0.0000 
     23 O3        -33.0310  -50.0720   42.5660 O.3       1 NAD301      0.0000 
     24 PN        -34.1040  -48.9990   43.0450 P.3       1 NAD301      0.0000 
     25 O1N       -33.3850  -47.7690   43.4160 O.co2     1 NAD301      0.0000 
     26 O2N       -35.0020  -49.6740   44.0530 O.co2     1 NAD301      0.0000 
     27 O5D       -34.9110  -48.7080   41.6710 O.3       1 NAD301      0.0000 
     28 C5D       -36.3400  -48.9150   41.6550 C.3       1 NAD301      0.0000 
     29 C4D       -36.9740  -47.8440   40.8050 C.3       1 NAD301      0.0000 
     30 O4D       -36.8720  -46.5690   41.4940 O.3       1 NAD301      0.0000 
     31 C3D       -36.3350  -47.6410   39.4170 C.3       1 NAD301      0.0000 
     32 O3D       -37.2930  -47.3220   38.4070 O.3       1 NAD301      0.0000 
     33 C2D       -35.4130  -46.4470   39.6690 C.3       1 NAD301      0.0000 
     34 O2D       -35.0370  -45.7710   38.4700 O.3       1 NAD301      0.0000 
     35 C1D       -36.3200  -45.6090   40.5760 C.3       1 NAD301      0.0000 
     36 N1N       -35.5990  -44.5350   41.3250 N.pl3     1 NAD301      0.0000 
     37 C2N       -34.5130  -44.8400   42.1520 C.ar      1 NAD301      0.0000 
     38 C3N       -33.7840  -43.7870   42.7180 C.ar      1 NAD301      0.0000 
     39 C7N       -32.5120  -43.9890   43.5170 C.2       1 NAD301      0.0000 
     40 O7N       -31.8360  -42.9900   43.7260 O.2       1 NAD301      0.0000 
     41 N7N       -32.1850  -45.2110   43.9580 N.am      1 NAD301      0.0000 
     42 C4N       -34.2170  -42.4470   42.5350 C.ar      1 NAD301      0.0000 
     43 C5N       -35.3590  -42.1810   41.7930 C.ar      1 NAD301      0.0000 
     44 C6N       -36.0260  -43.2320   41.1950 C.ar      1 NAD301      0.0000 
     45 H51A      -34.8270  -51.4510   39.8060 H         1 NAD301      0.0000 
     46 H52A      -33.5390  -52.3630   39.9630 H         1 NAD301      0.0000 
     47 H4B       -36.1430  -53.3290   40.4440 H         1 NAD301      0.0000 
     48 H3B       -33.8120  -54.5760   40.9730 H         1 NAD301      0.0000 
     49 HO3A      -35.5900  -56.2290   41.2660 H         1 NAD301      0.0000 
     50 H2B       -33.6010  -55.3390   38.8580 H         1 NAD301      0.0000 
     51 HO2A      -33.8390  -57.2230   39.9680 H         1 NAD301      0.0000 
     52 H1B       -36.4470  -55.3620   38.8160 H         1 NAD301      0.0000 
     53 H8A       -33.6870  -54.7910   36.4630 H         1 NAD301      0.0000 
     54 H61A      -36.6790  -57.8770   32.3900 H         1 NAD301      0.0000 
     55 H62A      -35.3330  -57.3520   32.7540 H         1 NAD301      0.0000 
     56 H2A       -39.0870  -57.6700   36.0140 H         1 NAD301      0.0000 
     57 H51N      -36.6900  -48.8590   42.5580 H         1 NAD301      0.0000 
     58 H52N      -36.5370  -49.7890   41.2830 H         1 NAD301      0.0000 
     59 H4D       -37.9120  -48.0580   40.6810 H         1 NAD301      0.0000 
     60 H3D       -35.8170  -48.4220   39.1650 H         1 NAD301      0.0000 
     61 HO3N      -37.1040  -47.7430   37.6930 H         1 NAD301      0.0000 
     62 H2D       -34.6260  -46.7340   40.1570 H         1 NAD301      0.0000 
     63 HO2N      -34.4830  -46.2480   38.0360 H         1 NAD301      0.0000 
     64 H1D       -37.0340  -45.2200   40.0470 H         1 NAD301      0.0000 
     65 H2N       -34.1700  -45.7040   42.1700 H         1 NAD301      0.0000 
     66 H71N      -32.6960  -45.8810   43.7850 H         1 NAD301      0.0000 
     67 H72N      -31.4640  -45.3250   44.4120 H         1 NAD301      0.0000 
     68 H4N       -33.7770  -41.7530   42.9710 H         1 NAD301      0.0000 
     69 H5N       -35.6630  -41.3080   41.6900 H         1 NAD301      0.0000 
     70 H6N       -36.6510  -42.6740   40.8060 H         1 NAD301      0.0000 
@<TRIPOS>BOND
     1    1    2 ar   
     2    1    3 ar   
     3    1    4 1    
     4    1   23 1    
     5    4    5 1    
     6    5    6 1    
     7    5   45 1    
     8    5   46 1    
     9    6    7 1    
    10    6    8 1    
    11    6   47 1    
    12    7   12 1    
    13    8    9 1    
    14    8   10 1    
    15    8   48 1    
    16    9   49 1    
    17   10   11 1    
    18   10   12 1    
    19   10   50 1    
    20   11   51 1    
    21   12   13 1    
    22   12   52 1    
    23   13   14 1    
    24   13   22 1    
    25   14   15 2    
    26   15   16 1    
    27   14   53 1    
    28   16   17 ar   
    29   16   22 ar   
    30   17   18 1    
    31   17   19 ar   
    32   19   20 ar   
    33   18   54 1    
    34   18   55 1    
    35   20   21 ar   
    36   21   22 ar   
    37   20   56 1    
    38   23   24 1    
    39   24   25 ar   
    40   24   26 ar   
    41   24   27 1    
    42   27   28 1    
    43   28   29 1    
    44   28   57 1    
    45   28   58 1    
    46   29   30 1    
    47   29   31 1    
    48   29   59 1    
    49   30   35 1    
    50   31   32 1    
    51   31   33 1    
    52   31   60 1    
    53   32   61 1    
    54   33   34 1    
    55   33   35 1    
    56   33   62 1    
    57   34   63 1    
    58   35   36 1    
    59   35   64 1    
    60   36   37 ar   
    61   36   44 ar   
    62   37   38 ar   
    63   38   39 1    
    64   37   65 1    
    65   38   42 ar   
    66   39   40 2    
    67   39   41 am   
    68   42   43 ar   
    69   41   66 1    
    70   41   67 1    
    71   43   44 ar   
    72   42   68 1    
    73   43   69 1    
    74   44   70 1    
@<TRIPOS>SUBSTRUCTURE
     1 NAD301      1 GROUP   
@<TRIPOS>SET
ATOM$ORANGE STATIC     ATOMS   COLORGROUP SYSTEM 
42 5 5 6 6 8 8 10 10 12 12 14 14 16 16 17 17 20 \
20 22 22 28 28 29 29 31 31 33 33 35 35 37 37 38 38 39 \
39 42 42 43 43 44 44 

