#    Name: 6r9w_5_NAD
#    Modification time : Fri May 22 19:26:08 2020

@<TRIPOS>MOLECULE
6r9w_5_NAD
   70    74     1     0     1
SMALL
NO_CHARGES


@<TRIPOS>ATOM
      1 PA        -15.2550  -59.8140   46.5540 P.3       1 NAD301      0.0000 
      2 O1A       -15.6750  -58.5190   45.9600 O.co2     1 NAD301      0.0000 
      3 O2A       -16.2290  -60.6630   47.2860 O.co2     1 NAD301      0.0000 
      4 O5B       -13.9540  -59.5750   47.4850 O.3       1 NAD301      0.0000 
      5 C5B       -13.0900  -58.3790   47.4030 C.3       1 NAD301      0.0000 
      6 C4B       -12.8800  -57.8760   48.8100 C.3       1 NAD301      0.0000 
      7 O4B       -11.9450  -56.7610   48.8760 O.3       1 NAD301      0.0000 
      8 C3B       -14.1740  -57.4000   49.4970 C.3       1 NAD301      0.0000 
      9 O3B       -14.4700  -58.1560   50.6750 O.3       1 NAD301      0.0000 
     10 C2B       -13.8920  -55.9220   49.8000 C.3       1 NAD301      0.0000 
     11 O2B       -14.5620  -55.4760   50.9570 O.3       1 NAD301      0.0000 
     12 C1B       -12.3740  -55.9710   49.9610 C.3       1 NAD301      0.0000 
     13 N9A       -11.7630  -54.6440   49.9660 N.pl3     1 NAD301      0.0000 
     14 C8A       -11.8550  -53.6750   48.9900 C.2       1 NAD301      0.0000 
     15 N7A       -11.2570  -52.5510   49.3160 N.2       1 NAD301      0.0000 
     16 C5A       -10.7830  -52.7750   50.6050 C.ar      1 NAD301      0.0000 
     17 C6A       -10.0740  -51.9520   51.5060 C.ar      1 NAD301      0.0000 
     18 N6A        -9.7230  -50.6960   51.2380 N.pl3     1 NAD301      0.0000 
     19 N1A        -9.7560  -52.4730   52.7150 N.ar      1 NAD301      0.0000 
     20 C2A       -10.1080  -53.7420   52.9760 C.ar      1 NAD301      0.0000 
     21 N3A       -10.7970  -54.6000   52.2200 N.ar      1 NAD301      0.0000 
     22 C4A       -11.1080  -54.0530   51.0270 C.ar      1 NAD301      0.0000 
     23 O3        -14.7140  -60.7110   45.3540 O.3       1 NAD301      0.0000 
     24 PN        -13.7990  -62.0240   45.1930 P.3       1 NAD301      0.0000 
     25 O1N       -14.0840  -62.9620   46.3460 O.co2     1 NAD301      0.0000 
     26 O2N       -13.8610  -62.5200   43.7740 O.co2     1 NAD301      0.0000 
     27 O5D       -12.3700  -61.3320   45.4080 O.3       1 NAD301      0.0000 
     28 C5D       -11.4270  -61.9690   46.3290 C.3       1 NAD301      0.0000 
     29 C4D       -10.0790  -61.9840   45.6690 C.3       1 NAD301      0.0000 
     30 O4D       -10.0810  -63.0220   44.6640 O.3       1 NAD301      0.0000 
     31 C3D        -9.6600  -60.6850   44.9460 C.3       1 NAD301      0.0000 
     32 O3D        -8.2650  -60.4040   45.1490 O.3       1 NAD301      0.0000 
     33 C2D        -9.9750  -61.0240   43.4840 C.3       1 NAD301      0.0000 
     34 O2D        -9.2500  -60.1600   42.6220 O.3       1 NAD301      0.0000 
     35 C1D        -9.5030  -62.4860   43.4930 C.3       1 NAD301      0.0000 
     36 N1N        -9.9420  -63.3510   42.3670 N.pl3     1 NAD301      0.0000 
     37 C2N       -11.2560  -63.4260   42.0570 C.ar      1 NAD301      0.0000 
     38 C3N       -11.6430  -64.2750   41.0380 C.ar      1 NAD301      0.0000 
     39 C7N       -13.0540  -64.2480   40.5750 C.2       1 NAD301      0.0000 
     40 O7N       -13.2600  -64.6140   39.4390 O.2       1 NAD301      0.0000 
     41 N7N       -14.0070  -63.7990   41.3840 N.am      1 NAD301      0.0000 
     42 C4N       -10.6940  -65.0950   40.3700 C.ar      1 NAD301      0.0000 
     43 C5N        -9.3750  -64.9410   40.6490 C.ar      1 NAD301      0.0000 
     44 C6N        -9.0210  -64.1520   41.7220 C.ar      1 NAD301      0.0000 
     45 H51A      -12.2380  -58.6130   47.0030 H         1 NAD301      0.0000 
     46 H52A      -13.5250  -57.6930   46.8740 H         1 NAD301      0.0000 
     47 H4B       -12.5150  -58.6030   49.3390 H         1 NAD301      0.0000 
     48 H3B       -14.9120  -57.4660   48.8710 H         1 NAD301      0.0000 
     49 HO3A      -14.9470  -58.8290   50.4690 H         1 NAD301      0.0000 
     50 H2B       -14.1320  -55.3740   49.0370 H         1 NAD301      0.0000 
     51 HO2A      -14.3490  -55.9690   51.6160 H         1 NAD301      0.0000 
     52 H1B       -12.1570  -56.4280   50.7880 H         1 NAD301      0.0000 
     53 H8A       -12.2700  -53.8150   48.1700 H         1 NAD301      0.0000 
     54 H61A       -9.9770  -50.3260   50.5040 H         1 NAD301      0.0000 
     55 H62A       -9.2430  -50.2540   51.7980 H         1 NAD301      0.0000 
     56 H2A        -9.8770  -54.0530   53.8220 H         1 NAD301      0.0000 
     57 H51N      -11.7070  -62.8790   46.5130 H         1 NAD301      0.0000 
     58 H52N      -11.3870  -61.4640   47.1560 H         1 NAD301      0.0000 
     59 H4D        -9.4060  -62.1940   46.3350 H         1 NAD301      0.0000 
     60 H3D       -10.2060  -59.9410   45.2450 H         1 NAD301      0.0000 
     61 HO3N       -7.8290  -61.1330   45.1740 H         1 NAD301      0.0000 
     62 H2D       -10.9290  -60.9690   43.3180 H         1 NAD301      0.0000 
     63 HO2N       -9.5580  -59.3700   42.6850 H         1 NAD301      0.0000 
     64 H1D        -8.5360  -62.5100   43.5700 H         1 NAD301      0.0000 
     65 H2N       -11.8750  -62.8820   42.4860 H         1 NAD301      0.0000 
     66 H71N      -14.8230  -63.7800   41.1140 H         1 NAD301      0.0000 
     67 H72N      -13.8130  -63.5440   42.1820 H         1 NAD301      0.0000 
     68 H4N       -10.9550  -65.5990   39.6330 H         1 NAD301      0.0000 
     69 H5N        -8.7470  -65.5030   40.2560 H         1 NAD301      0.0000 
     70 H6N        -8.1330  -64.3820   41.6640 H         1 NAD301      0.0000 
@<TRIPOS>BOND
     1    1    2 ar   
     2    1    3 ar   
     3    1    4 1    
     4    1   23 1    
     5    4    5 1    
     6    5    6 1    
     7    5   45 1    
     8    5   46 1    
     9    6    7 1    
    10    6    8 1    
    11    6   47 1    
    12    7   12 1    
    13    8    9 1    
    14    8   10 1    
    15    8   48 1    
    16    9   49 1    
    17   10   11 1    
    18   10   12 1    
    19   10   50 1    
    20   11   51 1    
    21   12   13 1    
    22   12   52 1    
    23   13   14 1    
    24   13   22 1    
    25   14   15 2    
    26   15   16 1    
    27   14   53 1    
    28   16   17 ar   
    29   16   22 ar   
    30   17   18 1    
    31   17   19 ar   
    32   19   20 ar   
    33   18   54 1    
    34   18   55 1    
    35   20   21 ar   
    36   21   22 ar   
    37   20   56 1    
    38   23   24 1    
    39   24   25 ar   
    40   24   26 ar   
    41   24   27 1    
    42   27   28 1    
    43   28   29 1    
    44   28   57 1    
    45   28   58 1    
    46   29   30 1    
    47   29   31 1    
    48   29   59 1    
    49   30   35 1    
    50   31   32 1    
    51   31   33 1    
    52   31   60 1    
    53   32   61 1    
    54   33   34 1    
    55   33   35 1    
    56   33   62 1    
    57   34   63 1    
    58   35   36 1    
    59   35   64 1    
    60   36   37 ar   
    61   36   44 ar   
    62   37   38 ar   
    63   38   39 1    
    64   37   65 1    
    65   38   42 ar   
    66   39   40 2    
    67   39   41 am   
    68   42   43 ar   
    69   41   66 1    
    70   41   67 1    
    71   43   44 ar   
    72   42   68 1    
    73   43   69 1    
    74   44   70 1    
@<TRIPOS>SUBSTRUCTURE
     1 NAD301      1 GROUP   
@<TRIPOS>SET
ATOM$ORANGE STATIC     ATOMS   COLORGROUP SYSTEM 
42 5 5 6 6 8 8 10 10 12 12 14 14 16 16 17 17 20 \
20 22 22 28 28 29 29 31 31 33 33 35 35 37 37 38 38 39 \
39 42 42 43 43 44 44 

