#    Name: 6r9w_3_NAD_CAVITY_N1_8
#    Modification time : Fri May 22 19:26:01 2020

@<TRIPOS>MOLECULE
6r9w_3_NAD_CAVITY_N1_8
   68     0     6     0     0
SMALL
NO_CHARGES


@<TRIPOS>ATOM
      1 OG        -40.3700  -36.1300    5.8100 O.3       1 SER1        0.0000 
      2 OG        -39.9300  -34.5100    8.7200 O.3       1 SER1        0.0000 
      3 OG        -39.5200  -35.3000   10.6400 O.3       1 SER1        0.0000 
      4 N         -38.7700  -37.6400    7.1800 N.am      2 ALA2        0.0000 
      5 N         -39.9600  -36.9200    7.7400 N.am      2 ALA2        0.0000 
      6 N         -45.9200  -33.3000   10.4900 N.am      2 ALA2        0.0000 
      7 N         -39.1700  -38.8800    7.9300 N.am      2 ALA2        0.0000 
      8 N         -40.3600  -38.1500    8.4800 N.am      2 ALA2        0.0000 
      9 N         -39.1400  -36.4700    8.9100 N.am      2 ALA2        0.0000 
     10 O         -45.1000  -32.8500   11.6700 O.2       2 ALA2        0.0000 
     11 N         -46.3000  -32.1300   12.2200 N.am      2 ALA2        0.0000 
     12 O         -39.5500  -37.7100    9.6600 O.2       2 ALA2        0.0000 
     13 O         -40.7400  -36.9800   10.2100 O.2       2 ALA2        0.0000 
     14 N         -38.3300  -36.0300   10.0900 N.am      2 ALA2        0.0000 
     15 N         -44.2900  -32.4000   12.8500 N.am      2 ALA2        0.0000 
     16 N         -45.4800  -31.6800   13.4000 N.am      2 ALA2        0.0000 
     17 O         -39.9300  -36.5400   11.3900 O.2       2 ALA2        0.0000 
     18 N         -42.2800  -32.6800   13.4700 N.am      2 ALA2        0.0000 
     19 N         -43.4700  -31.9600   14.0200 N.am      2 ALA2        0.0000 
     20 OD1       -41.1200  -35.8100   11.9400 O.co2     3 ASP3        0.0000 
     21 OD1       -41.5200  -37.0500   12.6900 O.co2     3 ASP3        0.0000 
     22 OD1       -39.1100  -36.0900   12.5700 O.co2     3 ASP3        0.0000 
     23 OD1       -40.3000  -35.3700   13.1200 O.co2     3 ASP3        0.0000 
     24 OD1       -41.4900  -34.6400   13.6700 O.co2     3 ASP3        0.0000 
     25 OD1       -39.5100  -37.3300   13.3200 O.co2     3 ASP3        0.0000 
     26 CZ        -44.6900  -33.6400   13.6000 C.ar      4 PHE5        0.0000 
     27 CA        -41.5600  -35.4100    6.3600 C.3       5 GLY6        0.0000 
     28 CA        -39.5800  -38.0900    6.0100 C.3       5 GLY6        0.0000 
     29 CA        -41.9700  -36.6400    7.1100 C.3       5 GLY6        0.0000 
     30 CA        -41.9400  -34.2300    8.0900 C.3       5 GLY6        0.0000 
     31 CA        -43.1300  -33.5100    8.6400 C.3       5 GLY6        0.0000 
     32 CA        -42.3400  -35.4700    8.8400 C.3       5 GLY6        0.0000 
     33 CA        -43.5400  -34.7500    9.3900 C.3       5 GLY6        0.0000 
     34 CA        -44.7300  -34.0200    9.9400 C.3       5 GLY6        0.0000 
     35 CA        -45.1300  -35.2600   10.6900 C.3       5 GLY6        0.0000 
     36 CA        -46.3300  -34.5300   11.2400 C.3       5 GLY6        0.0000 
     37 CA        -45.5400  -36.4900   11.4400 C.3       5 GLY6        0.0000 
     38 CA        -41.1200  -33.7900    9.2700 C.3       5 GLY6        0.0000 
     39 CA        -44.7000  -31.6100   10.9200 C.3       5 GLY6        0.0000 
     40 CA        -42.7200  -34.3000   10.5700 C.3       5 GLY6        0.0000 
     41 CA        -43.9100  -33.5700   11.1200 C.3       5 GLY6        0.0000 
     42 CA        -46.7000  -33.3600   12.9700 C.3       5 GLY6        0.0000 
     43 CA        -41.1500  -38.2200   10.9600 C.3       5 GLY6        0.0000 
     44 CA        -41.5500  -39.4500   11.7100 C.3       5 GLY6        0.0000 
     45 CA        -40.3100  -33.3400   10.4400 C.3       5 GLY6        0.0000 
     46 CA        -43.8800  -31.1700   12.1000 C.3       5 GLY6        0.0000 
     47 CA        -41.9100  -33.8500   11.7400 C.3       5 GLY6        0.0000 
     48 CA        -43.1000  -33.1300   12.3000 C.3       5 GLY6        0.0000 
     49 CA        -40.3300  -37.7700   12.1400 C.3       5 GLY6        0.0000 
     50 CA        -40.6800  -32.1700   12.1700 C.3       5 GLY6        0.0000 
     51 CA        -41.8800  -31.4500   12.7200 C.3       5 GLY6        0.0000 
     52 CA        -38.7100  -34.8600   11.8200 C.3       5 GLY6        0.0000 
     53 CA        -39.9000  -34.1300   12.3700 C.3       5 GLY6        0.0000 
     54 CA        -41.0900  -33.4100   12.9200 C.3       5 GLY6        0.0000 
     55 CA        -42.6900  -33.9200   14.2200 C.3       5 GLY6        0.0000 
     56 DU        -40.7800  -37.3700    6.5600 H         6 CUB7        0.0000 
     57 DU        -41.1800  -38.6000    7.3100 H         6 CUB7        0.0000 
     58 DU        -41.1500  -36.1900    8.2900 H         6 CUB7        0.0000 
     59 DU        -41.5600  -37.4300    9.0400 H         6 CUB7        0.0000 
     60 DU        -43.1500  -37.9400   10.3400 H         6 CUB7        0.0000 
     61 DU        -44.3500  -37.2200   10.8900 H         6 CUB7        0.0000 
     62 DU        -43.5600  -39.1800   11.0900 H         6 CUB7        0.0000 
     63 DU        -40.3400  -35.7500    9.4600 H         6 CUB7        0.0000 
     64 DU        -41.5300  -35.0200   10.0200 H         6 CUB7        0.0000 
     65 DU        -45.5100  -34.0900   12.4200 H         6 CUB7        0.0000 
     66 DU        -42.3400  -37.4900   11.5100 H         6 CUB7        0.0000 
     67 DU        -42.7400  -38.7300   12.2600 H         6 CUB7        0.0000 
     68 DU        -40.7100  -34.5800   11.1900 H         6 CUB7        0.0000 
@<TRIPOS>BOND
@<TRIPOS>SUBSTRUCTURE
     1 SER1        1 GROUP   
     2 ALA2        4 GROUP   
     3 ASP3       20 GROUP   
     4 PHE5       26 GROUP   
     5 GLY6       27 GROUP   
     6 CUB7       56 GROUP   
@<TRIPOS>SET

