#    Name: 6r9w_6_NAD
#    Modification time : Fri May 22 19:26:11 2020

@<TRIPOS>MOLECULE
6r9w_6_NAD
   70    74     1     0     1
SMALL
NO_CHARGES


@<TRIPOS>ATOM
      1 PA         18.7260  -42.4090   33.5950 P.3       1 NAD301      0.0000 
      2 O1A        19.7700  -41.8700   32.6750 O.co2     1 NAD301      0.0000 
      3 O2A        18.6360  -41.8730   34.9860 O.co2     1 NAD301      0.0000 
      4 O5B        17.3100  -42.3440   32.8600 O.3       1 NAD301      0.0000 
      5 C5B        16.0620  -42.0920   33.5590 C.3       1 NAD301      0.0000 
      6 C4B        15.3200  -40.9740   32.8640 C.3       1 NAD301      0.0000 
      7 O4B        14.0340  -40.8080   33.5080 O.3       1 NAD301      0.0000 
      8 C3B        15.9750  -39.5760   32.9210 C.3       1 NAD301      0.0000 
      9 O3B        16.2290  -39.0250   31.6270 O.3       1 NAD301      0.0000 
     10 C2B        14.9540  -38.6940   33.6550 C.3       1 NAD301      0.0000 
     11 O2B        15.1040  -37.3220   33.2220 O.3       1 NAD301      0.0000 
     12 C1B        13.6710  -39.4640   33.3270 C.3       1 NAD301      0.0000 
     13 N9A        12.5080  -39.1680   34.1550 N.pl3     1 NAD301      0.0000 
     14 C8A        12.3470  -39.3540   35.5030 C.2       1 NAD301      0.0000 
     15 N7A        11.1810  -38.9390   35.9440 N.2       1 NAD301      0.0000 
     16 C5A        10.5340  -38.4550   34.8200 C.ar      1 NAD301      0.0000 
     17 C6A         9.2560  -37.8830   34.6210 C.ar      1 NAD301      0.0000 
     18 N6A         8.3790  -37.6490   35.5910 N.pl3     1 NAD301      0.0000 
     19 N1A         8.9370  -37.4880   33.3710 N.ar      1 NAD301      0.0000 
     20 C2A         9.8220  -37.6930   32.3880 C.ar      1 NAD301      0.0000 
     21 N3A        11.0420  -38.2300   32.4540 N.ar      1 NAD301      0.0000 
     22 C4A        11.3430  -38.5860   33.7140 C.ar      1 NAD301      0.0000 
     23 O3         18.9030  -43.9880   33.6840 O.3       1 NAD301      0.0000 
     24 PN         18.8080  -45.1400   32.5720 P.3       1 NAD301      0.0000 
     25 O1N        19.3570  -46.3890   33.1760 O.co2     1 NAD301      0.0000 
     26 O2N        19.4340  -44.7230   31.2750 O.co2     1 NAD301      0.0000 
     27 O5D        17.1960  -45.2750   32.4460 O.3       1 NAD301      0.0000 
     28 C5D        16.4860  -45.4030   31.1910 C.3       1 NAD301      0.0000 
     29 C4D        15.5090  -46.5460   31.2690 C.3       1 NAD301      0.0000 
     30 O4D        16.2540  -47.7710   31.1690 O.3       1 NAD301      0.0000 
     31 C3D        14.6650  -46.6930   32.5480 C.3       1 NAD301      0.0000 
     32 O3D        13.3780  -47.2330   32.2620 O.3       1 NAD301      0.0000 
     33 C2D        15.4050  -47.7870   33.3180 C.3       1 NAD301      0.0000 
     34 O2D        14.5550  -48.4550   34.2360 O.3       1 NAD301      0.0000 
     35 C1D        15.7780  -48.6800   32.1480 C.3       1 NAD301      0.0000 
     36 N1N        16.8520  -49.6590   32.4380 N.pl3     1 NAD301      0.0000 
     37 C2N        17.9560  -49.2670   33.1450 C.ar      1 NAD301      0.0000 
     38 C3N        19.0550  -50.1220   33.2540 C.ar      1 NAD301      0.0000 
     39 C7N        20.2680  -49.6110   33.9970 C.2       1 NAD301      0.0000 
     40 O7N        21.1770  -50.3900   34.3040 O.2       1 NAD301      0.0000 
     41 N7N        20.3030  -48.3080   34.2850 N.am      1 NAD301      0.0000 
     42 C4N        18.9550  -51.3990   32.6970 C.ar      1 NAD301      0.0000 
     43 C5N        17.7220  -51.8450   32.2300 C.ar      1 NAD301      0.0000 
     44 C6N        16.7450  -50.9210   31.9630 C.ar      1 NAD301      0.0000 
     45 H51A       15.5200  -42.8960   33.5570 H         1 NAD301      0.0000 
     46 H52A       16.2490  -41.8300   34.4740 H         1 NAD301      0.0000 
     47 H4B        15.1790  -41.2130   31.9350 H         1 NAD301      0.0000 
     48 H3B        16.7980  -39.6220   33.4330 H         1 NAD301      0.0000 
     49 HO3A       15.5070  -38.7120   31.3050 H         1 NAD301      0.0000 
     50 H2B        15.1180  -38.7460   34.6100 H         1 NAD301      0.0000 
     51 HO2A       15.7330  -36.9540   33.6600 H         1 NAD301      0.0000 
     52 H1B        13.4470  -39.3210   32.3940 H         1 NAD301      0.0000 
     53 H8A        13.0010  -39.7240   36.0510 H         1 NAD301      0.0000 
     54 H61A        7.6230  -37.2820   35.4080 H         1 NAD301      0.0000 
     55 H62A        8.5670  -37.8640   36.4020 H         1 NAD301      0.0000 
     56 H2A         9.5520  -37.4150   31.5430 H         1 NAD301      0.0000 
     57 H51N       17.1240  -45.5770   30.4810 H         1 NAD301      0.0000 
     58 H52N       16.0120  -44.5780   31.0040 H         1 NAD301      0.0000 
     59 H4D        14.9040  -46.4870   30.5130 H         1 NAD301      0.0000 
     60 H3D        14.6170  -45.8650   33.0510 H         1 NAD301      0.0000 
     61 HO3N       12.9320  -46.6750   31.8020 H         1 NAD301      0.0000 
     62 H2D        16.1840  -47.4190   33.7600 H         1 NAD301      0.0000 
     63 HO2N       14.4860  -47.9950   34.9470 H         1 NAD301      0.0000 
     64 H1D        14.9870  -49.1350   31.8190 H         1 NAD301      0.0000 
     65 H2N        18.0430  -48.3720   33.3600 H         1 NAD301      0.0000 
     66 H71N       19.6640  -47.7840   34.0610 H         1 NAD301      0.0000 
     67 H72N       20.9820  -47.9890   34.7060 H         1 NAD301      0.0000 
     68 H4N        19.5970  -52.0320   32.9250 H         1 NAD301      0.0000 
     69 H5N        17.6630  -52.6860   31.8390 H         1 NAD301      0.0000 
     70 H6N        16.2040  -51.5260   31.5270 H         1 NAD301      0.0000 
@<TRIPOS>BOND
     1    1    2 ar   
     2    1    3 ar   
     3    1    4 1    
     4    1   23 1    
     5    4    5 1    
     6    5    6 1    
     7    5   45 1    
     8    5   46 1    
     9    6    7 1    
    10    6    8 1    
    11    6   47 1    
    12    7   12 1    
    13    8    9 1    
    14    8   10 1    
    15    8   48 1    
    16    9   49 1    
    17   10   11 1    
    18   10   12 1    
    19   10   50 1    
    20   12   13 1    
    21   11   51 1    
    22   12   52 1    
    23   13   14 1    
    24   13   22 1    
    25   14   15 2    
    26   15   16 1    
    27   14   53 1    
    28   16   17 ar   
    29   16   22 ar   
    30   17   18 1    
    31   17   19 ar   
    32   19   20 ar   
    33   18   54 1    
    34   18   55 1    
    35   20   21 ar   
    36   21   22 ar   
    37   20   56 1    
    38   23   24 1    
    39   24   25 ar   
    40   24   26 ar   
    41   24   27 1    
    42   41   66 1    
    43   27   28 1    
    44   28   29 1    
    45   28   57 1    
    46   28   58 1    
    47   29   30 1    
    48   29   31 1    
    49   29   59 1    
    50   30   35 1    
    51   31   32 1    
    52   31   33 1    
    53   31   60 1    
    54   32   61 1    
    55   33   34 1    
    56   33   35 1    
    57   33   62 1    
    58   34   63 1    
    59   35   36 1    
    60   35   64 1    
    61   36   37 ar   
    62   36   44 ar   
    63   37   38 ar   
    64   38   39 1    
    65   37   65 1    
    66   38   42 ar   
    67   39   40 2    
    68   39   41 am   
    69   42   43 ar   
    70   41   67 1    
    71   43   44 ar   
    72   42   68 1    
    73   43   69 1    
    74   44   70 1    
@<TRIPOS>SUBSTRUCTURE
     1 NAD301      1 GROUP   
@<TRIPOS>SET
ATOM$ORANGE STATIC     ATOMS   COLORGROUP SYSTEM 
42 5 5 6 6 8 8 10 10 12 12 14 14 16 16 17 17 20 \
20 22 22 28 28 29 29 31 31 33 33 35 35 37 37 38 38 39 \
39 42 42 43 43 44 44 

