#    Name: 6evy_12_GTP
#    Modification time : Fri May 22 19:35:12 2020

@<TRIPOS>MOLECULE
6evy_12_GTP
   32    34     1     0     1
SMALL
NO_CHARGES


@<TRIPOS>ATOM
      1 PG         75.8820   49.5200   63.0620 P.3       1 GTP501      0.0000 
      2 O1G        75.6990   48.0860   63.3910 O.co2     1 GTP501      0.0000 
      3 O2G        74.8150   50.4320   63.6490 O.co2     1 GTP501      0.0000 
      4 O3G        77.2500   50.0580   63.4410 O.co2     1 GTP501      0.0000 
      5 O3B        75.7780   49.7030   61.4880 O.3       1 GTP501      0.0000 
      6 PB         76.8960   49.5880   60.3660 P.3       1 GTP501      0.0000 
      7 O1B        76.2420   49.1830   59.0620 O.co2     1 GTP501      0.0000 
      8 O2B        77.6320   50.8570   60.2300 O.co2     1 GTP501      0.0000 
      9 O3A        77.8820   48.4310   60.8270 O.3       1 GTP501      0.0000 
     10 PA         79.2560   47.9590   60.1810 P.3       1 GTP501      0.0000 
     11 O1A        79.1410   48.1420   58.6840 O.co2     1 GTP501      0.0000 
     12 O2A        80.3420   48.8110   60.6880 O.co2     1 GTP501      0.0000 
     13 O5'        79.4380   46.4140   60.4630 O.3       1 GTP501      0.0000 
     14 C5'        80.7070   45.7390   60.5520 C.3       1 GTP501      0.0000 
     15 C4'        81.1410   45.3350   59.1680 C.3       1 GTP501      0.0000 
     16 O4'        81.7380   46.4650   58.4940 O.3       1 GTP501      0.0000 
     17 C3'        82.1710   44.2050   59.1100 C.3       1 GTP501      0.0000 
     18 O3'        81.8430   43.2860   58.0760 O.3       1 GTP501      0.0000 
     19 C2'        83.4760   44.9440   58.8100 C.3       1 GTP501      0.0000 
     20 O2'        84.3890   44.1390   58.0770 O.3       1 GTP501      0.0000 
     21 C1'        82.9640   46.0620   57.9200 C.3       1 GTP501      0.0000 
     22 N9         83.8540   47.2240   57.8550 N.pl3     1 GTP501      0.0000 
     23 C8         84.0480   48.1790   58.8110 C.2       1 GTP501      0.0000 
     24 N7         84.8530   49.1370   58.4250 N.2       1 GTP501      0.0000 
     25 C5         85.2130   48.7820   57.1370 C.2       1 GTP501      0.0000 
     26 C6         86.0490   49.4320   56.1920 C.2       1 GTP501      0.0000 
     27 O6         86.6720   50.4780   56.3480 O.2       1 GTP501      0.0000 
     28 N1         86.1380   48.7350   55.0080 N.am      1 GTP501      0.0000 
     29 C2         85.5140   47.5500   54.7480 C.2       1 GTP501      0.0000 
     30 N2         85.7290   46.9990   53.5550 N.pl3     1 GTP501      0.0000 
     31 N3         84.7260   46.9350   55.6250 N.2       1 GTP501      0.0000 
     32 C4         84.6160   47.6030   56.7820 C.2       1 GTP501      0.0000 
@<TRIPOS>BOND
     1    1    2 ar   
     2    1    3 ar   
     3    1    4 ar   
     4    1    5 1    
     5    5    6 1    
     6    6    7 ar   
     7    6    8 ar   
     8    6    9 1    
     9    9   10 1    
    10   10   11 ar   
    11   10   12 ar   
    12   10   13 1    
    13   13   14 1    
    14   14   15 1    
    15   15   16 1    
    16   15   17 1    
    17   16   21 1    
    18   17   18 1    
    19   17   19 1    
    20   19   20 1    
    21   19   21 1    
    22   21   22 1    
    23   22   23 1    
    24   22   32 1    
    25   23   24 2    
    26   24   25 1    
    27   25   26 1    
    28   25   32 2    
    29   26   27 2    
    30   26   28 am   
    31   28   29 1    
    32   29   30 1    
    33   29   31 2    
    34   31   32 1    
@<TRIPOS>SUBSTRUCTURE
     1 GTP501      1 GROUP   
@<TRIPOS>SET
ATOM$ORANGE STATIC     ATOMS   COLORGROUP SYSTEM 
20 14 14 15 15 17 17 19 19 21 21 23 23 25 25 26 26 29 \
29 32 32 

