#    Name: 6evy_1_GSP
#    Modification time : Fri May 22 19:33:20 2020

@<TRIPOS>MOLECULE
6evy_1_GSP
   32    34     1     0     0
SMALL
NO_CHARGES


@<TRIPOS>ATOM
      1 PG         49.4550   96.0400  114.4680 P.3       1 GSP501      0.0000 
      2 O3B        49.3970   96.1430  112.9160 O.3       1 GSP501      0.0000 
      3 S1G        51.1420   96.2460  115.3150 S.2       1 GSP501      0.0000 
      4 O2G        48.3900   97.0710  114.9990 O.3       1 GSP501      0.0000 
      5 O3G        48.6140   94.7680  114.8050 O.3       1 GSP501      0.0000 
      6 PB         48.3530   95.3950  111.9790 P.3       1 GSP501      0.0000 
      7 O1B        48.2440   96.0980  110.6410 O.co2     1 GSP501      0.0000 
      8 O2B        47.0550   95.2990  112.6630 O.co2     1 GSP501      0.0000 
      9 PA         50.4980   93.7410  111.2500 P.3       1 GSP501      0.0000 
     10 O1A        50.7300   94.8720  110.2680 O.co2     1 GSP501      0.0000 
     11 O2A        51.4210   93.8940  112.3870 O.co2     1 GSP501      0.0000 
     12 O3A        49.0090   93.9640  111.7580 O.3       1 GSP501      0.0000 
     13 O5'        50.6590   92.3610  110.4310 O.3       1 GSP501      0.0000 
     14 C5'        50.8720   91.0800  111.0580 C.3       1 GSP501      0.0000 
     15 C4'        50.6160   90.0260  110.0120 C.3       1 GSP501      0.0000 
     16 O4'        51.5950   90.1490  108.9610 O.3       1 GSP501      0.0000 
     17 C3'        50.7380   88.5910  110.4850 C.3       1 GSP501      0.0000 
     18 O3'        49.9930   87.7210  109.6420 O.3       1 GSP501      0.0000 
     19 C2'        52.2350   88.3360  110.3450 C.3       1 GSP501      0.0000 
     20 O2'        52.4900   86.9520  110.1430 O.3       1 GSP501      0.0000 
     21 C1'        52.5570   89.1160  109.0710 C.3       1 GSP501      0.0000 
     22 N9         53.8820   89.7350  109.0900 N.pl3     1 GSP501      0.0000 
     23 C8         54.4420   90.4510  110.1080 C.2       1 GSP501      0.0000 
     24 N7         55.6320   90.9140  109.8160 N.2       1 GSP501      0.0000 
     25 C5         55.8640   90.4710  108.5260 C.2       1 GSP501      0.0000 
     26 C6         56.9760   90.6610  107.6590 C.2       1 GSP501      0.0000 
     27 O6         58.0060   91.2890  107.8920 O.2       1 GSP501      0.0000 
     28 N1         56.7980   90.0430  106.4430 N.am      1 GSP501      0.0000 
     29 C2         55.6940   89.3260  106.0820 C.2       1 GSP501      0.0000 
     30 N2         55.6920   88.7870  104.8640 N.pl3     1 GSP501      0.0000 
     31 N3         54.6480   89.1460  106.8810 N.2       1 GSP501      0.0000 
     32 C4         54.7970   89.7410  108.0720 C.2       1 GSP501      0.0000 
@<TRIPOS>BOND
     1    1    2 1    
     2    1    3 2    
     3    1    4 1    
     4    1    5 1    
     5    2    6 1    
     6    6    7 ar   
     7    6    8 ar   
     8    6   12 1    
     9    9   10 ar   
    10    9   11 ar   
    11    9   12 1    
    12    9   13 1    
    13   13   14 1    
    14   14   15 1    
    15   15   16 1    
    16   15   17 1    
    17   16   21 1    
    18   17   18 1    
    19   17   19 1    
    20   19   20 1    
    21   19   21 1    
    22   21   22 1    
    23   22   23 1    
    24   22   32 1    
    25   23   24 2    
    26   24   25 1    
    27   25   26 1    
    28   25   32 2    
    29   26   27 2    
    30   26   28 am   
    31   28   29 1    
    32   29   30 1    
    33   29   31 2    
    34   31   32 1    
@<TRIPOS>SUBSTRUCTURE
     1 GSP501      1 GROUP   
@<TRIPOS>SET

