#    Name: 6evy_10_GTP
#    Modification time : Fri May 22 19:34:49 2020

@<TRIPOS>MOLECULE
6evy_10_GTP
   32    34     1     0     1
SMALL
NO_CHARGES


@<TRIPOS>ATOM
      1 PG         44.7870  149.8430   81.9590 P.3       1 GTP501      0.0000 
      2 O1G        43.6530  148.8910   82.2780 O.co2     1 GTP501      0.0000 
      3 O2G        46.0770  149.1720   82.3580 O.co2     1 GTP501      0.0000 
      4 O3G        44.6100  151.2080   82.5180 O.co2     1 GTP501      0.0000 
      5 O3B        44.8240  149.9140   80.3740 O.3       1 GTP501      0.0000 
      6 PB         45.3680  148.8940   79.2870 P.3       1 GTP501      0.0000 
      7 O1B        44.6800  149.1740   77.9690 O.co2     1 GTP501      0.0000 
      8 O2B        46.8320  148.9970   79.1630 O.co2     1 GTP501      0.0000 
      9 O3A        44.9600  147.4380   79.7700 O.3       1 GTP501      0.0000 
     10 PA         45.4160  146.0350   79.1790 P.3       1 GTP501      0.0000 
     11 O1A        45.9370  146.2760   77.7770 O.co2     1 GTP501      0.0000 
     12 O2A        46.4980  145.4950   80.0120 O.co2     1 GTP501      0.0000 
     13 O5'        44.1400  145.1130   79.0720 O.3       1 GTP501      0.0000 
     14 C5'        44.1480  143.6900   79.2910 C.3       1 GTP501      0.0000 
     15 C4'        44.1550  143.0040   77.9510 C.3       1 GTP501      0.0000 
     16 O4'        45.4540  143.1510   77.3350 O.3       1 GTP501      0.0000 
     17 C3'        43.8540  141.5030   77.9810 C.3       1 GTP501      0.0000 
     18 O3'        42.9100  141.1660   76.9730 O.3       1 GTP501      0.0000 
     19 C2'        45.2190  140.8660   77.7080 C.3       1 GTP501      0.0000 
     20 O2'        45.1020  139.6350   77.0080 O.3       1 GTP501      0.0000 
     21 C1'        45.8390  141.9070   76.7940 C.3       1 GTP501      0.0000 
     22 N9         47.3010  141.8530   76.7400 N.pl3     1 GTP501      0.0000 
     23 C8         48.1830  142.2900   77.6860 C.2       1 GTP501      0.0000 
     24 N7         49.4340  142.1720   77.3150 N.2       1 GTP501      0.0000 
     25 C5         49.3640  141.6200   76.0490 C.2       1 GTP501      0.0000 
     26 C6         50.3850  141.2830   75.1260 C.2       1 GTP501      0.0000 
     27 O6         51.5960  141.3850   75.2920 O.2       1 GTP501      0.0000 
     28 N1         49.8810  140.7670   73.9540 N.am      1 GTP501      0.0000 
     29 C2         48.5550  140.5810   73.6870 C.2       1 GTP501      0.0000 
     30 N2         48.2420  140.0640   72.5000 N.pl3     1 GTP501      0.0000 
     31 N3         47.5890  140.8920   74.5460 N.2       1 GTP501      0.0000 
     32 C4         48.0600  141.4090   75.6900 C.2       1 GTP501      0.0000 
@<TRIPOS>BOND
     1    1    2 ar   
     2    1    3 ar   
     3    1    4 ar   
     4    1    5 1    
     5    5    6 1    
     6    6    7 ar   
     7    6    8 ar   
     8    6    9 1    
     9    9   10 1    
    10   10   11 ar   
    11   10   12 ar   
    12   10   13 1    
    13   13   14 1    
    14   14   15 1    
    15   15   16 1    
    16   15   17 1    
    17   16   21 1    
    18   17   18 1    
    19   17   19 1    
    20   19   20 1    
    21   19   21 1    
    22   21   22 1    
    23   22   23 1    
    24   22   32 1    
    25   23   24 2    
    26   24   25 1    
    27   25   26 1    
    28   25   32 2    
    29   26   27 2    
    30   26   28 am   
    31   28   29 1    
    32   29   30 1    
    33   29   31 2    
    34   31   32 1    
@<TRIPOS>SUBSTRUCTURE
     1 GTP501      1 GROUP   
@<TRIPOS>SET
ATOM$ORANGE STATIC     ATOMS   COLORGROUP SYSTEM 
20 14 14 15 15 17 17 19 19 21 21 23 23 25 25 26 26 29 \
29 32 32 

