#    Name: 6evy_4_GSP
#    Modification time : Fri May 22 19:33:50 2020

@<TRIPOS>MOLECULE
6evy_4_GSP
   32    34     1     0     0
SMALL
NO_CHARGES


@<TRIPOS>ATOM
      1 PG         46.1990  149.2300  205.9900 P.3       1 GSP501      0.0000 
      2 O3B        46.1750  149.3280  204.4350 O.3       1 GSP501      0.0000 
      3 S1G        47.7990  148.6340  206.8240 S.2       1 GSP501      0.0000 
      4 O2G        45.7620  150.6480  206.5110 O.3       1 GSP501      0.0000 
      5 O3G        44.8630  148.5100  206.3600 O.3       1 GSP501      0.0000 
      6 PB         44.9060  149.1210  203.5000 P.3       1 GSP501      0.0000 
      7 O1B        45.1180  149.7890  202.1580 O.co2     1 GSP501      0.0000 
      8 O2B        43.7050  149.6230  204.1800 O.co2     1 GSP501      0.0000 
      9 PA         46.0180  146.6480  202.7270 P.3       1 GSP501      0.0000 
     10 O1A        46.7600  147.5410  201.7540 O.co2     1 GSP501      0.0000 
     11 O2A        46.9140  146.3050  203.8440 O.co2     1 GSP501      0.0000 
     12 O3A        44.8290  147.5500  203.2740 O.3       1 GSP501      0.0000 
     13 O5'        45.4550  145.3840  201.8910 O.3       1 GSP501      0.0000 
     14 C5'        45.0570  144.1430  202.5080 C.3       1 GSP501      0.0000 
     15 C4'        44.3590  143.3120  201.4630 C.3       1 GSP501      0.0000 
     16 O4'        45.3060  142.9270  200.4450 O.3       1 GSP501      0.0000 
     17 C3'        43.7740  142.0030  201.9570 C.3       1 GSP501      0.0000 
     18 O3'        42.7330  141.5660  201.0930 O.3       1 GSP501      0.0000 
     19 C2'        44.9760  141.0680  201.8740 C.3       1 GSP501      0.0000 
     20 O2'        44.5550  139.7210  201.7160 O.3       1 GSP501      0.0000 
     21 C1'        45.6530  141.5630  200.5950 C.3       1 GSP501      0.0000 
     22 N9         47.1120  141.4740  200.6430 N.pl3     1 GSP501      0.0000 
     23 C8         47.9140  141.8050  201.6960 C.2       1 GSP501      0.0000 
     24 N7         49.1900  141.6660  201.4330 N.2       1 GSP501      0.0000 
     25 C5         49.2230  141.2140  200.1260 C.2       1 GSP501      0.0000 
     26 C6         50.3200  140.8970  199.2750 C.2       1 GSP501      0.0000 
     27 O6         51.5160  140.9700  199.5410 O.2       1 GSP501      0.0000 
     28 N1         49.9080  140.4780  198.0310 N.am      1 GSP501      0.0000 
     29 C2         48.6070  140.3690  197.6320 C.2       1 GSP501      0.0000 
     30 N2         48.3890  139.9380  196.3910 N.pl3     1 GSP501      0.0000 
     31 N3         47.5750  140.6660  198.4150 N.2       1 GSP501      0.0000 
     32 C4         47.9520  141.0830  199.6320 C.2       1 GSP501      0.0000 
@<TRIPOS>BOND
     1    1    2 1    
     2    1    3 2    
     3    1    4 1    
     4    1    5 1    
     5    2    6 1    
     6    6    7 ar   
     7    6    8 ar   
     8    6   12 1    
     9    9   10 ar   
    10    9   11 ar   
    11    9   12 1    
    12    9   13 1    
    13   13   14 1    
    14   14   15 1    
    15   15   16 1    
    16   15   17 1    
    17   16   21 1    
    18   17   18 1    
    19   17   19 1    
    20   19   20 1    
    21   19   21 1    
    22   21   22 1    
    23   22   23 1    
    24   22   32 1    
    25   23   24 2    
    26   24   25 1    
    27   25   26 1    
    28   25   32 2    
    29   26   27 2    
    30   26   28 am   
    31   28   29 1    
    32   29   30 1    
    33   29   31 2    
    34   31   32 1    
@<TRIPOS>SUBSTRUCTURE
     1 GSP501      1 GROUP   
@<TRIPOS>SET

