#    Name: 6evy_7_GTP
#    Modification time : Fri May 22 19:34:13 2020

@<TRIPOS>MOLECULE
6evy_7_GTP
   32    34     1     0     1
SMALL
NO_CHARGES


@<TRIPOS>ATOM
      1 PG         47.9030   95.7120  154.6830 P.3       1 GTP501      0.0000 
      2 O1G        49.3850   95.8110  154.9950 O.co2     1 GTP501      0.0000 
      3 O2G        47.2950   94.4340  155.1350 O.co2     1 GTP501      0.0000 
      4 O3G        47.2040   96.9530  155.2240 O.co2     1 GTP501      0.0000 
      5 O3B        47.8140   95.8090  153.1000 O.3       1 GTP501      0.0000 
      6 PB         48.8440   95.2520  152.0260 P.3       1 GTP501      0.0000 
      7 O1B        48.1450   95.1910  150.6870 O.co2     1 GTP501      0.0000 
      8 O2B        50.0380   96.1100  151.9720 O.co2     1 GTP501      0.0000 
      9 O3A        49.2640   93.7830  152.4630 O.3       1 GTP501      0.0000 
     10 PA         50.3210   92.7900  151.8100 P.3       1 GTP501      0.0000 
     11 O1A        50.5980   93.2840  150.4060 O.co2     1 GTP501      0.0000 
     12 O2A        51.5690   92.8220  152.5850 O.co2     1 GTP501      0.0000 
     13 O5'        49.6430   91.3650  151.7080 O.3       1 GTP501      0.0000 
     14 C5'        50.3300   90.1140  151.9010 C.3       1 GTP501      0.0000 
     15 C4'        50.6350   89.5360  150.5440 C.3       1 GTP501      0.0000 
     16 O4'        51.7150   90.2740  149.9320 O.3       1 GTP501      0.0000 
     17 C3'        51.0520   88.0630  150.5340 C.3       1 GTP501      0.0000 
     18 O3'        50.3530   87.3600  149.5150 O.3       1 GTP501      0.0000 
     19 C2'        52.5530   88.1240  150.2420 C.3       1 GTP501      0.0000 
     20 O2'        52.9920   86.9870  149.5100 O.3       1 GTP501      0.0000 
     21 C1'        52.6220   89.3590  149.3600 C.3       1 GTP501      0.0000 
     22 N9         53.9450   89.9880  149.3080 N.pl3     1 GTP501      0.0000 
     23 C8         54.5260   90.7820  150.2530 C.2       1 GTP501      0.0000 
     24 N7         55.6770   91.2780  149.8730 N.2       1 GTP501      0.0000 
     25 C5         55.8630   90.7700  148.6000 C.2       1 GTP501      0.0000 
     26 C6         56.9100   90.9680  147.6640 C.2       1 GTP501      0.0000 
     27 O6         57.9150   91.6570  147.8080 O.2       1 GTP501      0.0000 
     28 N1         56.6980   90.2770  146.4910 N.am      1 GTP501      0.0000 
     29 C2         55.6180   89.4830  146.2350 C.2       1 GTP501      0.0000 
     30 N2         55.5730   88.8850  145.0450 N.pl3     1 GTP501      0.0000 
     31 N3         54.6310   89.2930  147.1040 N.2       1 GTP501      0.0000 
     32 C4         54.8120   89.9650  148.2480 C.2       1 GTP501      0.0000 
@<TRIPOS>BOND
     1    1    2 ar   
     2    1    3 ar   
     3    1    4 ar   
     4    1    5 1    
     5    5    6 1    
     6    6    7 ar   
     7    6    8 ar   
     8    6    9 1    
     9    9   10 1    
    10   10   11 ar   
    11   10   12 ar   
    12   10   13 1    
    13   13   14 1    
    14   14   15 1    
    15   15   16 1    
    16   15   17 1    
    17   16   21 1    
    18   17   18 1    
    19   17   19 1    
    20   19   20 1    
    21   19   21 1    
    22   21   22 1    
    23   22   23 1    
    24   22   32 1    
    25   23   24 2    
    26   24   25 1    
    27   25   26 1    
    28   25   32 2    
    29   26   27 2    
    30   26   28 am   
    31   28   29 1    
    32   29   30 1    
    33   29   31 2    
    34   31   32 1    
@<TRIPOS>SUBSTRUCTURE
     1 GTP501      1 GROUP   
@<TRIPOS>SET
ATOM$ORANGE STATIC     ATOMS   COLORGROUP SYSTEM 
20 14 14 15 15 17 17 19 19 21 21 23 23 25 25 26 26 29 \
29 32 32 

