#    Name: 6evy_9_GTP
#    Modification time : Fri May 22 19:34:37 2020

@<TRIPOS>MOLECULE
6evy_9_GTP
   32    34     1     0     1
SMALL
NO_CHARGES


@<TRIPOS>ATOM
      1 PG         44.7760  150.1500  163.8710 P.3       1 GTP501      0.0000 
      2 O1G        46.0900  150.8190  163.6690 O.co2     1 GTP501      0.0000 
      3 O2G        44.8580  148.8830  164.6210 O.co2     1 GTP501      0.0000 
      4 O3G        43.7970  151.1800  164.4070 O.co2     1 GTP501      0.0000 
      5 O3B        44.3560  149.8210  162.3780 O.3       1 GTP501      0.0000 
      6 PB         45.1730  148.9630  161.3210 P.3       1 GTP501      0.0000 
      7 O1B        44.5470  149.1560  159.9600 O.co2     1 GTP501      0.0000 
      8 O2B        46.6070  149.3130  161.3330 O.co2     1 GTP501      0.0000 
      9 O3A        44.9780  147.4620  161.7960 O.3       1 GTP501      0.0000 
     10 PA         45.6260  146.1520  161.1770 P.3       1 GTP501      0.0000 
     11 O1A        46.3950  146.5680  159.9370 O.co2     1 GTP501      0.0000 
     12 O2A        46.5440  145.5590  162.1600 O.co2     1 GTP501      0.0000 
     13 O5'        44.4090  145.2490  160.7440 O.3       1 GTP501      0.0000 
     14 C5'        44.2570  143.8680  161.1160 C.3       1 GTP501      0.0000 
     15 C4'        44.2100  143.0540  159.8510 C.3       1 GTP501      0.0000 
     16 O4'        45.4820  143.1450  159.1710 O.3       1 GTP501      0.0000 
     17 C3'        43.9240  141.5630  160.0390 C.3       1 GTP501      0.0000 
     18 O3'        42.9770  141.1170  159.0780 O.3       1 GTP501      0.0000 
     19 C2'        45.2930  140.9160  159.8220 C.3       1 GTP501      0.0000 
     20 O2'        45.1820  139.6120  159.2680 O.3       1 GTP501      0.0000 
     21 C1'        45.8880  141.8510  158.7840 C.3       1 GTP501      0.0000 
     22 N9         47.3510  141.8210  158.7330 N.pl3     1 GTP501      0.0000 
     23 C8         48.2220  142.2910  159.6710 C.2       1 GTP501      0.0000 
     24 N7         49.4760  142.1790  159.3110 N.2       1 GTP501      0.0000 
     25 C5         49.4190  141.5950  158.0580 C.2       1 GTP501      0.0000 
     26 C6         50.4490  141.2450  157.1510 C.2       1 GTP501      0.0000 
     27 O6         51.6580  141.3640  157.3210 O.2       1 GTP501      0.0000 
     28 N1         49.9570  140.6960  155.9880 N.am      1 GTP501      0.0000 
     29 C2         48.6350  140.4930  155.7170 C.2       1 GTP501      0.0000 
     30 N2         48.3340  139.9470  154.5400 N.pl3     1 GTP501      0.0000 
     31 N3         47.6610  140.8160  156.5620 N.2       1 GTP501      0.0000 
     32 C4         48.1190  141.3620  157.6970 C.2       1 GTP501      0.0000 
@<TRIPOS>BOND
     1    1    2 ar   
     2    1    3 ar   
     3    1    4 ar   
     4    1    5 1    
     5    5    6 1    
     6    6    7 ar   
     7    6    8 ar   
     8    6    9 1    
     9    9   10 1    
    10   10   11 ar   
    11   10   12 ar   
    12   10   13 1    
    13   13   14 1    
    14   14   15 1    
    15   15   16 1    
    16   15   17 1    
    17   16   21 1    
    18   17   18 1    
    19   17   19 1    
    20   19   20 1    
    21   19   21 1    
    22   21   22 1    
    23   22   23 1    
    24   22   32 1    
    25   23   24 2    
    26   24   25 1    
    27   25   26 1    
    28   25   32 2    
    29   26   27 2    
    30   26   28 am   
    31   28   29 1    
    32   29   30 1    
    33   29   31 2    
    34   31   32 1    
@<TRIPOS>SUBSTRUCTURE
     1 GTP501      1 GROUP   
@<TRIPOS>SET
ATOM$ORANGE STATIC     ATOMS   COLORGROUP SYSTEM 
20 14 14 15 15 17 17 19 19 21 21 23 23 25 25 26 26 29 \
29 32 32 

