#    Name: 6evy_3_GSP
#    Modification time : Fri May 22 19:33:44 2020

@<TRIPOS>MOLECULE
6evy_3_GSP
   32    34     1     0     0
SMALL
NO_CHARGES


@<TRIPOS>ATOM
      1 PG         46.1500  149.2720  123.8770 P.3       1 GSP501      0.0000 
      2 O3B        46.1440  149.4430  122.3290 O.3       1 GSP501      0.0000 
      3 S1G        47.7480  148.6640  124.7040 S.2       1 GSP501      0.0000 
      4 O2G        45.6760  150.6530  124.4630 O.3       1 GSP501      0.0000 
      5 O3G        44.8220  148.5100  124.1870 O.3       1 GSP501      0.0000 
      6 PB         44.8790  149.2260  121.3920 P.3       1 GSP501      0.0000 
      7 O1B        45.0920  149.8670  120.0340 O.co2     1 GSP501      0.0000 
      8 O2B        43.6800  149.7350  122.0640 O.co2     1 GSP501      0.0000 
      9 PA         46.0140  146.7490  120.6960 P.3       1 GSP501      0.0000 
     10 O1A        46.7520  147.6330  119.7140 O.co2     1 GSP501      0.0000 
     11 O2A        46.9010  146.4400  121.8300 O.co2     1 GSP501      0.0000 
     12 O3A        44.8100  147.6500  121.2090 O.3       1 GSP501      0.0000 
     13 O5'        45.4700  145.4720  119.8740 O.3       1 GSP501      0.0000 
     14 C5'        45.0600  144.2390  120.4990 C.3       1 GSP501      0.0000 
     15 C4'        44.3700  143.4060  119.4510 C.3       1 GSP501      0.0000 
     16 O4'        45.3170  143.0500  118.4240 O.3       1 GSP501      0.0000 
     17 C3'        43.8120  142.0820  119.9360 C.3       1 GSP501      0.0000 
     18 O3'        42.7650  141.6380  119.0830 O.3       1 GSP501      0.0000 
     19 C2'        45.0270  141.1670  119.8270 C.3       1 GSP501      0.0000 
     20 O2'        44.6250  139.8150  119.6570 O.3       1 GSP501      0.0000 
     21 C1'        45.6760  141.6860  118.5450 C.3       1 GSP501      0.0000 
     22 N9         47.1360  141.6050  118.5650 N.pl3     1 GSP501      0.0000 
     23 C8         47.9600  141.9790  119.5850 C.2       1 GSP501      0.0000 
     24 N7         49.2290  141.8270  119.3030 N.2       1 GSP501      0.0000 
     25 C5         49.2350  141.3200  118.0150 C.2       1 GSP501      0.0000 
     26 C6         50.3130  140.9610  117.1590 C.2       1 GSP501      0.0000 
     27 O6         51.5140  141.0410  117.3990 O.2       1 GSP501      0.0000 
     28 N1         49.8760  140.4870  115.9430 N.am      1 GSP501      0.0000 
     29 C2         48.5670  140.3650  115.5750 C.2       1 GSP501      0.0000 
     30 N2         48.3230  139.8710  114.3630 N.pl3     1 GSP501      0.0000 
     31 N3         47.5520  140.7060  116.3630 N.2       1 GSP501      0.0000 
     32 C4         47.9540  141.1720  117.5540 C.2       1 GSP501      0.0000 
@<TRIPOS>BOND
     1    1    2 1    
     2    1    3 2    
     3    1    4 1    
     4    1    5 1    
     5    2    6 1    
     6    6    7 ar   
     7    6    8 ar   
     8    6   12 1    
     9    9   10 ar   
    10    9   11 ar   
    11    9   12 1    
    12    9   13 1    
    13   13   14 1    
    14   14   15 1    
    15   15   16 1    
    16   15   17 1    
    17   16   21 1    
    18   17   18 1    
    19   17   19 1    
    20   19   20 1    
    21   19   21 1    
    22   21   22 1    
    23   22   23 1    
    24   22   32 1    
    25   23   24 2    
    26   24   25 1    
    27   25   26 1    
    28   25   32 2    
    29   26   27 2    
    30   26   28 am   
    31   28   29 1    
    32   29   30 1    
    33   29   31 2    
    34   31   32 1    
@<TRIPOS>SUBSTRUCTURE
     1 GSP501      1 GROUP   
@<TRIPOS>SET

