#    Name: 6evy_2_GSP
#    Modification time : Fri May 22 19:33:32 2020

@<TRIPOS>MOLECULE
6evy_2_GSP
   32    34     1     0     0
SMALL
NO_CHARGES


@<TRIPOS>ATOM
      1 PG         77.0780   50.4980  104.9990 P.3       1 GSP501      0.0000 
      2 O3B        76.8940   50.5820  103.4530 O.3       1 GSP501      0.0000 
      3 S1G        78.3850   51.6120  105.8090 S.2       1 GSP501      0.0000 
      4 O2G        75.6460   50.7330  105.6110 O.3       1 GSP501      0.0000 
      5 O3G        77.1210   48.9670  105.3070 O.3       1 GSP501      0.0000 
      6 PB         76.3270   49.4170  102.5310 P.3       1 GSP501      0.0000 
      7 O1B        75.8930   49.9550  101.1820 O.co2     1 GSP501      0.0000 
      8 O2B        75.2440   48.7200  103.2330 O.co2     1 GSP501      0.0000 
      9 PA         79.0010   48.9840  101.8250 P.3       1 GSP501      0.0000 
     10 O1A        78.6690   50.0890  100.8450 O.co2     1 GSP501      0.0000 
     11 O2A        79.7170   49.5530  102.9770 O.co2     1 GSP501      0.0000 
     12 O3A        77.5800   48.4660  102.3130 O.3       1 GSP501      0.0000 
     13 O5'        79.8050   47.8490  101.0050 O.3       1 GSP501      0.0000 
     14 C5'        80.5730   46.8030  101.6350 C.3       1 GSP501      0.0000 
     15 C4'        80.8330   45.7440  100.5960 C.3       1 GSP501      0.0000 
     16 O4'        81.6780   46.2850   99.5610 O.3       1 GSP501      0.0000 
     17 C3'        81.5670   44.5120  101.0890 C.3       1 GSP501      0.0000 
     18 O3'        81.2890   43.3950  100.2530 O.3       1 GSP501      0.0000 
     19 C2'        83.0260   44.9410  100.9700 C.3       1 GSP501      0.0000 
     20 O2'        83.8690   43.8120  100.7900 O.3       1 GSP501      0.0000 
     21 C1'        82.9930   45.7760   99.6900 C.3       1 GSP501      0.0000 
     22 N9         83.9170   46.9110   99.7130 N.pl3     1 GSP501      0.0000 
     23 C8         84.1280   47.7830  100.7420 C.2       1 GSP501      0.0000 
     24 N7         84.9770   48.7350  100.4440 N.2       1 GSP501      0.0000 
     25 C5         85.3450   48.4680   99.1370 C.2       1 GSP501      0.0000 
     26 C6         86.2220   49.1600   98.2520 C.2       1 GSP501      0.0000 
     27 O6         86.8500   50.1900   98.4780 O.2       1 GSP501      0.0000 
     28 N1         86.3040   48.5500   97.0210 N.am      1 GSP501      0.0000 
     29 C2         85.6340   47.4160   96.6610 C.2       1 GSP501      0.0000 
     30 N2         85.8320   46.9630   95.4240 N.pl3     1 GSP501      0.0000 
     31 N3         84.8110   46.7650   97.4760 N.2       1 GSP501      0.0000 
     32 C4         84.7080   47.3430   98.6810 C.2       1 GSP501      0.0000 
@<TRIPOS>BOND
     1    1    2 1    
     2    1    3 2    
     3    1    4 1    
     4    1    5 1    
     5    2    6 1    
     6    6    7 ar   
     7    6    8 ar   
     8    6   12 1    
     9    9   10 ar   
    10    9   11 ar   
    11    9   12 1    
    12    9   13 1    
    13   13   14 1    
    14   14   15 1    
    15   15   16 1    
    16   15   17 1    
    17   16   21 1    
    18   17   18 1    
    19   17   19 1    
    20   19   20 1    
    21   19   21 1    
    22   21   22 1    
    23   22   23 1    
    24   22   32 1    
    25   23   24 2    
    26   24   25 1    
    27   25   26 1    
    28   25   32 2    
    29   26   27 2    
    30   26   28 am   
    31   28   29 1    
    32   29   30 1    
    33   29   31 2    
    34   31   32 1    
@<TRIPOS>SUBSTRUCTURE
     1 GSP501      1 GROUP   
@<TRIPOS>SET

