#    Name: 6evy_11_GTP
#    Modification time : Fri May 22 19:35:00 2020

@<TRIPOS>MOLECULE
6evy_11_GTP
   32    34     1     0     1
SMALL
NO_CHARGES


@<TRIPOS>ATOM
      1 PG         47.9380   96.0500   72.2340 P.3       1 GTP501      0.0000 
      2 O1G        48.7300   97.3220   72.0860 O.co2     1 GTP501      0.0000 
      3 O2G        46.6020   96.2460   72.8300 O.co2     1 GTP501      0.0000 
      4 O3G        48.8100   95.0320   72.9510 O.co2     1 GTP501      0.0000 
      5 O3B        47.7960   95.4910   70.7550 O.3       1 GTP501      0.0000 
      6 PB         48.9800   95.0080   69.8150 P.3       1 GTP501      0.0000 
      7 O1B        48.4950   95.0550   68.3840 O.co2     1 GTP501      0.0000 
      8 O2B        50.1540   95.8800   70.0010 O.co2     1 GTP501      0.0000 
      9 O3A        49.3670   93.5130   70.1910 O.3       1 GTP501      0.0000 
     10 PA         50.5740   92.6620   69.6010 P.3       1 GTP501      0.0000 
     11 O1A        50.4670   92.8180   68.1100 O.co2     1 GTP501      0.0000 
     12 O2A        51.8440   93.2610   70.0440 O.co2     1 GTP501      0.0000 
     13 O5'        50.4330   91.1090   69.8700 O.3       1 GTP501      0.0000 
     14 C5'        49.6840   90.2570   68.9820 C.3       1 GTP501      0.0000 
     15 C4'        50.6140   89.4360   68.1240 C.3       1 GTP501      0.0000 
     16 O4'        51.7230   90.2380   67.6830 O.3       1 GTP501      0.0000 
     17 C3'        51.2350   88.2100   68.7940 C.3       1 GTP501      0.0000 
     18 O3'        50.5530   87.0300   68.3870 O.3       1 GTP501      0.0000 
     19 C2'        52.6960   88.2090   68.3040 C.3       1 GTP501      0.0000 
     20 O2'        53.0390   86.9830   67.6740 O.3       1 GTP501      0.0000 
     21 C1'        52.7140   89.3290   67.2700 C.3       1 GTP501      0.0000 
     22 N9         53.9950   90.0350   67.1900 N.pl3     1 GTP501      0.0000 
     23 C8         54.5540   90.8540   68.1280 C.2       1 GTP501      0.0000 
     24 N7         55.6970   91.3680   67.7460 N.2       1 GTP501      0.0000 
     25 C5         55.8970   90.8500   66.4790 C.2       1 GTP501      0.0000 
     26 C6         56.9440   91.0580   65.5460 C.2       1 GTP501      0.0000 
     27 O6         57.9370   91.7650   65.6900 O.2       1 GTP501      0.0000 
     28 N1         56.7470   90.3590   64.3760 N.am      1 GTP501      0.0000 
     29 C2         55.6770   89.5500   64.1180 C.2       1 GTP501      0.0000 
     30 N2         55.6420   88.9530   62.9270 N.pl3     1 GTP501      0.0000 
     31 N3         54.6910   89.3480   64.9850 N.2       1 GTP501      0.0000 
     32 C4         54.8610   90.0250   66.1300 C.2       1 GTP501      0.0000 
@<TRIPOS>BOND
     1    1    2 ar   
     2    1    3 ar   
     3    1    4 ar   
     4    1    5 1    
     5    5    6 1    
     6    6    7 ar   
     7    6    8 ar   
     8    6    9 1    
     9    9   10 1    
    10   10   11 ar   
    11   10   12 ar   
    12   10   13 1    
    13   13   14 1    
    14   14   15 1    
    15   15   16 1    
    16   15   17 1    
    17   16   21 1    
    18   17   18 1    
    19   17   19 1    
    20   19   20 1    
    21   19   21 1    
    22   21   22 1    
    23   22   23 1    
    24   22   32 1    
    25   23   24 2    
    26   24   25 1    
    27   25   26 1    
    28   25   32 2    
    29   26   27 2    
    30   26   28 am   
    31   28   29 1    
    32   29   30 1    
    33   29   31 2    
    34   31   32 1    
@<TRIPOS>SUBSTRUCTURE
     1 GTP501      1 GROUP   
@<TRIPOS>SET
ATOM$ORANGE STATIC     ATOMS   COLORGROUP SYSTEM 
20 14 14 15 15 17 17 19 19 21 21 23 23 25 25 26 26 29 \
29 32 32 

