#    Name: 6evy_8_GTP
#    Modification time : Fri May 22 19:34:25 2020

@<TRIPOS>MOLECULE
6evy_8_GTP
   32    34     1     0     1
SMALL
NO_CHARGES


@<TRIPOS>ATOM
      1 PG         75.6270   49.6610  144.9420 P.3       1 GTP501      0.0000 
      2 O1G        75.7670   51.1350  144.9720 O.co2     1 GTP501      0.0000 
      3 O2G        74.3620   49.2100  145.5300 O.co2     1 GTP501      0.0000 
      4 O3G        76.8950   49.0360  145.5050 O.co2     1 GTP501      0.0000 
      5 O3B        75.6620   49.3540  143.3870 O.3       1 GTP501      0.0000 
      6 PB         76.8370   49.5600  142.3400 P.3       1 GTP501      0.0000 
      7 O1B        76.3090   49.2790  140.9510 O.co2     1 GTP501      0.0000 
      8 O2B        77.4530   50.8970  142.4520 O.co2     1 GTP501      0.0000 
      9 O3A        77.8690   48.4330  142.7690 O.3       1 GTP501      0.0000 
     10 PA         79.3430   48.1630  142.2450 P.3       1 GTP501      0.0000 
     11 O1A        79.5630   49.0630  141.0460 O.co2     1 GTP501      0.0000 
     12 O2A        80.2990   48.5030  143.3060 O.co2     1 GTP501      0.0000 
     13 O5'        79.3950   46.6590  141.7750 O.3       1 GTP501      0.0000 
     14 C5'        80.4230   45.7340  142.1700 C.3       1 GTP501      0.0000 
     15 C4'        81.1100   45.2460  140.9220 C.3       1 GTP501      0.0000 
     16 O4'        81.7630   46.3550  140.2650 O.3       1 GTP501      0.0000 
     17 C3'        82.1830   44.1780  141.1400 C.3       1 GTP501      0.0000 
     18 O3'        82.0510   43.1420  140.1750 O.3       1 GTP501      0.0000 
     19 C2'        83.4880   44.9550  140.9550 C.3       1 GTP501      0.0000 
     20 O2'        84.5250   44.1360  140.4320 O.3       1 GTP501      0.0000 
     21 C1'        83.0690   45.9650  139.9030 C.3       1 GTP501      0.0000 
     22 N9         83.9150   47.1590  139.8560 N.pl3     1 GTP501      0.0000 
     23 C8         84.0650   48.1130  140.8220 C.2       1 GTP501      0.0000 
     24 N7         84.8530   49.0930  140.4580 N.2       1 GTP501      0.0000 
     25 C5         85.2460   48.7570  139.1750 C.2       1 GTP501      0.0000 
     26 C6         86.0850   49.4340  138.2510 C.2       1 GTP501      0.0000 
     27 O6         86.6810   50.4920  138.4280 O.2       1 GTP501      0.0000 
     28 N1         86.2120   48.7490  137.0630 N.am      1 GTP501      0.0000 
     29 C2         85.6180   47.5530  136.7820 C.2       1 GTP501      0.0000 
     30 N2         85.8630   47.0200  135.5860 N.pl3     1 GTP501      0.0000 
     31 N3         84.8290   46.9120  137.6380 N.2       1 GTP501      0.0000 
     32 C4         84.6840   47.5670  138.7990 C.2       1 GTP501      0.0000 
@<TRIPOS>BOND
     1    1    2 ar   
     2    1    3 ar   
     3    1    4 ar   
     4    1    5 1    
     5    5    6 1    
     6    6    7 ar   
     7    6    8 ar   
     8    6    9 1    
     9    9   10 1    
    10   10   11 ar   
    11   10   12 ar   
    12   10   13 1    
    13   13   14 1    
    14   14   15 1    
    15   15   16 1    
    16   15   17 1    
    17   16   21 1    
    18   17   18 1    
    19   17   19 1    
    20   19   20 1    
    21   19   21 1    
    22   21   22 1    
    23   22   23 1    
    24   22   32 1    
    25   23   24 2    
    26   24   25 1    
    27   25   26 1    
    28   25   32 2    
    29   26   27 2    
    30   26   28 am   
    31   28   29 1    
    32   29   30 1    
    33   29   31 2    
    34   31   32 1    
@<TRIPOS>SUBSTRUCTURE
     1 GTP501      1 GROUP   
@<TRIPOS>SET
ATOM$ORANGE STATIC     ATOMS   COLORGROUP SYSTEM 
20 14 14 15 15 17 17 19 19 21 21 23 23 25 25 26 26 29 \
29 32 32 

