#    Name: 6evy_5_GSP
#    Modification time : Fri May 22 19:33:56 2020

@<TRIPOS>MOLECULE
6evy_5_GSP
   32    34     1     0     0
SMALL
NO_CHARGES


@<TRIPOS>ATOM
      1 PG         49.4380   96.0750  196.5370 P.3       1 GSP501      0.0000 
      2 O3B        49.3780   96.1370  194.9810 O.3       1 GSP501      0.0000 
      3 S1G        51.1310   96.2580  197.3780 S.2       1 GSP501      0.0000 
      4 O2G        48.4160   97.1580  197.0430 O.3       1 GSP501      0.0000 
      5 O3G        48.5530   94.8430  196.9140 O.3       1 GSP501      0.0000 
      6 PB         48.3370   95.3610  194.0640 P.3       1 GSP501      0.0000 
      7 O1B        48.1980   96.0390  192.7160 O.co2     1 GSP501      0.0000 
      8 O2B        47.0530   95.2490  194.7670 O.co2     1 GSP501      0.0000 
      9 PA         50.5000   93.7200  193.3550 P.3       1 GSP501      0.0000 
     10 O1A        50.7330   94.8480  192.3720 O.co2     1 GSP501      0.0000 
     11 O2A        51.4100   93.8740  194.5020 O.co2     1 GSP501      0.0000 
     12 O3A        49.0060   93.9360  193.8500 O.3       1 GSP501      0.0000 
     13 O5'        50.6590   92.3400  192.5370 O.3       1 GSP501      0.0000 
     14 C5'        50.9240   91.0650  193.1560 C.3       1 GSP501      0.0000 
     15 C4'        50.6060   90.0100  192.1280 C.3       1 GSP501      0.0000 
     16 O4'        51.5410   90.1020  191.0360 O.3       1 GSP501      0.0000 
     17 C3'        50.6920   88.5710  192.6020 C.3       1 GSP501      0.0000 
     18 O3'        49.8220   87.7360  191.8490 O.3       1 GSP501      0.0000 
     19 C2'        52.1590   88.2230  192.3520 C.3       1 GSP501      0.0000 
     20 O2'        52.2860   86.8420  192.0410 O.3       1 GSP501      0.0000 
     21 C1'        52.4920   89.0580  191.1140 C.3       1 GSP501      0.0000 
     22 N9         53.8240   89.6640  191.1710 N.pl3     1 GSP501      0.0000 
     23 C8         54.3630   90.3590  192.2150 C.2       1 GSP501      0.0000 
     24 N7         55.5620   90.8200  191.9630 N.2       1 GSP501      0.0000 
     25 C5         55.8260   90.3990  190.6710 C.2       1 GSP501      0.0000 
     26 C6         56.9610   90.6040  189.8350 C.2       1 GSP501      0.0000 
     27 O6         57.9850   91.2240  190.1050 O.2       1 GSP501      0.0000 
     28 N1         56.8100   90.0130  188.6010 N.am      1 GSP501      0.0000 
     29 C2         55.7130   89.3060  188.1990 C.2       1 GSP501      0.0000 
     30 N2         55.7390   88.7950  186.9700 N.pl3     1 GSP501      0.0000 
     31 N3         54.6490   89.1090  188.9710 N.2       1 GSP501      0.0000 
     32 C4         54.7680   89.6810  190.1770 C.2       1 GSP501      0.0000 
@<TRIPOS>BOND
     1    1    2 1    
     2    1    3 2    
     3    1    4 1    
     4    1    5 1    
     5    2    6 1    
     6    6    7 ar   
     7    6    8 ar   
     8    6   12 1    
     9    9   10 ar   
    10    9   11 ar   
    11    9   12 1    
    12    9   13 1    
    13   13   14 1    
    14   14   15 1    
    15   15   16 1    
    16   15   17 1    
    17   16   21 1    
    18   17   18 1    
    19   17   19 1    
    20   19   20 1    
    21   19   21 1    
    22   21   22 1    
    23   22   23 1    
    24   22   32 1    
    25   23   24 2    
    26   24   25 1    
    27   25   26 1    
    28   25   32 2    
    29   26   27 2    
    30   26   28 am   
    31   28   29 1    
    32   29   30 1    
    33   29   31 2    
    34   31   32 1    
@<TRIPOS>SUBSTRUCTURE
     1 GSP501      1 GROUP   
@<TRIPOS>SET

