#    Name: 6evy_6_GSP
#    Modification time : Fri May 22 19:34:02 2020

@<TRIPOS>MOLECULE
6evy_6_GSP
   32    34     1     0     0
SMALL
NO_CHARGES


@<TRIPOS>ATOM
      1 PG         77.0610   50.5380  187.0800 P.3       1 GSP501      0.0000 
      2 O3B        76.9650   50.5360  185.5240 O.3       1 GSP501      0.0000 
      3 S1G        78.4890   51.4940  187.8880 S.2       1 GSP501      0.0000 
      4 O2G        75.6550   51.0310  187.5930 O.3       1 GSP501      0.0000 
      5 O3G        76.8570   49.0440  187.4880 O.3       1 GSP501      0.0000 
      6 PB         76.4000   49.3510  184.6270 P.3       1 GSP501      0.0000 
      7 O1B        75.9420   49.8690  183.2780 O.co2     1 GSP501      0.0000 
      8 O2B        75.3290   48.6550  185.3500 O.co2     1 GSP501      0.0000 
      9 PA         79.0730   48.9170  183.8940 P.3       1 GSP501      0.0000 
     10 O1A        78.7370   50.0270  182.9200 O.co2     1 GSP501      0.0000 
     11 O2A        79.8070   49.4800  185.0390 O.co2     1 GSP501      0.0000 
     12 O3A        77.6560   48.4050  184.3990 O.3       1 GSP501      0.0000 
     13 O5'        79.8660   47.7790  183.0650 O.3       1 GSP501      0.0000 
     14 C5'        80.6230   46.7190  183.6850 C.3       1 GSP501      0.0000 
     15 C4'        80.8640   45.6620  182.6400 C.3       1 GSP501      0.0000 
     16 O4'        81.7190   46.1940  181.6080 O.3       1 GSP501      0.0000 
     17 C3'        81.5780   44.4140  183.1240 C.3       1 GSP501      0.0000 
     18 O3'        81.2890   43.3130  182.2720 O.3       1 GSP501      0.0000 
     19 C2'        83.0440   44.8230  183.0160 C.3       1 GSP501      0.0000 
     20 O2'        83.8720   43.6840  182.8230 O.3       1 GSP501      0.0000 
     21 C1'        83.0300   45.6790  181.7490 C.3       1 GSP501      0.0000 
     22 N9         83.9560   46.8120  181.8030 N.pl3     1 GSP501      0.0000 
     23 C8         84.1630   47.6560  182.8560 C.2       1 GSP501      0.0000 
     24 N7         85.0100   48.6190  182.5850 N.2       1 GSP501      0.0000 
     25 C5         85.3790   48.3890  181.2710 C.2       1 GSP501      0.0000 
     26 C6         86.2520   49.1100  180.4030 C.2       1 GSP501      0.0000 
     27 O6         86.8780   50.1350  180.6570 O.2       1 GSP501      0.0000 
     28 N1         86.3350   48.5360  179.1550 N.am      1 GSP501      0.0000 
     29 C2         85.6720   47.4070  178.7660 C.2       1 GSP501      0.0000 
     30 N2         85.8720   46.9880  177.5180 N.pl3     1 GSP501      0.0000 
     31 N3         84.8540   46.7290  179.5640 N.2       1 GSP501      0.0000 
     32 C4         84.7480   47.2740  180.7840 C.2       1 GSP501      0.0000 
@<TRIPOS>BOND
     1    1    2 1    
     2    1    3 2    
     3    1    4 1    
     4    1    5 1    
     5    2    6 1    
     6    6    7 ar   
     7    6    8 ar   
     8    6   12 1    
     9    9   10 ar   
    10    9   11 ar   
    11    9   12 1    
    12    9   13 1    
    13   13   14 1    
    14   14   15 1    
    15   15   16 1    
    16   15   17 1    
    17   16   21 1    
    18   17   18 1    
    19   17   19 1    
    20   19   20 1    
    21   19   21 1    
    22   21   22 1    
    23   22   23 1    
    24   22   32 1    
    25   23   24 2    
    26   24   25 1    
    27   25   26 1    
    28   25   32 2    
    29   26   27 2    
    30   26   28 am   
    31   28   29 1    
    32   29   30 1    
    33   29   31 2    
    34   31   32 1    
@<TRIPOS>SUBSTRUCTURE
     1 GSP501      1 GROUP   
@<TRIPOS>SET

