#    Name: 6msm_3_ATP
#    Modification time : Fri May 22 19:30:01 2020

@<TRIPOS>MOLECULE
6msm_3_ATP
   31    33     1     0     1
SMALL
NO_CHARGES


@<TRIPOS>ATOM
      1 PG        142.9780  154.8960  101.6850 P.3       1 ATP1504     0.0000 
      2 O1G       142.4460  154.6890  100.2960 O.co2     1 ATP1504     0.0000 
      3 O2G       143.4530  156.2940  101.9480 O.co2     1 ATP1504     0.0000 
      4 O3G       143.9730  153.8400  102.0930 O.co2     1 ATP1504     0.0000 
      5 PB        141.0510  153.2780  102.9150 P.3       1 ATP1504     0.0000 
      6 O1B       140.5630  152.6790  101.6430 O.co2     1 ATP1504     0.0000 
      7 O2B       142.0230  152.5260  103.7630 O.co2     1 ATP1504     0.0000 
      8 O3B       141.6940  154.7020  102.6130 O.3       1 ATP1504     0.0000 
      9 PA        139.3370  152.7320  105.0560 P.3       1 ATP1504     0.0000 
     10 O1A       139.2520  151.3350  104.5450 O.co2     1 ATP1504     0.0000 
     11 O2A       140.2840  153.0080  106.1720 O.co2     1 ATP1504     0.0000 
     12 O3A       139.7810  153.6450  103.8170 O.3       1 ATP1504     0.0000 
     13 O5'       137.8750  153.2060  105.5380 O.3       1 ATP1504     0.0000 
     14 C5'       137.0120  154.1440  104.8580 C.3       1 ATP1504     0.0000 
     15 C4'       136.4340  155.1350  105.8390 C.3       1 ATP1504     0.0000 
     16 O4'       135.9800  154.4640  107.0410 O.3       1 ATP1504     0.0000 
     17 C3'       137.4380  156.1930  106.3010 C.3       1 ATP1504     0.0000 
     18 O3'       137.3710  157.3280  105.4450 O.3       1 ATP1504     0.0000 
     19 C2'       137.0170  156.4970  107.7420 C.3       1 ATP1504     0.0000 
     20 O2'       136.2180  157.6560  107.8550 O.3       1 ATP1504     0.0000 
     21 C1'       136.2330  155.2620  108.1760 C.3       1 ATP1504     0.0000 
     22 N9        137.0230  154.4910  109.1320 N.pl3     1 ATP1504     0.0000 
     23 C8        138.2120  153.8500  108.8640 C.2       1 ATP1504     0.0000 
     24 N7        138.7080  153.2610  109.9440 N.2       1 ATP1504     0.0000 
     25 C5        137.8100  153.5210  110.9900 C.ar      1 ATP1504     0.0000 
     26 C6        137.7870  153.1590  112.3860 C.ar      1 ATP1504     0.0000 
     27 N6        138.7330  152.4200  113.0040 N.pl3     1 ATP1504     0.0000 
     28 N1        136.7250  153.6090  113.1240 N.ar      1 ATP1504     0.0000 
     29 C2        135.7710  154.3520  112.5220 C.ar      1 ATP1504     0.0000 
     30 N3        135.7130  154.7280  111.2310 N.ar      1 ATP1504     0.0000 
     31 C4        136.7640  154.2980  110.4850 C.ar      1 ATP1504     0.0000 
@<TRIPOS>BOND
     1    1    2 ar   
     2    1    3 ar   
     3    1    4 ar   
     4    1    8 1    
     5    5    6 ar   
     6    5    7 ar   
     7    5    8 1    
     8    5   12 1    
     9    9   10 ar   
    10    9   11 ar   
    11    9   12 1    
    12    9   13 1    
    13   13   14 1    
    14   14   15 1    
    15   15   16 1    
    16   15   17 1    
    17   16   21 1    
    18   17   18 1    
    19   17   19 1    
    20   19   20 1    
    21   19   21 1    
    22   21   22 1    
    23   22   23 1    
    24   22   31 1    
    25   23   24 2    
    26   24   25 1    
    27   25   26 ar   
    28   25   31 ar   
    29   26   27 1    
    30   26   28 ar   
    31   28   29 ar   
    32   29   30 ar   
    33   30   31 ar   
@<TRIPOS>SUBSTRUCTURE
     1 ATP1504     1 GROUP   
@<TRIPOS>SET
ATOM$ORANGE STATIC     ATOMS   COLORGROUP SYSTEM 
20 14 14 15 15 17 17 19 19 21 21 23 23 25 25 26 26 29 \
29 31 31 

