#    Name: 6msm_2_ATP
#    Modification time : Fri May 22 19:29:47 2020

@<TRIPOS>MOLECULE
6msm_2_ATP
   31    33     1     0     1
SMALL
NO_CHARGES


@<TRIPOS>ATOM
      1 PG        162.3770  157.2720  100.9840 P.3       1 ATP1503     0.0000 
      2 O1G       162.5000  157.6140   99.5210 O.co2     1 ATP1503     0.0000 
      3 O2G       162.1470  155.8160  101.2460 O.co2     1 ATP1503     0.0000 
      4 O3G       161.4360  158.1830  101.7320 O.co2     1 ATP1503     0.0000 
      5 PB        164.5060  159.0300  101.6300 P.3       1 ATP1503     0.0000 
      6 O1B       164.8630  159.4030  100.2330 O.co2     1 ATP1503     0.0000 
      7 O2B       163.6500  159.9530  102.4430 O.co2     1 ATP1503     0.0000 
      8 O3B       163.8140  157.5960  101.6170 O.3       1 ATP1503     0.0000 
      9 PA        166.1560  159.3680  103.8790 P.3       1 ATP1503     0.0000 
     10 O1A       166.3510  160.8340  103.6880 O.co2     1 ATP1503     0.0000 
     11 O2A       165.0920  158.8980  104.8100 O.co2     1 ATP1503     0.0000 
     12 O3A       165.8510  158.7340  102.4460 O.3       1 ATP1503     0.0000 
     13 O5'       167.5320  158.6980  104.3490 O.3       1 ATP1503     0.0000 
     14 C5'       168.6810  158.4610  103.5100 C.3       1 ATP1503     0.0000 
     15 C4'       169.5450  157.4260  104.1900 C.3       1 ATP1503     0.0000 
     16 O4'       169.8590  157.8800  105.5340 O.3       1 ATP1503     0.0000 
     17 C3'       168.8920  156.0440  104.3380 C.3       1 ATP1503     0.0000 
     18 O3'       169.6860  155.0560  103.6920 O.3       1 ATP1503     0.0000 
     19 C2'       168.7520  155.8030  105.8480 C.3       1 ATP1503     0.0000 
     20 O2'       169.1760  154.5040  106.2130 O.3       1 ATP1503     0.0000 
     21 C1'       169.6370  156.8680  106.4890 C.3       1 ATP1503     0.0000 
     22 N9        169.0040  157.4930  107.6600 N.pl3     1 ATP1503     0.0000 
     23 C8        167.8380  158.2330  107.6880 C.2       1 ATP1503     0.0000 
     24 N7        167.5420  158.6460  108.9100 N.2       1 ATP1503     0.0000 
     25 C5        168.5520  158.1510  109.7490 C.ar      1 ATP1503     0.0000 
     26 C6        168.7960  158.2510  111.1660 C.ar      1 ATP1503     0.0000 
     27 N6        168.0020  158.9160  112.0330 N.pl3     1 ATP1503     0.0000 
     28 N1        169.9120  157.6220  111.6490 N.ar      1 ATP1503     0.0000 
     29 C2        170.7170  156.9520  110.7930 C.ar      1 ATP1503     0.0000 
     30 N3        170.5630  156.8120  109.4640 N.ar      1 ATP1503     0.0000 
     31 C4        169.4570  157.4260  108.9720 C.ar      1 ATP1503     0.0000 
@<TRIPOS>BOND
     1    1    2 ar   
     2    1    3 ar   
     3    1    4 ar   
     4    1    8 1    
     5    5    6 ar   
     6    5    7 ar   
     7    5    8 1    
     8    5   12 1    
     9    9   10 ar   
    10    9   11 ar   
    11    9   12 1    
    12    9   13 1    
    13   13   14 1    
    14   14   15 1    
    15   15   16 1    
    16   15   17 1    
    17   16   21 1    
    18   17   18 1    
    19   17   19 1    
    20   19   20 1    
    21   19   21 1    
    22   21   22 1    
    23   22   23 1    
    24   22   31 1    
    25   23   24 2    
    26   24   25 1    
    27   25   26 ar   
    28   25   31 ar   
    29   26   27 1    
    30   26   28 ar   
    31   28   29 ar   
    32   29   30 ar   
    33   30   31 ar   
@<TRIPOS>SUBSTRUCTURE
     1 ATP1503     1 GROUP   
@<TRIPOS>SET
ATOM$ORANGE STATIC     ATOMS   COLORGROUP SYSTEM 
20 14 14 15 15 17 17 19 19 21 21 23 23 25 25 26 26 29 \
29 31 31 

