#    Name: 6syt_1_ATP
#    Modification time : Fri May 22 19:32:05 2020

@<TRIPOS>MOLECULE
6syt_1_ATP
   31    33     1     0     1
SMALL
NO_CHARGES


@<TRIPOS>ATOM
      1 PG        152.2450  193.1050  141.3770 P.3       1 ATP601      0.0000 
      2 O1G       152.9340  194.0320  142.3470 O.co2     1 ATP601      0.0000 
      3 O2G       150.9530  193.6740  140.8430 O.co2     1 ATP601      0.0000 
      4 O3G       153.1640  192.6190  140.2820 O.co2     1 ATP601      0.0000 
      5 PB        152.6900  190.7660  143.1080 P.3       1 ATP601      0.0000 
      6 O1B       152.3710  189.3770  142.6610 O.co2     1 ATP601      0.0000 
      7 O2B       154.1110  191.2240  143.1360 O.co2     1 ATP601      0.0000 
      8 O3B       151.8370  191.7950  142.2270 O.3       1 ATP601      0.0000 
      9 PA        152.3800  190.3960  146.0030 P.3       1 ATP601      0.0000 
     10 O1A       153.4830  191.1960  146.6130 O.co2     1 ATP601      0.0000 
     11 O2A       152.5640  188.9200  145.8770 O.co2     1 ATP601      0.0000 
     12 O3A       152.0470  191.0000  144.5550 O.3       1 ATP601      0.0000 
     13 O5'       151.0110  190.6970  146.7830 O.3       1 ATP601      0.0000 
     14 C5'       149.9150  189.7580  146.6460 C.3       1 ATP601      0.0000 
     15 C4'       149.1770  189.6560  147.9580 C.3       1 ATP601      0.0000 
     16 O4'       148.5810  188.3370  148.0640 O.3       1 ATP601      0.0000 
     17 C3'       150.0290  189.8280  149.2230 C.3       1 ATP601      0.0000 
     18 O3'       149.3050  190.5010  150.2450 O.3       1 ATP601      0.0000 
     19 C2'       150.3400  188.3810  149.6160 C.3       1 ATP601      0.0000 
     20 O2'       150.6130  188.2390  150.9930 O.3       1 ATP601      0.0000 
     21 C1'       149.0380  187.6890  149.2300 C.3       1 ATP601      0.0000 
     22 N9        149.1870  186.2690  148.9360 N.pl3     1 ATP601      0.0000 
     23 C8        149.7980  185.6980  147.8460 C.2       1 ATP601      0.0000 
     24 N7        149.7620  184.3850  147.8800 N.2       1 ATP601      0.0000 
     25 C5        149.0910  184.0810  149.0580 C.ar      1 ATP601      0.0000 
     26 C6        148.7330  182.8610  149.6640 C.ar      1 ATP601      0.0000 
     27 N6        149.0120  181.6680  149.1470 N.pl3     1 ATP601      0.0000 
     28 N1        148.0670  182.9240  150.8420 N.ar      1 ATP601      0.0000 
     29 C2        147.7890  184.1280  151.3580 C.ar      1 ATP601      0.0000 
     30 N3        148.0750  185.3360  150.8790 N.ar      1 ATP601      0.0000 
     31 C4        148.7340  185.2390  149.7140 C.ar      1 ATP601      0.0000 
@<TRIPOS>BOND
     1    1    2 ar   
     2    1    3 ar   
     3    1    4 ar   
     4    1    8 1    
     5    5    6 ar   
     6    5    7 ar   
     7    5    8 1    
     8    5   12 1    
     9    9   10 ar   
    10    9   11 ar   
    11    9   12 1    
    12    9   13 1    
    13   13   14 1    
    14   14   15 1    
    15   15   16 1    
    16   15   17 1    
    17   16   21 1    
    18   17   18 1    
    19   17   19 1    
    20   19   20 1    
    21   19   21 1    
    22   21   22 1    
    23   22   23 1    
    24   22   31 1    
    25   23   24 2    
    26   24   25 1    
    27   25   26 ar   
    28   25   31 ar   
    29   26   27 1    
    30   26   28 ar   
    31   28   29 ar   
    32   29   30 ar   
    33   30   31 ar   
@<TRIPOS>SUBSTRUCTURE
     1 ATP601      1 GROUP   
@<TRIPOS>SET
ATOM$ORANGE STATIC     ATOMS   COLORGROUP SYSTEM 
20 14 14 15 15 17 17 19 19 21 21 23 23 25 25 26 26 29 \
29 31 31 

