#    Name: 6p3m_1_SAH_CAVITY_N1_4
#    Modification time : Fri May 22 19:30:50 2020

@<TRIPOS>MOLECULE
6p3m_1_SAH_CAVITY_N1_4
   71     0     6     0     0
SMALL
NO_CHARGES


@<TRIPOS>ATOM
      1 OG         72.0300   36.7400    8.1800 O.3       1 SER1        0.0000 
      2 OG         69.6000   39.2500    9.3000 O.3       1 SER1        0.0000 
      3 OG         70.7200   38.3500    9.7300 O.3       1 SER1        0.0000 
      4 OG         72.4300   38.5600   10.9600 O.3       1 SER1        0.0000 
      5 OG         82.1300   35.5100   10.7700 O.3       1 SER1        0.0000 
      6 N          68.4000   37.0100    7.7100 N.am      2 ALA2        0.0000 
      7 N          69.5200   36.1000    8.1400 N.am      2 ALA2        0.0000 
      8 N          69.8000   38.5500    7.3100 N.am      2 ALA2        0.0000 
      9 N          69.0000   38.1300    8.5100 N.am      2 ALA2        0.0000 
     10 N          68.2000   37.7100    9.7000 N.am      2 ALA2        0.0000 
     11 N          70.9200   37.6400    7.7400 N.am      2 ALA2        0.0000 
     12 N          71.2300   36.3200    9.3700 N.am      2 ALA2        0.0000 
     13 N          74.5800   33.6100   10.6700 N.am      2 ALA2        0.0000 
     14 O          76.5000   33.1200    9.9100 O.2       2 ALA2        0.0000 
     15 N          72.1400   36.1200   11.8000 N.am      2 ALA2        0.0000 
     16 N          74.0600   35.6300   11.0300 N.am      2 ALA2        0.0000 
     17 O          75.9800   35.1500   10.2700 O.2       2 ALA2        0.0000 
     18 O          77.1000   34.2400   10.7100 O.2       2 ALA2        0.0000 
     19 O          76.5800   36.2700   11.0700 O.2       2 ALA2        0.0000 
     20 O          77.7000   35.3600   11.5000 O.2       2 ALA2        0.0000 
     21 N          78.7900   38.2200    9.4700 N.am      2 ALA2        0.0000 
     22 N          77.9900   37.8100   10.6700 N.am      2 ALA2        0.0000 
     23 O          77.1800   37.3900   11.8600 O.2       2 ALA2        0.0000 
     24 O          78.3000   36.4800   12.3000 O.2       2 ALA2        0.0000 
     25 N          78.5900   38.9300   11.4600 N.am      2 ALA2        0.0000 
     26 NZ         79.0100   33.7500    9.9400 N.4       3 LYS4        0.0000 
     27 NZ         80.4200   35.2900    9.5400 N.4       3 LYS4        0.0000 
     28 NZ         79.6200   34.8800   10.7400 N.4       3 LYS4        0.0000 
     29 NZ         80.2200   36.0000   11.5300 N.4       3 LYS4        0.0000 
     30 CZ         71.5200   38.7600    8.5400 C.ar      4 PHE5        0.0000 
     31 CZ         72.6300   37.8600    8.9700 C.ar      4 PHE5        0.0000 
     32 CZ         73.7500   36.9500    9.4100 C.ar      4 PHE5        0.0000 
     33 CZ         73.2400   38.9800    9.7700 C.ar      4 PHE5        0.0000 
     34 CZ         74.3500   38.0800   10.2000 C.ar      4 PHE5        0.0000 
     35 CA         74.7800   32.9000    8.6800 C.3       5 GLY6        0.0000 
     36 CA         73.9800   32.4900    9.8800 C.3       5 GLY6        0.0000 
     37 CA         75.9000   32.0000    9.1100 C.3       5 GLY6        0.0000 
     38 CA         73.1500   35.8300    8.6100 C.3       5 GLY6        0.0000 
     39 CA         72.3500   35.4200    9.8100 C.3       5 GLY6        0.0000 
     40 CA         74.2700   34.9300    9.0400 C.3       5 GLY6        0.0000 
     41 CA         73.4600   34.5100   10.2400 C.3       5 GLY6        0.0000 
     42 CA         76.1800   34.4400    8.2800 C.3       5 GLY6        0.0000 
     43 CA         77.3000   33.5400    8.7100 C.3       5 GLY6        0.0000 
     44 CA         75.6900   32.7000   11.1100 C.3       5 GLY6        0.0000 
     45 CA         74.5500   37.3700    8.2100 C.3       5 GLY6        0.0000 
     46 CA         75.6700   36.4700    8.6400 C.3       5 GLY6        0.0000 
     47 CA         76.7800   35.5600    9.0800 C.3       5 GLY6        0.0000 
     48 CA         77.9000   34.6600    9.5100 C.3       5 GLY6        0.0000 
     49 CA         78.2100   33.3400   11.1400 C.3       5 GLY6        0.0000 
     50 CA         76.2700   37.5900    9.4400 C.3       5 GLY6        0.0000 
     51 CA         75.4700   37.1700   10.6300 C.3       5 GLY6        0.0000 
     52 CA         77.3800   36.6800    9.8700 C.3       5 GLY6        0.0000 
     53 CA         78.5000   35.7800   10.3000 C.3       5 GLY6        0.0000 
     54 CA         76.8700   38.7100   10.2300 C.3       5 GLY6        0.0000 
     55 CA         76.0700   38.2900   11.4300 C.3       5 GLY6        0.0000 
     56 CA         79.9000   37.3200    9.9000 C.3       5 GLY6        0.0000 
     57 CA         81.8200   36.8300    9.1400 C.3       5 GLY6        0.0000 
     58 CA         81.0200   36.4100   10.3400 C.3       5 GLY6        0.0000 
     59 CA         77.4700   39.8300   11.0300 C.3       5 GLY6        0.0000 
     60 DU         70.1200   37.2200    8.9400 H         6 CUB7        0.0000 
     61 DU         69.3100   36.8100   10.1300 H         6 CUB7        0.0000 
     62 DU         75.3800   34.0200    9.4800 H         6 CUB7        0.0000 
     63 DU         69.9100   37.9300   10.9300 H         6 CUB7        0.0000 
     64 DU         71.8300   37.4400   10.1700 H         6 CUB7        0.0000 
     65 DU         71.0300   37.0200   11.3600 H         6 CUB7        0.0000 
     66 DU         72.9500   36.5400   10.6000 H         6 CUB7        0.0000 
     67 DU         74.8700   36.0500    9.8400 H         6 CUB7        0.0000 
     68 DU         73.5500   37.6600   11.4000 H         6 CUB7        0.0000 
     69 DU         79.1000   36.9000   11.1000 H         6 CUB7        0.0000 
     70 DU         79.7000   38.0200   11.9000 H         6 CUB7        0.0000 
     71 DU         80.8200   37.1200   12.3300 H         6 CUB7        0.0000 
@<TRIPOS>BOND
@<TRIPOS>SUBSTRUCTURE
     1 SER1        1 GROUP   
     2 ALA2        6 GROUP   
     3 LYS4       26 GROUP   
     4 PHE5       30 GROUP   
     5 GLY6       35 GROUP   
     6 CUB7       60 GROUP   
@<TRIPOS>SET

