#    Name: 6p3m_1_SAH
#    Modification time : Fri May 22 19:30:48 2020

@<TRIPOS>MOLECULE
6p3m_1_SAH
   26    28     1     0     0
SMALL
NO_CHARGES


@<TRIPOS>ATOM
      1 N          67.7950   34.6980    5.7490 N.4       1 SAH401      0.0000 
      2 CA         66.9810   35.0360    6.9810 C.3       1 SAH401      0.0000 
      3 CB         67.7880   35.9060    7.9520 C.3       1 SAH401      0.0000 
      4 CG         68.3050   37.1700    7.2920 C.3       1 SAH401      0.0000 
      5 SD         69.2510   38.2160    8.4530 S.3       1 SAH401      0.0000 
      6 C          65.7100   35.7910    6.5820 C.2       1 SAH401      0.0000 
      7 O          65.5440   36.1310    5.4010 O.co2     1 SAH401      0.0000 
      8 OXT        64.8390   36.0860    7.4450 O.co2     1 SAH401      0.0000 
      9 C5'        70.9350   37.6080    8.2070 C.3       1 SAH401      0.0000 
     10 C4'        71.1590   36.3750    9.0380 C.3       1 SAH401      0.0000 
     11 O4'        72.5110   35.8670    8.8700 O.3       1 SAH401      0.0000 
     12 C3'        70.9950   36.6430   10.5380 C.3       1 SAH401      0.0000 
     13 O3'        70.3560   35.5390   11.1510 O.3       1 SAH401      0.0000 
     14 C2'        72.4480   36.7390   10.9990 C.3       1 SAH401      0.0000 
     15 O2'        72.6210   36.5830   12.3910 O.3       1 SAH401      0.0000 
     16 C1'        73.0300   35.6040   10.1650 C.3       1 SAH401      0.0000 
     17 N9         74.4870   35.6250   10.1430 N.pl3     1 SAH401      0.0000 
     18 C8         75.2730   36.7520   10.1200 C.2       1 SAH401      0.0000 
     19 N7         76.5570   36.4880   10.0860 N.2       1 SAH401      0.0000 
     20 C5         76.6290   35.1000   10.0940 C.ar      1 SAH401      0.0000 
     21 C6         77.7170   34.2060   10.0830 C.ar      1 SAH401      0.0000 
     22 N6         78.9940   34.6040   10.0280 N.pl3     1 SAH401      0.0000 
     23 N1         77.4440   32.8770   10.1180 N.ar      1 SAH401      0.0000 
     24 C2         76.1580   32.4880   10.1310 C.ar      1 SAH401      0.0000 
     25 N3         75.0610   33.2460   10.1490 N.ar      1 SAH401      0.0000 
     26 C4         75.3550   34.5540   10.1330 C.ar      1 SAH401      0.0000 
@<TRIPOS>BOND
     1    1    2 1    
     2    2    3 1    
     3    2    6 1    
     4    3    4 1    
     5    4    5 1    
     6    5    9 1    
     7    6    7 ar   
     8    6    8 ar   
     9    9   10 1    
    10   10   11 1    
    11   10   12 1    
    12   11   16 1    
    13   12   13 1    
    14   12   14 1    
    15   14   15 1    
    16   14   16 1    
    17   16   17 1    
    18   17   18 1    
    19   17   26 1    
    20   18   19 2    
    21   19   20 1    
    22   20   21 ar   
    23   20   26 ar   
    24   21   22 1    
    25   21   23 ar   
    26   23   24 ar   
    27   24   25 ar   
    28   25   26 ar   
@<TRIPOS>SUBSTRUCTURE
     1 SAH401      1 GROUP   
@<TRIPOS>SET

