#    Name: 5zit_1_NDP
#    Modification time : Fri May 22 19:24:03 2020

@<TRIPOS>MOLECULE
5zit_1_NDP
   48    52     1     0     1
SMALL
NO_CHARGES


@<TRIPOS>ATOM
      1 PA        -12.1700    1.9560  -25.0290 P.3       1 NDP501      0.0000 
      2 O1A       -13.2580    2.9000  -24.6470 O.co2     1 NDP501      0.0000 
      3 O2A       -12.4670    0.6480  -25.7080 O.co2     1 NDP501      0.0000 
      4 O5B       -11.0770    2.8070  -25.9420 O.3       1 NDP501      0.0000 
      5 C5B       -11.5430    2.6770  -27.2630 C.3       1 NDP501      0.0000 
      6 C4B       -11.6200    4.0450  -27.9570 C.3       1 NDP501      0.0000 
      7 O4B       -11.9010    3.8500  -29.3440 O.3       1 NDP501      0.0000 
      8 C3B       -12.7270    4.9020  -27.2790 C.3       1 NDP501      0.0000 
      9 O3B       -12.2160    6.1460  -26.8900 O.3       1 NDP501      0.0000 
     10 C2B       -13.8280    5.0990  -28.3820 C.3       1 NDP501      0.0000 
     11 O2B       -14.1080    6.3950  -28.6830 O.3       1 NDP501      0.0000 
     12 C1B       -13.2310    4.3350  -29.6400 C.3       1 NDP501      0.0000 
     13 N9A       -14.0900    3.1920  -30.1160 N.pl3     1 NDP501      0.0000 
     14 C8A       -14.1890    2.6850  -31.4410 C.2       1 NDP501      0.0000 
     15 N7A       -15.0370    1.6510  -31.5660 N.2       1 NDP501      0.0000 
     16 C5A       -15.5400    1.4620  -30.2620 C.ar      1 NDP501      0.0000 
     17 C6A       -16.4630    0.5430  -29.7490 C.ar      1 NDP501      0.0000 
     18 N6A       -17.0320   -0.3810  -30.6020 N.pl3     1 NDP501      0.0000 
     19 N1A       -16.8130    0.5360  -28.4170 N.ar      1 NDP501      0.0000 
     20 C2A       -16.1970    1.4940  -27.6370 C.ar      1 NDP501      0.0000 
     21 N3A       -15.2930    2.4380  -27.9790 N.ar      1 NDP501      0.0000 
     22 C4A       -14.9690    2.4080  -29.3350 C.ar      1 NDP501      0.0000 
     23 O3        -11.4940    1.6010  -23.5390 O.3       1 NDP501      0.0000 
     24 PN        -12.5690    1.0020  -22.4840 P.3       1 NDP501      0.0000 
     25 O1N       -12.0600    1.3310  -21.1370 O.co2     1 NDP501      0.0000 
     26 O2N       -14.0300    1.1530  -22.8520 O.co2     1 NDP501      0.0000 
     27 O5D       -12.4240   -0.7740  -22.4570 O.3       1 NDP501      0.0000 
     28 C5D       -12.4910   -1.1580  -21.1250 C.3       1 NDP501      0.0000 
     29 C4D       -13.9550   -1.1530  -20.6640 C.3       1 NDP501      0.0000 
     30 O4D       -14.3900   -2.5100  -20.4150 O.3       1 NDP501      0.0000 
     31 C3D       -14.0490   -0.4180  -19.3030 C.3       1 NDP501      0.0000 
     32 O3D       -14.2040    0.9540  -19.5150 O.3       1 NDP501      0.0000 
     33 C2D       -15.3070   -1.0490  -18.7010 C.3       1 NDP501      0.0000 
     34 O2D       -16.4980   -0.4650  -19.1440 O.3       1 NDP501      0.0000 
     35 C1D       -15.2390   -2.5240  -19.2570 C.3       1 NDP501      0.0000 
     36 N1N       -14.6850   -3.4700  -18.2220 N.pl3     1 NDP501      0.0000 
     37 C2N       -14.8770   -4.8370  -18.3690 C.2       1 NDP501      0.0000 
     38 C3N       -14.7190   -5.6830  -17.3050 C.2       1 NDP501      0.0000 
     39 C7N       -15.0010   -7.1180  -17.5430 C.2       1 NDP501      0.0000 
     40 O7N       -15.9130   -7.7540  -16.9960 O.2       1 NDP501      0.0000 
     41 N7N       -14.1790   -7.7850  -18.4600 N.am      1 NDP501      0.0000 
     42 C4N       -14.2320   -5.1940  -15.9630 C.3       1 NDP501      0.0000 
     43 C5N       -13.8910   -3.7340  -15.9740 C.2       1 NDP501      0.0000 
     44 C6N       -13.9510   -3.0010  -17.0930 C.2       1 NDP501      0.0000 
     45 P2B       -15.8860    6.8150  -28.3050 P.3       1 NDP501      0.0000 
     46 O1X       -16.4950    5.5860  -28.9120 O.co2     1 NDP501      0.0000 
     47 O2X       -15.9210    6.9370  -26.7770 O.co2     1 NDP501      0.0000 
     48 O3X       -16.0300    8.0970  -29.0810 O.co2     1 NDP501      0.0000 
@<TRIPOS>BOND
     1    1    2 ar   
     2    1    3 ar   
     3    1    4 1    
     4    1   23 1    
     5    4    5 1    
     6    5    6 1    
     7    6    7 1    
     8    6    8 1    
     9    7   12 1    
    10    8    9 1    
    11    8   10 1    
    12   10   11 1    
    13   10   12 1    
    14   11   45 1    
    15   12   13 1    
    16   13   14 1    
    17   13   22 1    
    18   14   15 2    
    19   15   16 1    
    20   16   17 ar   
    21   16   22 ar   
    22   17   18 1    
    23   17   19 ar   
    24   19   20 ar   
    25   20   21 ar   
    26   21   22 ar   
    27   23   24 1    
    28   24   25 ar   
    29   24   26 ar   
    30   24   27 1    
    31   27   28 1    
    32   28   29 1    
    33   29   30 1    
    34   29   31 1    
    35   30   35 1    
    36   31   32 1    
    37   31   33 1    
    38   33   34 1    
    39   33   35 1    
    40   35   36 1    
    41   36   37 1    
    42   36   44 1    
    43   37   38 2    
    44   38   39 1    
    45   38   42 1    
    46   39   40 2    
    47   39   41 am   
    48   42   43 1    
    49   43   44 2    
    50   45   46 ar   
    51   45   47 ar   
    52   45   48 ar   
@<TRIPOS>SUBSTRUCTURE
     1 NDP501      1 GROUP   
@<TRIPOS>SET
ATOM$ORANGE STATIC     ATOMS   COLORGROUP SYSTEM 
42 5 5 6 6 8 8 10 10 12 12 14 14 16 16 17 17 20 \
20 22 22 28 28 29 29 31 31 33 33 35 35 37 37 38 38 39 \
39 42 42 43 43 44 44 

