#    Name: 6mqk_4_GDP
#    Modification time : Fri May 22 19:27:29 2020

@<TRIPOS>MOLECULE
6mqk_4_GDP
   28    30     1     0     1
SMALL
NO_CHARGES


@<TRIPOS>ATOM
      1 PB        -67.0170  -21.9480   18.3910 P.3       1 GDP401      0.0000 
      2 O1B       -66.4570  -20.5530   18.5270 O.co2     1 GDP401      0.0000 
      3 O2B       -65.9390  -22.9780   18.5570 O.co2     1 GDP401      0.0000 
      4 O3B       -68.1550  -22.1470   19.3580 O.co2     1 GDP401      0.0000 
      5 O3A       -67.6220  -22.1010   16.9090 O.3       1 GDP401      0.0000 
      6 PA        -69.0940  -21.5980   16.4830 P.3       1 GDP401      0.0000 
      7 O1A       -70.1520  -22.6200   16.8240 O.co2     1 GDP401      0.0000 
      8 O2A       -69.4720  -20.2140   16.9540 O.co2     1 GDP401      0.0000 
      9 O5'       -68.8770  -21.5380   14.8970 O.3       1 GDP401      0.0000 
     10 C5'       -68.0390  -20.5220   14.3440 C.3       1 GDP401      0.0000 
     11 C4'       -68.2160  -20.4660   12.8290 C.3       1 GDP401      0.0000 
     12 O4'       -67.9770  -21.7500   12.2440 O.3       1 GDP401      0.0000 
     13 C3'       -69.6370  -20.0810   12.4640 C.3       1 GDP401      0.0000 
     14 O3'       -69.5710  -19.2400   11.3080 O.3       1 GDP401      0.0000 
     15 C2'       -70.2890  -21.3880   12.0840 C.3       1 GDP401      0.0000 
     16 O2'       -71.3490  -21.1360   11.1650 O.3       1 GDP401      0.0000 
     17 C1'       -69.1170  -22.1400   11.4750 C.3       1 GDP401      0.0000 
     18 N9        -69.1680  -23.6130   11.6160 N.pl3     1 GDP401      0.0000 
     19 C8        -69.5860  -24.3200   12.6770 C.2       1 GDP401      0.0000 
     20 N7        -69.4390  -25.6470   12.4570 N.2       1 GDP401      0.0000 
     21 C5        -68.8890  -25.8010   11.2370 C.2       1 GDP401      0.0000 
     22 C6        -68.4730  -26.9390   10.3850 C.2       1 GDP401      0.0000 
     23 O6        -68.5870  -28.1290   10.7690 O.2       1 GDP401      0.0000 
     24 N1        -67.9540  -26.6460    9.1890 N.am      1 GDP401      0.0000 
     25 C2        -67.8040  -25.3880    8.7450 C.2       1 GDP401      0.0000 
     26 N2        -67.2710  -25.2030    7.5220 N.pl3     1 GDP401      0.0000 
     27 N3        -68.1690  -24.2970    9.4590 N.2       1 GDP401      0.0000 
     28 C4        -68.7080  -24.4530   10.6890 C.2       1 GDP401      0.0000 
@<TRIPOS>BOND
     1    1    2 ar   
     2    1    3 ar   
     3    1    4 ar   
     4    1    5 1    
     5    5    6 1    
     6    6    7 ar   
     7    6    8 ar   
     8    6    9 1    
     9    9   10 1    
    10   10   11 1    
    11   11   12 1    
    12   11   13 1    
    13   12   17 1    
    14   13   14 1    
    15   13   15 1    
    16   15   16 1    
    17   15   17 1    
    18   17   18 1    
    19   18   19 1    
    20   18   28 1    
    21   19   20 2    
    22   20   21 1    
    23   21   22 1    
    24   21   28 2    
    25   22   23 2    
    26   22   24 am   
    27   24   25 1    
    28   25   26 1    
    29   25   27 2    
    30   27   28 1    
@<TRIPOS>SUBSTRUCTURE
     1 GDP401      1 GROUP   
@<TRIPOS>SET
ATOM$ORANGE STATIC     ATOMS   COLORGROUP SYSTEM 
20 10 10 11 11 13 13 15 15 17 17 19 19 21 21 22 22 25 \
25 28 28 

