#    Name: 6mqk_4_GDP_CAVITY_N1_6
#    Modification time : Fri May 22 19:27:31 2020

@<TRIPOS>MOLECULE
6mqk_4_GDP_CAVITY_N1_6
   79     0     7     0     0
SMALL
NO_CHARGES


@<TRIPOS>ATOM
      1 OG        -70.4500  -23.2300   12.6200 O.3       1 SER1        0.0000 
      2 OG        -71.6700  -22.3600   12.6900 O.3       1 SER1        0.0000 
      3 OG        -72.8900  -21.4900   12.7700 O.3       1 SER1        0.0000 
      4 OG        -69.2400  -21.5900   13.1800 O.3       1 SER1        0.0000 
      5 OG        -70.4500  -20.7200   13.2600 O.3       1 SER1        0.0000 
      6 OG        -69.9700  -22.6700   13.9200 O.3       1 SER1        0.0000 
      7 OG        -72.4000  -20.9200   14.0800 O.3       1 SER1        0.0000 
      8 OG        -69.4800  -22.1100   15.2200 O.3       1 SER1        0.0000 
      9 OG        -70.7000  -21.2400   15.3000 O.3       1 SER1        0.0000 
     10 OG        -71.9100  -20.3600   15.3800 O.3       1 SER1        0.0000 
     11 OG        -72.6400  -21.4500   16.1200 O.3       1 SER1        0.0000 
     12 OG        -68.2600  -20.4700   15.7900 O.3       1 SER1        0.0000 
     13 OG        -70.2100  -20.6800   16.6000 O.3       1 SER1        0.0000 
     14 N         -67.7800  -19.4300   11.7000 N.am      2 ALA2        0.0000 
     15 N         -68.5100  -20.5100   12.4400 N.am      2 ALA2        0.0000 
     16 O         -68.0200  -22.4600   13.1000 O.2       2 ALA2        0.0000 
     17 N         -66.8000  -20.8200   13.6700 N.am      2 ALA2        0.0000 
     18 N         -68.0200  -19.9500   13.7400 N.am      2 ALA2        0.0000 
     19 N         -69.2400  -19.0700   13.8200 N.am      2 ALA2        0.0000 
     20 O         -67.5300  -21.9000   14.4000 O.2       2 ALA2        0.0000 
     21 N         -70.4500  -15.6800   14.5400 N.am      2 ALA2        0.0000 
     22 N         -71.6700  -14.8100   14.6200 N.am      2 ALA2        0.0000 
     23 O         -67.0500  -21.3400   15.7100 O.2       2 ALA2        0.0000 
     24 O         -67.7800  -22.4200   16.4500 O.2       2 ALA2        0.0000 
     25 N         -71.4300  -19.8000   16.6800 N.am      2 ALA2        0.0000 
     26 O         -72.6400  -18.9300   16.7600 O.2       2 ALA2        0.0000 
     27 O         -69.7200  -22.6300   17.2600 O.2       2 ALA2        0.0000 
     28 N         -71.4300  -17.2800   17.3200 N.am      2 ALA2        0.0000 
     29 OD1       -68.9900  -23.5900   10.5000 O.co2     3 ASP3        0.0000 
     30 OD1       -69.7200  -24.6700   11.2300 O.co2     3 ASP3        0.0000 
     31 OD1       -67.7800  -21.9400   11.0600 O.co2     3 ASP3        0.0000 
     32 OD1       -68.9900  -21.0700   11.1400 O.co2     3 ASP3        0.0000 
     33 OD1       -68.5100  -23.0200   11.8000 O.co2     3 ASP3        0.0000 
     34 OD1       -69.7200  -22.1500   11.8800 O.co2     3 ASP3        0.0000 
     35 OD1       -70.9400  -21.2800   11.9600 O.co2     3 ASP3        0.0000 
     36 OD1       -67.2900  -21.3800   12.3600 O.co2     3 ASP3        0.0000 
     37 OD1       -68.5000  -20.9900   17.8300 O.co2     3 ASP3        0.0000 
     38 OD1       -69.7200  -20.1100   17.9100 O.co2     3 ASP3        0.0000 
     39 NZ        -70.2100  -20.1900   11.2200 N.4       4 LYS4        0.0000 
     40 NZ        -72.6400  -18.4500   11.3700 N.4       4 LYS4        0.0000 
     41 NZ        -72.1600  -20.4000   12.0300 N.4       4 LYS4        0.0000 
     42 NZ        -73.3700  -19.5300   12.1100 N.4       4 LYS4        0.0000 
     43 NZ        -74.1000  -20.6100   12.8500 N.4       4 LYS4        0.0000 
     44 NZ        -74.3500  -21.1300   14.8900 N.4       4 LYS4        0.0000 
     45 CZ        -68.7500  -18.5100   15.1300 C.ar      5 PHE5        0.0000 
     46 CZ        -69.9700  -17.6400   15.2000 C.ar      5 PHE5        0.0000 
     47 CZ        -71.1800  -16.7600   15.2800 C.ar      5 PHE5        0.0000 
     48 CZ        -69.4800  -19.5900   15.8600 C.ar      5 PHE5        0.0000 
     49 CZ        -70.7000  -18.7200   15.9400 C.ar      5 PHE5        0.0000 
     50 CZ        -70.7000  -16.2000   16.5900 C.ar      5 PHE5        0.0000 
     51 CA        -68.9900  -26.1000    9.8500 C.3       6 GLY6        0.0000 
     52 CA        -68.5100  -25.5400   11.1600 C.3       6 GLY6        0.0000 
     53 CA        -74.5900  -18.6600   12.1900 C.3       6 GLY6        0.0000 
     54 CA        -68.0200  -24.9800   12.4600 C.3       6 GLY6        0.0000 
     55 CA        -69.2400  -24.1100   12.5400 C.3       6 GLY6        0.0000 
     56 CA        -75.3200  -19.7400   12.9300 C.3       6 GLY6        0.0000 
     57 CA        -66.8000  -23.3400   13.0200 C.3       6 GLY6        0.0000 
     58 CA        -72.8900  -18.9700   13.4200 C.3       6 GLY6        0.0000 
     59 CA        -74.1000  -18.0900   13.4900 C.3       6 GLY6        0.0000 
     60 CA        -68.7500  -23.5500   13.8400 C.3       6 GLY6        0.0000 
     61 CA        -73.6200  -20.0500   14.1500 C.3       6 GLY6        0.0000 
     62 CA        -72.8900  -16.4500   14.0600 C.3       6 GLY6        0.0000 
     63 CA        -72.4000  -18.4100   14.7200 C.3       6 GLY6        0.0000 
     64 CA        -73.1300  -19.4900   15.4600 C.3       6 GLY6        0.0000 
     65 CA        -73.8600  -20.5700   16.2000 C.3       6 GLY6        0.0000 
     66 CA        -72.4000  -15.8900   15.3600 C.3       6 GLY6        0.0000 
     67 CA        -71.9100  -17.8500   16.0200 C.3       6 GLY6        0.0000 
     68 CA        -68.9900  -21.5500   16.5200 C.3       6 GLY6        0.0000 
     69 CA        -70.9400  -21.7600   17.3400 C.3       6 GLY6        0.0000 
     70 CA        -71.9100  -15.3300   16.6600 C.3       6 GLY6        0.0000 
     71 CA        -72.6400  -16.4100   17.4000 C.3       6 GLY6        0.0000 
     72 DU        -69.7200  -19.6300   12.5200 H         7 CUB7        0.0000 
     73 DU        -71.6700  -19.8400   13.3400 H         7 CUB7        0.0000 
     74 DU        -72.1600  -15.3700   13.3200 H         7 CUB7        0.0000 
     75 DU        -70.4500  -18.2000   13.9000 H         7 CUB7        0.0000 
     76 DU        -71.6700  -17.3200   13.9800 H         7 CUB7        0.0000 
     77 DU        -68.7500  -21.0300   14.4800 H         7 CUB7        0.0000 
     78 DU        -69.9700  -20.1500   14.5600 H         7 CUB7        0.0000 
     79 DU        -71.1800  -19.2800   14.6400 H         7 CUB7        0.0000 
@<TRIPOS>BOND
@<TRIPOS>SUBSTRUCTURE
     1 SER1        1 GROUP   
     2 ALA2       14 GROUP   
     3 ASP3       29 GROUP   
     4 LYS4       39 GROUP   
     5 PHE5       45 GROUP   
     6 GLY6       51 GROUP   
     7 CUB7       72 GROUP   
@<TRIPOS>SET

