#    Name: 6chd_1_KAA_CAVITY_N1_6
#    Modification time : Fri May 22 19:29:05 2020

@<TRIPOS>MOLECULE
6chd_1_KAA_CAVITY_N1_6
  114     0     7     0     0
SMALL
NO_CHARGES


@<TRIPOS>ATOM
      1 OG         68.6800   19.6800  -13.7800 O.3       1 SER1        0.0000 
      2 OG         67.5600   19.6500  -11.9900 O.3       1 SER1        0.0000 
      3 OG         66.4300   19.6200  -10.1900 O.3       1 SER1        0.0000 
      4 OG         66.2400   20.2200  -11.5500 O.3       1 SER1        0.0000 
      5 OG         68.2500   20.9000  -11.5300 O.3       1 SER1        0.0000 
      6 O          63.1600   15.8500   -4.7900 O.2       2 ALA2        0.0000 
      7 N          65.1700   16.5300   -4.7700 N.am      2 ALA2        0.0000 
      8 N          63.8600   17.1000   -4.3300 N.am      2 ALA2        0.0000 
      9 N          62.5400   17.6700   -3.9000 N.am      2 ALA2        0.0000 
     10 O          60.8500   19.4600   -6.1800 O.2       2 ALA2        0.0000 
     11 O          59.5300   20.0300   -5.7400 O.2       2 ALA2        0.0000 
     12 N          59.3500   20.6400   -7.1000 N.am      2 ALA2        0.0000 
     13 N          64.7400   21.4000  -12.4700 N.am      2 ALA2        0.0000 
     14 O          61.5500   20.7000   -5.7200 O.2       2 ALA2        0.0000 
     15 O          61.3600   21.3100   -7.0800 O.2       2 ALA2        0.0000 
     16 O          60.9800   22.5200   -9.8000 O.2       2 ALA2        0.0000 
     17 O          60.0400   21.8800   -6.6400 O.2       2 ALA2        0.0000 
     18 N          65.4300   22.6500  -12.0100 N.am      2 ALA2        0.0000 
     19 N          64.1200   23.2200  -11.5700 N.am      2 ALA2        0.0000 
     20 O          63.3700   21.9800   -7.0600 O.2       2 ALA2        0.0000 
     21 N          62.8000   23.8000  -11.1400 N.am      2 ALA2        0.0000 
     22 O          61.8700   23.1600   -7.9800 O.2       2 ALA2        0.0000 
     23 O          61.6800   23.7700   -9.3400 O.2       2 ALA2        0.0000 
     24 O          60.5500   23.7300   -7.5400 O.2       2 ALA2        0.0000 
     25 O          60.3600   24.3400   -8.9000 O.2       2 ALA2        0.0000 
     26 N          61.0600   25.5900   -8.4400 N.am      2 ALA2        0.0000 
     27 OD1        63.9100   17.0900   -9.3100 O.co2     3 ASP3        0.0000 
     28 OD1        61.4700   17.6400   -7.0700 O.co2     3 ASP3        0.0000 
     29 OD1        60.1500   18.2100   -6.6400 O.co2     3 ASP3        0.0000 
     30 OD1        66.4900   15.9500   -5.2100 O.co2     3 ASP3        0.0000 
     31 OD1        66.3000   16.5600   -6.5700 O.co2     3 ASP3        0.0000 
     32 OD1        66.1100   17.1600   -7.9300 O.co2     3 ASP3        0.0000 
     33 OD1        65.9200   17.7700   -9.2900 O.co2     3 ASP3        0.0000 
     34 OD1        65.7300   18.3700  -10.6500 O.co2     3 ASP3        0.0000 
     35 OD1        64.6100   18.3400   -8.8500 O.co2     3 ASP3        0.0000 
     36 OD1        63.4800   18.3100   -7.0500 O.co2     3 ASP3        0.0000 
     37 OD1        62.1600   18.8800   -6.6200 O.co2     3 ASP3        0.0000 
     38 OD1        61.9800   19.4900   -7.9800 O.co2     3 ASP3        0.0000 
     39 OD1        60.6600   20.0600   -7.5400 O.co2     3 ASP3        0.0000 
     40 OD1        60.4700   20.6700   -8.9000 O.co2     3 ASP3        0.0000 
     41 OD1        65.1100   20.1900   -9.7500 O.co2     3 ASP3        0.0000 
     42 OD1        64.9300   20.8000  -11.1100 O.co2     3 ASP3        0.0000 
     43 OD1        63.9900   20.1600   -7.9500 O.co2     3 ASP3        0.0000 
     44 OD1        63.8000   20.7700   -9.3100 O.co2     3 ASP3        0.0000 
     45 OD1        63.6100   21.3700  -10.6700 O.co2     3 ASP3        0.0000 
     46 OD1        62.6700   20.7400   -7.5200 O.co2     3 ASP3        0.0000 
     47 OD1        62.4800   21.3400   -8.8800 O.co2     3 ASP3        0.0000 
     48 OD1        62.3000   21.9500  -10.2400 O.co2     3 ASP3        0.0000 
     49 OD1        64.0700   23.2300   -6.6000 O.co2     3 ASP3        0.0000 
     50 OD1        63.8800   23.8300   -7.9600 O.co2     3 ASP3        0.0000 
     51 OD1        62.5600   24.4100   -7.5200 O.co2     3 ASP3        0.0000 
     52 OD1        62.3700   25.0100   -8.8800 O.co2     3 ASP3        0.0000 
     53 OD1        61.2500   24.9800   -7.0800 O.co2     3 ASP3        0.0000 
     54 OD1        65.8900   24.5100   -7.9400 O.co2     3 ASP3        0.0000 
     55 NZ         60.3400   17.6000   -5.2800 N.4       4 LYS4        0.0000 
     56 NZ         59.0300   18.1800   -4.8400 N.4       4 LYS4        0.0000 
     57 NZ         58.8400   18.7800   -6.2000 N.4       4 LYS4        0.0000 
     58 NZ         65.5400   18.9800  -12.0100 N.4       4 LYS4        0.0000 
     59 NZ         58.4100   20.0000   -3.9400 N.4       4 LYS4        0.0000 
     60 NZ         58.2200   20.6000   -5.3000 N.4       4 LYS4        0.0000 
     61 NZ         67.3700   20.2600  -13.3500 N.4       4 LYS4        0.0000 
     62 NZ         66.0500   20.8300  -12.9100 N.4       4 LYS4        0.0000 
     63 NZ         65.8700   17.7700   -4.3100 N.4       4 LYS4        0.0000 
     64 NZ         65.6800   18.3800   -5.6700 N.4       4 LYS4        0.0000 
     65 NZ         65.4900   18.9800   -7.0300 N.4       4 LYS4        0.0000 
     66 NZ         65.3000   19.5900   -8.3900 N.4       4 LYS4        0.0000 
     67 NZ         64.5500   18.3500   -3.8800 N.4       4 LYS4        0.0000 
     68 NZ         64.3600   18.9500   -5.2400 N.4       4 LYS4        0.0000 
     69 NZ         64.1800   19.5600   -6.6000 N.4       4 LYS4        0.0000 
     70 NZ         66.0000   20.8300   -7.9300 N.4       4 LYS4        0.0000 
     71 NZ         64.6800   21.4100   -7.5000 N.4       4 LYS4        0.0000 
     72 NZ         67.8200   22.1100   -9.2700 N.4       4 LYS4        0.0000 
     73 NZ         66.5100   22.6900   -8.8300 N.4       4 LYS4        0.0000 
     74 NZ         65.3800   22.6600   -7.0400 N.4       4 LYS4        0.0000 
     75 NZ         67.3900   23.3300   -7.0200 N.4       4 LYS4        0.0000 
     76 NZ         67.2000   23.9300   -8.3800 N.4       4 LYS4        0.0000 
     77 NZ         66.0800   23.9000   -6.5800 N.4       4 LYS4        0.0000 
     78 CZ         65.6000   15.3100   -7.0300 C.ar      5 PHE5        0.0000 
     79 CZ         65.4100   15.9200   -8.3900 C.ar      5 PHE5        0.0000 
     80 CZ         65.2200   16.5200   -9.7500 C.ar      5 PHE5        0.0000 
     81 CZ         64.2900   15.8800   -6.5900 C.ar      5 PHE5        0.0000 
     82 CZ         64.1000   16.4900   -7.9500 C.ar      5 PHE5        0.0000 
     83 CZ         62.7800   17.0600   -7.5100 C.ar      5 PHE5        0.0000 
     84 CA         65.7900   14.7000   -5.6700 C.3       6 GLY6        0.0000 
     85 CA         64.4700   15.2800   -5.2300 C.3       6 GLY6        0.0000 
     86 CA         62.9700   16.4600   -6.1500 C.3       6 GLY6        0.0000 
     87 CA         61.8400   16.4300   -4.3600 C.3       6 GLY6        0.0000 
     88 CA         61.6600   17.0300   -5.7200 C.3       6 GLY6        0.0000 
     89 CA         61.0400   18.8500   -4.8200 C.3       6 GLY6        0.0000 
     90 CA         59.7200   19.4300   -4.3800 C.3       6 GLY6        0.0000 
     91 CA         63.0500   19.5200   -4.8000 C.3       6 GLY6        0.0000 
     92 CA         62.8600   20.1300   -6.1600 C.3       6 GLY6        0.0000 
     93 CA         61.1700   21.9100   -8.4400 C.3       6 GLY6        0.0000 
     94 CA         59.8500   22.4900   -8.0000 C.3       6 GLY6        0.0000 
     95 CA         59.6700   23.0900   -9.3600 C.3       6 GLY6        0.0000 
     96 CA         63.5600   21.3800   -5.7000 C.3       6 GLY6        0.0000 
     97 CA         61.4900   24.3700  -10.7000 C.3       6 GLY6        0.0000 
     98 CA         60.1700   24.9500  -10.2600 C.3       6 GLY6        0.0000 
     99 CA         59.0500   24.9100   -8.4600 C.3       6 GLY6        0.0000 
    100 CA         63.5000   25.0400  -10.6800 C.3       6 GLY6        0.0000 
    101 DU         64.9800   17.1300   -6.1300 H         7 CUB7        0.0000 
    102 DU         64.7900   17.7400   -7.4900 H         7 CUB7        0.0000 
    103 DU         63.6700   17.7000   -5.6900 H         7 CUB7        0.0000 
    104 DU         62.3500   18.2800   -5.2600 H         7 CUB7        0.0000 
    105 DU         66.9400   21.4700  -11.0900 H         7 CUB7        0.0000 
    106 DU         65.8100   21.4400   -9.2900 H         7 CUB7        0.0000 
    107 DU         65.6200   22.0500  -10.6500 H         7 CUB7        0.0000 
    108 DU         64.5000   22.0100   -8.8600 H         7 CUB7        0.0000 
    109 DU         64.3100   22.6200  -10.2100 H         7 CUB7        0.0000 
    110 DU         63.1800   22.5900   -8.4200 H         7 CUB7        0.0000 
    111 DU         62.9900   23.1900   -9.7800 H         7 CUB7        0.0000 
    112 DU         66.3200   23.2900  -10.1900 H         7 CUB7        0.0000 
    113 DU         65.1900   23.2600   -8.4000 H         7 CUB7        0.0000 
    114 DU         63.6900   24.4400   -9.3200 H         7 CUB7        0.0000 
@<TRIPOS>BOND
@<TRIPOS>SUBSTRUCTURE
     1 SER1        1 GROUP   
     2 ALA2        6 GROUP   
     3 ASP3       27 GROUP   
     4 LYS4       55 GROUP   
     5 PHE5       78 GROUP   
     6 GLY6       84 GROUP   
     7 CUB7      101 GROUP   
@<TRIPOS>SET

