#    Name: 6chd_1_KAA_CAVITY_N1_4
#    Modification time : Fri May 22 19:29:05 2020

@<TRIPOS>MOLECULE
6chd_1_KAA_CAVITY_N1_4
   78     0     7     0     0
SMALL
NO_CHARGES


@<TRIPOS>ATOM
      1 OG         66.4300   19.6200  -10.1900 O.3       1 SER1        0.0000 
      2 O          63.1600   15.8500   -4.7900 O.2       2 ALA2        0.0000 
      3 N          65.1700   16.5300   -4.7700 N.am      2 ALA2        0.0000 
      4 N          63.8600   17.1000   -4.3300 N.am      2 ALA2        0.0000 
      5 N          62.5400   17.6700   -3.9000 N.am      2 ALA2        0.0000 
      6 O          60.8500   19.4600   -6.1800 O.2       2 ALA2        0.0000 
      7 O          59.5300   20.0300   -5.7400 O.2       2 ALA2        0.0000 
      8 N          59.3500   20.6400   -7.1000 N.am      2 ALA2        0.0000 
      9 O          61.5500   20.7000   -5.7200 O.2       2 ALA2        0.0000 
     10 O          61.3600   21.3100   -7.0800 O.2       2 ALA2        0.0000 
     11 O          60.9800   22.5200   -9.8000 O.2       2 ALA2        0.0000 
     12 O          60.0400   21.8800   -6.6400 O.2       2 ALA2        0.0000 
     13 O          63.3700   21.9800   -7.0600 O.2       2 ALA2        0.0000 
     14 O          61.8700   23.1600   -7.9800 O.2       2 ALA2        0.0000 
     15 O          60.5500   23.7300   -7.5400 O.2       2 ALA2        0.0000 
     16 OD1        63.9100   17.0900   -9.3100 O.co2     3 ASP3        0.0000 
     17 OD1        61.4700   17.6400   -7.0700 O.co2     3 ASP3        0.0000 
     18 OD1        60.1500   18.2100   -6.6400 O.co2     3 ASP3        0.0000 
     19 OD1        66.4900   15.9500   -5.2100 O.co2     3 ASP3        0.0000 
     20 OD1        66.3000   16.5600   -6.5700 O.co2     3 ASP3        0.0000 
     21 OD1        66.1100   17.1600   -7.9300 O.co2     3 ASP3        0.0000 
     22 OD1        65.9200   17.7700   -9.2900 O.co2     3 ASP3        0.0000 
     23 OD1        65.7300   18.3700  -10.6500 O.co2     3 ASP3        0.0000 
     24 OD1        64.6100   18.3400   -8.8500 O.co2     3 ASP3        0.0000 
     25 OD1        63.4800   18.3100   -7.0500 O.co2     3 ASP3        0.0000 
     26 OD1        62.1600   18.8800   -6.6200 O.co2     3 ASP3        0.0000 
     27 OD1        61.9800   19.4900   -7.9800 O.co2     3 ASP3        0.0000 
     28 OD1        60.6600   20.0600   -7.5400 O.co2     3 ASP3        0.0000 
     29 OD1        60.4700   20.6700   -8.9000 O.co2     3 ASP3        0.0000 
     30 OD1        65.1100   20.1900   -9.7500 O.co2     3 ASP3        0.0000 
     31 OD1        63.9900   20.1600   -7.9500 O.co2     3 ASP3        0.0000 
     32 OD1        63.8000   20.7700   -9.3100 O.co2     3 ASP3        0.0000 
     33 OD1        63.6100   21.3700  -10.6700 O.co2     3 ASP3        0.0000 
     34 OD1        62.6700   20.7400   -7.5200 O.co2     3 ASP3        0.0000 
     35 OD1        62.4800   21.3400   -8.8800 O.co2     3 ASP3        0.0000 
     36 OD1        62.3000   21.9500  -10.2400 O.co2     3 ASP3        0.0000 
     37 OD1        64.0700   23.2300   -6.6000 O.co2     3 ASP3        0.0000 
     38 NZ         60.3400   17.6000   -5.2800 N.4       4 LYS4        0.0000 
     39 NZ         59.0300   18.1800   -4.8400 N.4       4 LYS4        0.0000 
     40 NZ         58.8400   18.7800   -6.2000 N.4       4 LYS4        0.0000 
     41 NZ         65.5400   18.9800  -12.0100 N.4       4 LYS4        0.0000 
     42 NZ         58.4100   20.0000   -3.9400 N.4       4 LYS4        0.0000 
     43 NZ         58.2200   20.6000   -5.3000 N.4       4 LYS4        0.0000 
     44 NZ         65.8700   17.7700   -4.3100 N.4       4 LYS4        0.0000 
     45 NZ         65.6800   18.3800   -5.6700 N.4       4 LYS4        0.0000 
     46 NZ         65.4900   18.9800   -7.0300 N.4       4 LYS4        0.0000 
     47 NZ         65.3000   19.5900   -8.3900 N.4       4 LYS4        0.0000 
     48 NZ         64.5500   18.3500   -3.8800 N.4       4 LYS4        0.0000 
     49 NZ         64.3600   18.9500   -5.2400 N.4       4 LYS4        0.0000 
     50 NZ         64.1800   19.5600   -6.6000 N.4       4 LYS4        0.0000 
     51 NZ         66.0000   20.8300   -7.9300 N.4       4 LYS4        0.0000 
     52 NZ         64.6800   21.4100   -7.5000 N.4       4 LYS4        0.0000 
     53 NZ         65.3800   22.6600   -7.0400 N.4       4 LYS4        0.0000 
     54 CZ         65.6000   15.3100   -7.0300 C.ar      5 PHE5        0.0000 
     55 CZ         65.4100   15.9200   -8.3900 C.ar      5 PHE5        0.0000 
     56 CZ         65.2200   16.5200   -9.7500 C.ar      5 PHE5        0.0000 
     57 CZ         64.2900   15.8800   -6.5900 C.ar      5 PHE5        0.0000 
     58 CZ         64.1000   16.4900   -7.9500 C.ar      5 PHE5        0.0000 
     59 CZ         62.7800   17.0600   -7.5100 C.ar      5 PHE5        0.0000 
     60 CA         65.7900   14.7000   -5.6700 C.3       6 GLY6        0.0000 
     61 CA         64.4700   15.2800   -5.2300 C.3       6 GLY6        0.0000 
     62 CA         62.9700   16.4600   -6.1500 C.3       6 GLY6        0.0000 
     63 CA         61.8400   16.4300   -4.3600 C.3       6 GLY6        0.0000 
     64 CA         61.6600   17.0300   -5.7200 C.3       6 GLY6        0.0000 
     65 CA         61.0400   18.8500   -4.8200 C.3       6 GLY6        0.0000 
     66 CA         59.7200   19.4300   -4.3800 C.3       6 GLY6        0.0000 
     67 CA         63.0500   19.5200   -4.8000 C.3       6 GLY6        0.0000 
     68 CA         62.8600   20.1300   -6.1600 C.3       6 GLY6        0.0000 
     69 CA         61.1700   21.9100   -8.4400 C.3       6 GLY6        0.0000 
     70 CA         59.8500   22.4900   -8.0000 C.3       6 GLY6        0.0000 
     71 CA         63.5600   21.3800   -5.7000 C.3       6 GLY6        0.0000 
     72 DU         64.9800   17.1300   -6.1300 H         7 CUB7        0.0000 
     73 DU         64.7900   17.7400   -7.4900 H         7 CUB7        0.0000 
     74 DU         63.6700   17.7000   -5.6900 H         7 CUB7        0.0000 
     75 DU         62.3500   18.2800   -5.2600 H         7 CUB7        0.0000 
     76 DU         64.5000   22.0100   -8.8600 H         7 CUB7        0.0000 
     77 DU         63.1800   22.5900   -8.4200 H         7 CUB7        0.0000 
     78 DU         62.9900   23.1900   -9.7800 H         7 CUB7        0.0000 
@<TRIPOS>BOND
@<TRIPOS>SUBSTRUCTURE
     1 SER1        1 GROUP   
     2 ALA2        2 GROUP   
     3 ASP3       16 GROUP   
     4 LYS4       38 GROUP   
     5 PHE5       54 GROUP   
     6 GLY6       60 GROUP   
     7 CUB7       72 GROUP   
@<TRIPOS>SET

