#    Name: 6chd_2_KAA
#    Modification time : Fri May 22 19:29:10 2020

@<TRIPOS>MOLECULE
6chd_2_KAA
   32    34     1     0     0
SMALL
NO_CHARGES


@<TRIPOS>ATOM
      1 NZ         54.9290  -13.6450  -13.5130 N.4       1 KAA601      0.0000 
      2 CE         53.5630  -13.5230  -13.0080 C.3       1 KAA601      0.0000 
      3 CD         52.7730  -12.4390  -13.7040 C.3       1 KAA601      0.0000 
      4 CG         52.4960  -11.2850  -12.7630 C.3       1 KAA601      0.0000 
      5 CB         51.7110  -10.1490  -13.3800 C.3       1 KAA601      0.0000 
      6 CA         51.9790   -9.8590  -14.8840 C.3       1 KAA601      0.0000 
      7 N          53.3010   -9.2720  -15.1560 N.4       1 KAA601      0.0000 
      8 C          50.8950   -8.9080  -15.3190 C.2       1 KAA601      0.0000 
      9 O          51.0730   -7.7210  -15.5680 O.2       1 KAA601      0.0000 
     10 N8         49.5690   -9.4350  -15.3820 N.am      1 KAA601      0.0000 
     11 S1         48.2450   -8.6620  -15.8210 S.o2      1 KAA601      0.0000 
     12 O1S        47.2440   -9.6420  -15.5940 O.2       1 KAA601      0.0000 
     13 O2S        48.4170   -8.0600  -17.0970 O.2       1 KAA601      0.0000 
     14 O5'        47.9860   -7.4180  -14.8480 O.3       1 KAA601      0.0000 
     15 C5'        47.8160   -7.6770  -13.4280 C.3       1 KAA601      0.0000 
     16 C4'        46.4640   -7.1500  -13.0070 C.3       1 KAA601      0.0000 
     17 O4'        46.3110   -5.7610  -13.3660 O.3       1 KAA601      0.0000 
     18 C3'        45.2660   -7.8290  -13.6390 C.3       1 KAA601      0.0000 
     19 O3'        45.0310   -9.0630  -12.9710 O.3       1 KAA601      0.0000 
     20 C2'        44.1560   -6.7920  -13.4230 C.3       1 KAA601      0.0000 
     21 O2'        43.5040   -6.9540  -12.1650 O.3       1 KAA601      0.0000 
     22 C1'        44.9270   -5.4600  -13.4430 C.3       1 KAA601      0.0000 
     23 N9         44.7060   -4.6540  -14.6340 N.pl3     1 KAA601      0.0000 
     24 C8         45.0920   -4.9510  -15.9170 C.2       1 KAA601      0.0000 
     25 N7         44.8530   -3.9940  -16.7840 N.2       1 KAA601      0.0000 
     26 C5         44.2650   -2.9980  -16.0180 C.ar      1 KAA601      0.0000 
     27 C4         44.1490   -3.3970  -14.6950 C.ar      1 KAA601      0.0000 
     28 N3         43.6090   -2.7000  -13.6950 N.ar      1 KAA601      0.0000 
     29 C2         43.1740   -1.5100  -14.1130 C.ar      1 KAA601      0.0000 
     30 N1         43.2270   -0.9840  -15.3400 N.ar      1 KAA601      0.0000 
     31 C6         43.7880   -1.7090  -16.3340 C.ar      1 KAA601      0.0000 
     32 N6         43.9190   -1.1430  -17.5270 N.pl3     1 KAA601      0.0000 
@<TRIPOS>BOND
     1    1    2 1    
     2    2    3 1    
     3    3    4 1    
     4    4    5 1    
     5    5    6 1    
     6    6    7 1    
     7    6    8 1    
     8    8    9 2    
     9    8   10 am   
    10   10   11 1    
    11   11   12 2    
    12   11   13 2    
    13   11   14 1    
    14   14   15 1    
    15   15   16 1    
    16   16   17 1    
    17   16   18 1    
    18   17   22 1    
    19   18   19 1    
    20   18   20 1    
    21   20   21 1    
    22   20   22 1    
    23   22   23 1    
    24   23   24 1    
    25   23   27 1    
    26   24   25 2    
    27   25   26 1    
    28   26   27 ar   
    29   26   31 ar   
    30   27   28 ar   
    31   28   29 ar   
    32   29   30 ar   
    33   30   31 ar   
    34   31   32 1    
@<TRIPOS>SUBSTRUCTURE
     1 KAA601      1 GROUP   
@<TRIPOS>SET

