#    Name: 6chd_2_KAA_CAVITY_N1_8
#    Modification time : Fri May 22 19:29:12 2020

@<TRIPOS>MOLECULE
6chd_2_KAA_CAVITY_N1_8
  140     0     7     0     0
SMALL
NO_CHARGES


@<TRIPOS>ATOM
      1 OG         41.1300   -8.1100  -19.0300 O.3       1 SER1        0.0000 
      2 OG         43.1400   -7.4300  -19.0100 O.3       1 SER1        0.0000 
      3 N          46.3100  -13.4700  -22.1400 N.am      2 ALA2        0.0000 
      4 O          48.7700  -10.9400  -18.0400 O.2       2 ALA2        0.0000 
      5 O          47.4600  -10.3700  -17.6000 O.2       2 ALA2        0.0000 
      6 N          45.5800   -7.9800  -21.2400 N.am      2 ALA2        0.0000 
      7 N          45.3900   -7.3700  -22.6000 N.am      2 ALA2        0.0000 
      8 O          49.4700   -9.6900  -17.5800 O.2       2 ALA2        0.0000 
      9 O          48.3400   -9.7300  -15.7900 O.2       2 ALA2        0.0000 
     10 O          48.1600   -9.1200  -17.1400 O.2       2 ALA2        0.0000 
     11 N          46.2800   -6.7300  -20.7900 N.am      2 ALA2        0.0000 
     12 O          50.5400   -9.6600  -14.4000 O.2       2 ALA2        0.0000 
     13 O          50.3600   -9.0500  -15.7600 O.2       2 ALA2        0.0000 
     14 N          48.1000   -9.1200  -12.1700 N.am      2 ALA2        0.0000 
     15 N          46.7900   -8.5400  -11.7300 N.am      2 ALA2        0.0000 
     16 O          45.2800   -7.3600  -12.6500 O.2       2 ALA2        0.0000 
     17 N          43.9700   -6.7900  -12.2200 N.am      2 ALA2        0.0000 
     18 OD1        46.5000  -14.0800  -20.7800 O.co2     3 ASP3        0.0000 
     19 OD1        45.1800  -13.5000  -20.3400 O.co2     3 ASP3        0.0000 
     20 OD1        47.1900  -12.8300  -20.3200 O.co2     3 ASP3        0.0000 
     21 OD1        45.8800  -12.2500  -19.8800 O.co2     3 ASP3        0.0000 
     22 OD1        46.7600  -11.6100  -18.0600 O.co2     3 ASP3        0.0000 
     23 OD1        42.0100   -7.4700  -17.2100 O.co2     3 ASP3        0.0000 
     24 OD1        47.9700   -8.5100  -18.5000 O.co2     3 ASP3        0.0000 
     25 OD1        47.7800   -7.9100  -19.8600 O.co2     3 ASP3        0.0000 
     26 OD1        46.8400   -8.5500  -16.7100 O.co2     3 ASP3        0.0000 
     27 OD1        46.6500   -7.9400  -18.0700 O.co2     3 ASP3        0.0000 
     28 OD1        46.4600   -7.3400  -19.4300 O.co2     3 ASP3        0.0000 
     29 OD1        45.3400   -7.3700  -17.6300 O.co2     3 ASP3        0.0000 
     30 OD1        44.2100   -7.4000  -15.8300 O.co2     3 ASP3        0.0000 
     31 OD1        42.7100   -6.2200  -16.7500 O.co2     3 ASP3        0.0000 
     32 OD1        49.0400   -8.4800  -15.3300 O.co2     3 ASP3        0.0000 
     33 OD1        48.8500   -7.8700  -16.6900 O.co2     3 ASP3        0.0000 
     34 OD1        47.5400   -7.3000  -16.2500 O.co2     3 ASP3        0.0000 
     35 OD1        46.2200   -6.7300  -15.8100 O.co2     3 ASP3        0.0000 
     36 OD1        44.7200   -5.5500  -16.7300 O.co2     3 ASP3        0.0000 
     37 OD1        43.7800   -6.1800  -13.5800 O.co2     3 ASP3        0.0000 
     38 OD1        43.5900   -5.5800  -14.9400 O.co2     3 ASP3        0.0000 
     39 OD1        43.4000   -4.9700  -16.3000 O.co2     3 ASP3        0.0000 
     40 OD1        49.7400   -7.2300  -14.8700 O.co2     3 ASP3        0.0000 
     41 OD1        48.4200   -6.6600  -14.4300 O.co2     3 ASP3        0.0000 
     42 OD1        46.9200   -5.4800  -15.3500 O.co2     3 ASP3        0.0000 
     43 OD1        44.1000   -3.7300  -15.8400 O.co2     3 ASP3        0.0000 
     44 OD1        43.1600   -4.3600  -12.6800 O.co2     3 ASP3        0.0000 
     45 OD1        42.9700   -3.7600  -14.0400 O.co2     3 ASP3        0.0000 
     46 OD1        42.7800   -3.1500  -15.4000 O.co2     3 ASP3        0.0000 
     47 NZ         44.9900  -12.9000  -21.7000 N.4       4 LYS4        0.0000 
     48 NZ         43.8700  -12.9300  -19.9000 N.4       4 LYS4        0.0000 
     49 NZ         43.6800  -12.3200  -21.2600 N.4       4 LYS4        0.0000 
     50 NZ         42.5500  -12.3500  -19.4600 N.4       4 LYS4        0.0000 
     51 NZ         41.2400  -11.7800  -19.0300 N.4       4 LYS4        0.0000 
     52 NZ         41.0500  -11.1800  -20.3900 N.4       4 LYS4        0.0000 
     53 NZ         39.9200  -11.2100  -18.5900 N.4       4 LYS4        0.0000 
     54 NZ         44.5600  -11.6800  -19.4400 N.4       4 LYS4        0.0000 
     55 NZ         43.2500  -11.1100  -19.0000 N.4       4 LYS4        0.0000 
     56 NZ         43.0600  -10.5000  -20.3600 N.4       4 LYS4        0.0000 
     57 NZ         42.8700   -9.9000  -21.7200 N.4       4 LYS4        0.0000 
     58 NZ         41.9300  -10.5300  -18.5700 N.4       4 LYS4        0.0000 
     59 NZ         40.6200   -9.9600  -18.1300 N.4       4 LYS4        0.0000 
     60 NZ         45.4500  -11.0400  -17.6200 N.4       4 LYS4        0.0000 
     61 NZ         45.2600  -10.4300  -18.9800 N.4       4 LYS4        0.0000 
     62 NZ         44.6900   -8.6200  -23.0600 N.4       4 LYS4        0.0000 
     63 NZ         43.9400   -9.8600  -18.5500 N.4       4 LYS4        0.0000 
     64 NZ         42.6300   -9.2900  -18.1100 N.4       4 LYS4        0.0000 
     65 NZ         41.3100   -8.7100  -17.6700 N.4       4 LYS4        0.0000 
     66 NZ         46.1400   -9.7900  -17.1700 N.4       4 LYS4        0.0000 
     67 NZ         44.8300   -9.2200  -16.7300 N.4       4 LYS4        0.0000 
     68 NZ         44.6400   -8.6100  -18.0900 N.4       4 LYS4        0.0000 
     69 NZ         44.0800   -6.8000  -22.1700 N.4       4 LYS4        0.0000 
     70 NZ         43.8900   -6.1900  -23.5300 N.4       4 LYS4        0.0000 
     71 NZ         43.5100   -8.6500  -16.2900 N.4       4 LYS4        0.0000 
     72 NZ         43.3300   -8.0400  -17.6500 N.4       4 LYS4        0.0000 
     73 NZ         47.0300   -9.1500  -15.3500 N.4       4 LYS4        0.0000 
     74 NZ         45.9000   -9.1800  -13.5500 N.4       4 LYS4        0.0000 
     75 NZ         45.7100   -8.5800  -14.9100 N.4       4 LYS4        0.0000 
     76 NZ         45.5300   -7.9700  -16.2700 N.4       4 LYS4        0.0000 
     77 NZ         44.5900   -8.6100  -13.1100 N.4       4 LYS4        0.0000 
     78 NZ         44.4000   -8.0000  -14.4700 N.4       4 LYS4        0.0000 
     79 NZ         51.2400   -8.4100  -13.9500 N.4       4 LYS4        0.0000 
     80 NZ         51.0500   -7.8100  -15.3100 N.4       4 LYS4        0.0000 
     81 NZ         49.9200   -7.8400  -13.5100 N.4       4 LYS4        0.0000 
     82 CZ         43.2100   -4.3700  -17.6500 C.ar      5 PHE5        0.0000 
     83 CZ         47.1100   -6.0800  -13.9900 C.ar      5 PHE5        0.0000 
     84 CZ         45.7900   -5.5100  -13.5600 C.ar      5 PHE5        0.0000 
     85 CZ         45.6000   -4.9100  -14.9100 C.ar      5 PHE5        0.0000 
     86 CZ         45.4100   -4.3000  -16.2700 C.ar      5 PHE5        0.0000 
     87 CZ         44.2900   -4.3300  -14.4800 C.ar      5 PHE5        0.0000 
     88 CZ         43.9100   -3.1200  -17.2000 C.ar      5 PHE5        0.0000 
     89 CZ         42.6000   -2.5500  -16.7600 C.ar      5 PHE5        0.0000 
     90 CZ         45.1700   -3.6900  -12.6600 C.ar      5 PHE5        0.0000 
     91 CZ         44.8000   -2.4800  -15.3800 C.ar      5 PHE5        0.0000 
     92 CZ         44.6100   -1.8700  -16.7400 C.ar      5 PHE5        0.0000 
     93 CZ         43.6700   -2.5100  -13.5800 C.ar      5 PHE5        0.0000 
     94 CZ         43.4800   -1.9100  -14.9400 C.ar      5 PHE5        0.0000 
     95 CA         44.4800  -14.7500  -20.8000 C.3       6 GLY6        0.0000 
     96 CA         47.0000  -12.2200  -21.6800 C.3       6 GLY6        0.0000 
     97 CA         45.6900  -11.6500  -21.2400 C.3       6 GLY6        0.0000 
     98 CA         45.5000  -11.0400  -22.6000 C.3       6 GLY6        0.0000 
     99 CA         45.3100  -10.4400  -23.9600 C.3       6 GLY6        0.0000 
    100 CA         47.8900  -11.5800  -19.8600 C.3       6 GLY6        0.0000 
    101 CA         46.5700  -11.0100  -19.4200 C.3       6 GLY6        0.0000 
    102 CA         46.3900  -10.4000  -20.7800 C.3       6 GLY6        0.0000 
    103 CA         46.0100   -9.1900  -23.5000 C.3       6 GLY6        0.0000 
    104 CA         44.8800   -9.2200  -21.7000 C.3       6 GLY6        0.0000 
    105 CA         48.5900  -10.3300  -19.4000 C.3       6 GLY6        0.0000 
    106 CA         47.0800   -9.1600  -20.3200 C.3       6 GLY6        0.0000 
    107 CA         49.2800   -9.0900  -18.9400 C.3       6 GLY6        0.0000 
    108 CA         47.2200   -9.7600  -13.9900 C.3       6 GLY6        0.0000 
    109 CA         50.1700   -8.4500  -17.1200 C.3       6 GLY6        0.0000 
    110 CA         49.4200   -9.6900  -12.6100 C.3       6 GLY6        0.0000 
    111 CA         49.2300   -9.0800  -13.9700 C.3       6 GLY6        0.0000 
    112 CA         47.9100   -8.5100  -13.5300 C.3       6 GLY6        0.0000 
    113 CA         50.1100   -8.4400  -12.1500 C.3       6 GLY6        0.0000 
    114 CA         48.8000   -7.8700  -11.7100 C.3       6 GLY6        0.0000 
    115 CA         48.6100   -7.2600  -13.0700 C.3       6 GLY6        0.0000 
    116 CA         47.4800   -7.2900  -11.2700 C.3       6 GLY6        0.0000 
    117 CA         47.2900   -6.6900  -12.6300 C.3       6 GLY6        0.0000 
    118 CA         45.9800   -6.1200  -12.2000 C.3       6 GLY6        0.0000 
    119 CA         44.4800   -4.9400  -13.1200 C.3       6 GLY6        0.0000 
    120 CA         43.2900   -1.3000  -16.3000 C.3       6 GLY6        0.0000 
    121 DU         44.3700  -11.0800  -20.8000 H         7 CUB7        0.0000 
    122 DU         44.1900  -10.4700  -22.1600 H         7 CUB7        0.0000 
    123 DU         41.7400   -9.9300  -19.9300 H         7 CUB7        0.0000 
    124 DU         40.4300   -9.3500  -19.4900 H         7 CUB7        0.0000 
    125 DU         39.1100   -8.7800  -19.0500 H         7 CUB7        0.0000 
    126 DU         45.0700   -9.8300  -20.3400 H         7 CUB7        0.0000 
    127 DU         43.7600   -9.2600  -19.9100 H         7 CUB7        0.0000 
    128 DU         42.4400   -8.6800  -19.4700 H         7 CUB7        0.0000 
    129 DU         42.2500   -8.0800  -20.8300 H         7 CUB7        0.0000 
    130 DU         47.2700   -9.7600  -18.9600 H         7 CUB7        0.0000 
    131 DU         45.9600   -9.1900  -18.5300 H         7 CUB7        0.0000 
    132 DU         45.7700   -8.5800  -19.8800 H         7 CUB7        0.0000 
    133 DU         44.4500   -8.0100  -19.4500 H         7 CUB7        0.0000 
    134 DU         44.2600   -7.4000  -20.8100 H         7 CUB7        0.0000 
    135 DU         44.0200   -6.7900  -17.1900 H         7 CUB7        0.0000 
    136 DU         47.7300   -7.9000  -14.8900 H         7 CUB7        0.0000 
    137 DU         46.6000   -7.9400  -13.0900 H         7 CUB7        0.0000 
    138 DU         46.4100   -7.3300  -14.4500 H         7 CUB7        0.0000 
    139 DU         45.0900   -6.7600  -14.0100 H         7 CUB7        0.0000 
    140 DU         44.9100   -6.1500  -15.3700 H         7 CUB7        0.0000 
@<TRIPOS>BOND
@<TRIPOS>SUBSTRUCTURE
     1 SER1        1 GROUP   
     2 ALA2        3 GROUP   
     3 ASP3       18 GROUP   
     4 LYS4       47 GROUP   
     5 PHE5       82 GROUP   
     6 GLY6       95 GROUP   
     7 CUB7      121 GROUP   
@<TRIPOS>SET

