#    Name: 6chd_1_KAA
#    Modification time : Fri May 22 19:29:03 2020

@<TRIPOS>MOLECULE
6chd_1_KAA
   32    34     1     0     0
SMALL
NO_CHARGES


@<TRIPOS>ATOM
      1 NZ         55.2880   22.7890   -2.4750 N.4       1 KAA601      0.0000 
      2 CE         56.5400   22.1910   -2.0560 C.3       1 KAA601      0.0000 
      3 CD         57.3630   21.7500   -3.2390 C.3       1 KAA601      0.0000 
      4 CG         57.6820   20.2750   -3.1510 C.3       1 KAA601      0.0000 
      5 CB         58.5850   19.7870   -4.2530 C.3       1 KAA601      0.0000 
      6 CA         58.2290   20.2930   -5.6650 C.3       1 KAA601      0.0000 
      7 N          56.8840   19.8830   -6.1200 N.4       1 KAA601      0.0000 
      8 C          59.3250   19.7450   -6.5450 C.2       1 KAA601      0.0000 
      9 O          59.1610   18.9560   -7.4700 O.2       1 KAA601      0.0000 
     10 N8         60.6350   20.1620   -6.1890 N.am      1 KAA601      0.0000 
     11 S1         61.9800   19.7380   -6.9310 S.o2      1 KAA601      0.0000 
     12 O1S        63.0700   20.3050   -6.2200 O.2       1 KAA601      0.0000 
     13 O2S        61.8560   19.8950   -8.3360 O.2       1 KAA601      0.0000 
     14 O5'        62.1380   18.1580   -6.7620 O.3       1 KAA601      0.0000 
     15 C5'        62.0540   17.5720   -5.4330 C.3       1 KAA601      0.0000 
     16 C4'        63.3130   16.7790   -5.1900 C.3       1 KAA601      0.0000 
     17 O4'        63.4990   15.7780   -6.2140 O.3       1 KAA601      0.0000 
     18 C3'        64.6050   17.5750   -5.2060 C.3       1 KAA601      0.0000 
     19 O3'        64.8090   18.2260   -3.9600 O.3       1 KAA601      0.0000 
     20 C2'        65.6490   16.4800   -5.4400 C.3       1 KAA601      0.0000 
     21 O2'        65.9690   15.8400   -4.2150 O.3       1 KAA601      0.0000 
     22 C1'        64.8880   15.4900   -6.3370 C.3       1 KAA601      0.0000 
     23 N9         65.2620   15.5510   -7.7480 N.pl3     1 KAA601      0.0000 
     24 C8         65.0130   16.5680   -8.6310 C.2       1 KAA601      0.0000 
     25 N7         65.3700   16.3050   -9.8660 N.2       1 KAA601      0.0000 
     26 C5         65.9000   15.0240   -9.7880 C.ar      1 KAA601      0.0000 
     27 C4         65.8590   14.5580   -8.4880 C.ar      1 KAA601      0.0000 
     28 N3         66.3050   13.3730   -8.0500 N.ar      1 KAA601      0.0000 
     29 C2         66.8210   12.6540   -9.0500 C.ar      1 KAA601      0.0000 
     30 N1         66.9070   12.9640  -10.3430 N.ar      1 KAA601      0.0000 
     31 C6         66.4300   14.1560  -10.7600 C.ar      1 KAA601      0.0000 
     32 N6         66.4140   14.4060  -12.0700 N.pl3     1 KAA601      0.0000 
@<TRIPOS>BOND
     1    1    2 1    
     2    2    3 1    
     3    3    4 1    
     4    4    5 1    
     5    5    6 1    
     6    6    7 1    
     7    6    8 1    
     8    8    9 2    
     9    8   10 am   
    10   10   11 1    
    11   11   12 2    
    12   11   13 2    
    13   11   14 1    
    14   14   15 1    
    15   15   16 1    
    16   16   17 1    
    17   16   18 1    
    18   17   22 1    
    19   18   19 1    
    20   18   20 1    
    21   20   21 1    
    22   20   22 1    
    23   22   23 1    
    24   23   24 1    
    25   23   27 1    
    26   24   25 2    
    27   25   26 1    
    28   26   27 ar   
    29   26   31 ar   
    30   27   28 ar   
    31   28   29 ar   
    32   29   30 ar   
    33   30   31 ar   
    34   31   32 1    
@<TRIPOS>SUBSTRUCTURE
     1 KAA601      1 GROUP   
@<TRIPOS>SET

