#    Name: 6gvm_2_GDP_CAVITY_N1_4
#    Modification time : Fri May 22 19:23:56 2020

@<TRIPOS>MOLECULE
6gvm_2_GDP_CAVITY_N1_4
   94     0     6     0     0
SMALL
NO_CHARGES


@<TRIPOS>ATOM
      1 OG         33.7400  -43.3200   11.8500 O.3       1 SER1        0.0000 
      2 OG         32.1900  -38.9600   13.6900 O.3       1 SER1        0.0000 
      3 OG         32.4400  -35.8100   12.5600 O.3       1 SER1        0.0000 
      4 OG         32.8800  -37.2500   12.6500 O.3       1 SER1        0.0000 
      5 OG         34.6300  -42.9700   13.0000 O.3       1 SER1        0.0000 
      6 OG         35.0700  -44.4100   13.0900 O.3       1 SER1        0.0000 
      7 OG         33.0900  -38.6200   14.8400 O.3       1 SER1        0.0000 
      8 OG         33.3300  -35.4700   13.7100 O.3       1 SER1        0.0000 
      9 OG         33.7700  -36.9000   13.8000 O.3       1 SER1        0.0000 
     10 OG         33.7900  -33.6900   14.7800 O.3       1 SER1        0.0000 
     11 OG         34.9100  -33.4100   13.8300 O.3       1 SER1        0.0000 
     12 O          33.3000  -41.8900   11.7600 O.2       2 ALA2        0.0000 
     13 O          34.4300  -41.6000   10.8100 O.2       2 ALA2        0.0000 
     14 O          34.8600  -43.0300   10.9000 O.2       2 ALA2        0.0000 
     15 O          35.5500  -41.3200    9.8500 O.2       2 ALA2        0.0000 
     16 O          35.9900  -42.7500    9.9400 O.2       2 ALA2        0.0000 
     17 N          34.0100  -36.9600   11.6900 N.am      2 ALA2        0.0000 
     18 N          34.4400  -38.3900   11.7800 N.am      2 ALA2        0.0000 
     19 N          34.8800  -39.8300   11.8700 N.am      2 ALA2        0.0000 
     20 N          35.3200  -41.2600   11.9600 N.am      2 ALA2        0.0000 
     21 O          36.4400  -40.9700   11.0100 O.2       2 ALA2        0.0000 
     22 O          33.5200  -40.0500   14.9300 O.2       2 ALA2        0.0000 
     23 O          32.4600  -32.6100   13.5300 O.2       2 ALA2        0.0000 
     24 O          33.5800  -32.3200   12.5800 O.2       2 ALA2        0.0000 
     25 N          35.7700  -39.4800   13.0300 N.am      2 ALA2        0.0000 
     26 N          36.2100  -40.9100   13.1200 N.am      2 ALA2        0.0000 
     27 N          36.9000  -39.2000   12.0800 N.am      2 ALA2        0.0000 
     28 N          37.3300  -40.6300   12.1700 N.am      2 ALA2        0.0000 
     29 O          32.2300  -32.5400   15.6400 O.2       2 ALA2        0.0000 
     30 N          32.6600  -33.9800   15.7300 N.am      2 ALA2        0.0000 
     31 O          36.2300  -37.7000   14.1000 O.2       2 ALA2        0.0000 
     32 N          37.5400  -42.0000   14.3600 N.am      2 ALA2        0.0000 
     33 N          31.9900  -32.4800   17.7500 N.am      2 ALA2        0.0000 
     34 O          33.1200  -32.2000   16.8000 O.2       2 ALA2        0.0000 
     35 N          33.5500  -33.6300   16.8900 N.am      2 ALA2        0.0000 
     36 O          35.5500  -36.2100   16.1100 O.2       2 ALA2        0.0000 
     37 N          32.8800  -32.1400   18.9000 N.am      2 ALA2        0.0000 
     38 N          34.4500  -33.2900   18.0400 N.am      2 ALA2        0.0000 
     39 O          36.4500  -35.8700   17.2700 O.2       2 ALA2        0.0000 
     40 N          34.2100  -33.2300   20.1500 N.am      2 ALA2        0.0000 
     41 N          35.3400  -32.9400   19.2000 N.am      2 ALA2        0.0000 
     42 O          37.3400  -35.5200   18.4300 O.2       2 ALA2        0.0000 
     43 O          37.7700  -36.9500   18.5200 O.2       2 ALA2        0.0000 
     44 O          38.4600  -35.2400   17.4800 O.2       2 ALA2        0.0000 
     45 O          36.6700  -34.0300   20.4400 O.2       2 ALA2        0.0000 
     46 NZ         33.1300  -34.1000   11.5100 N.4       3 LYS4        0.0000 
     47 NZ         33.5700  -35.5300   11.6000 N.4       3 LYS4        0.0000 
     48 NZ         36.1900  -44.1200   12.1400 N.4       3 LYS4        0.0000 
     49 NZ         36.8800  -42.4100   11.1000 N.4       3 LYS4        0.0000 
     50 NZ         34.4000  -42.9100   15.1100 N.4       3 LYS4        0.0000 
     51 NZ         35.5200  -42.6300   14.1600 N.4       3 LYS4        0.0000 
     52 NZ         35.9600  -44.0600   14.2500 N.4       3 LYS4        0.0000 
     53 NZ         34.0200  -33.7500   12.6700 N.4       3 LYS4        0.0000 
     54 NZ         34.4600  -35.1900   12.7600 N.4       3 LYS4        0.0000 
     55 NZ         34.9000  -36.6200   12.8500 N.4       3 LYS4        0.0000 
     56 NZ         35.3300  -38.0500   12.9400 N.4       3 LYS4        0.0000 
     57 NZ         36.6500  -42.3400   13.2100 N.4       3 LYS4        0.0000 
     58 NZ         37.0800  -43.7800   13.3000 N.4       3 LYS4        0.0000 
     59 NZ         36.4600  -37.7600   11.9900 N.4       3 LYS4        0.0000 
     60 NZ         35.3500  -34.8400   13.9200 N.4       3 LYS4        0.0000 
     61 NZ         35.7900  -36.2700   14.0100 N.4       3 LYS4        0.0000 
     62 NZ         37.3500  -37.4200   13.1400 N.4       3 LYS4        0.0000 
     63 CZ         34.6800  -33.3500   15.9300 C.ar      4 PHE5        0.0000 
     64 CZ         36.2400  -34.5000   15.0700 C.ar      4 PHE5        0.0000 
     65 CZ         34.0100  -31.8600   17.9500 C.ar      4 PHE5        0.0000 
     66 CZ         35.5700  -33.0000   17.0900 C.ar      4 PHE5        0.0000 
     67 CZ         36.0100  -34.4400   17.1800 C.ar      4 PHE5        0.0000 
     68 CZ         36.9000  -34.0900   18.3400 C.ar      4 PHE5        0.0000 
     69 CZ         39.3500  -34.8900   18.6300 C.ar      4 PHE5        0.0000 
     70 CA         33.0700  -41.8300   13.8700 C.3       5 GLY6        0.0000 
     71 CA         31.5700  -32.9500   12.3800 C.3       5 GLY6        0.0000 
     72 CA         32.0100  -34.3800   12.4700 C.3       5 GLY6        0.0000 
     73 CA         33.3200  -38.6800   12.7300 C.3       5 GLY6        0.0000 
     74 CA         33.7600  -40.1100   12.8200 C.3       5 GLY6        0.0000 
     75 CA         31.7700  -34.3200   14.5700 C.3       5 GLY6        0.0000 
     76 CA         32.9000  -34.0400   13.6200 C.3       5 GLY6        0.0000 
     77 CA         34.2100  -38.3300   13.8900 C.3       5 GLY6        0.0000 
     78 CA         34.6500  -39.7700   13.9800 C.3       5 GLY6        0.0000 
     79 CA         35.0800  -41.2000   14.0700 C.3       5 GLY6        0.0000 
     80 CA         34.2300  -35.1200   14.8700 C.3       5 GLY6        0.0000 
     81 CA         34.6600  -36.5600   14.9600 C.3       5 GLY6        0.0000 
     82 CA         35.1000  -37.9900   15.0500 C.3       5 GLY6        0.0000 
     83 CA         36.4100  -42.2800   15.3200 C.3       5 GLY6        0.0000 
     84 CA         36.8500  -43.7200   15.4100 C.3       5 GLY6        0.0000 
     85 CA         35.1200  -34.7800   16.0200 C.3       5 GLY6        0.0000 
     86 CA         34.8800  -34.7200   18.1300 C.3       5 GLY6        0.0000 
     87 CA         35.7700  -34.3700   19.2900 C.3       5 GLY6        0.0000 
     88 CA         36.2100  -35.8100   19.3800 C.3       5 GLY6        0.0000 
     89 CA         37.7900  -33.7500   19.4900 C.3       5 GLY6        0.0000 
     90 CA         38.2300  -35.1800   19.5800 C.3       5 GLY6        0.0000 
     91 CA         38.6800  -33.4000   20.6500 C.3       5 GLY6        0.0000 
     92 CA         39.1200  -34.8300   20.7400 C.3       5 GLY6        0.0000 
     93 DU         34.1900  -41.5400   12.9100 H         6 CUB7        0.0000 
     94 DU         35.7600  -42.6900   12.0500 H         6 CUB7        0.0000 
@<TRIPOS>BOND
@<TRIPOS>SUBSTRUCTURE
     1 SER1        1 GROUP   
     2 ALA2       12 GROUP   
     3 LYS4       46 GROUP   
     4 PHE5       63 GROUP   
     5 GLY6       70 GROUP   
     6 CUB7       93 GROUP   
@<TRIPOS>SET

