#    Name: 6gvm_2_GDP
#    Modification time : Fri May 22 19:23:54 2020

@<TRIPOS>MOLECULE
6gvm_2_GDP
   28    30     1     0     1
SMALL
NO_CHARGES


@<TRIPOS>ATOM
      1 PB         33.1050  -41.2720   13.3190 P.3       1 GDP501      0.0000 
      2 O1B        33.3280  -41.9510   11.9420 O.co2     1 GDP501      0.0000 
      3 O2B        31.5850  -41.0060   13.5380 O.co2     1 GDP501      0.0000 
      4 O3B        33.7220  -42.0840   14.4300 O.co2     1 GDP501      0.0000 
      5 O3A        33.7750  -39.8260   13.2310 O.3       1 GDP501      0.0000 
      6 PA         33.4790  -38.4680   14.0110 P.3       1 GDP501      0.0000 
      7 O1A        34.8050  -37.8520   14.4840 O.co2     1 GDP501      0.0000 
      8 O2A        32.6270  -38.7860   15.1840 O.co2     1 GDP501      0.0000 
      9 O5'        32.7490  -37.3980   13.0620 O.3       1 GDP501      0.0000 
     10 C5'        33.3950  -36.2600   12.4560 C.3       1 GDP501      0.0000 
     11 C4'        32.4850  -35.0600   12.5720 C.3       1 GDP501      0.0000 
     12 O4'        32.3290  -34.7010   13.9590 O.3       1 GDP501      0.0000 
     13 C3'        32.9580  -33.7840   11.8820 C.3       1 GDP501      0.0000 
     14 O3'        31.8620  -32.9620   11.4870 O.3       1 GDP501      0.0000 
     15 C2'        33.8070  -33.1240   12.9670 C.3       1 GDP501      0.0000 
     16 O2'        33.8840  -31.7120   12.8020 O.3       1 GDP501      0.0000 
     17 C1'        33.0410  -33.5100   14.2400 C.3       1 GDP501      0.0000 
     18 N9         33.9050  -33.7610   15.4060 N.pl3     1 GDP501      0.0000 
     19 C8         34.8490  -34.7510   15.5470 C.2       1 GDP501      0.0000 
     20 N7         35.4420  -34.7470   16.7190 N.2       1 GDP501      0.0000 
     21 C5         34.8560  -33.6840   17.3940 C.2       1 GDP501      0.0000 
     22 C6         35.0620  -33.1470   18.7390 C.2       1 GDP501      0.0000 
     23 O6         35.8450  -33.5510   19.5980 O.2       1 GDP501      0.0000 
     24 N1         34.2450  -32.0620   18.9990 N.am      1 GDP501      0.0000 
     25 C2         33.3320  -31.5280   18.1300 C.2       1 GDP501      0.0000 
     26 N2         32.5930  -30.5180   18.5850 N.pl3     1 GDP501      0.0000 
     27 N3         33.1290  -31.9900   16.8950 N.2       1 GDP501      0.0000 
     28 C4         33.9080  -33.0630   16.5930 C.2       1 GDP501      0.0000 
@<TRIPOS>BOND
     1    1    2 ar   
     2    1    3 ar   
     3    1    4 ar   
     4    1    5 1    
     5    5    6 1    
     6    6    7 ar   
     7    6    8 ar   
     8    6    9 1    
     9    9   10 1    
    10   10   11 1    
    11   11   12 1    
    12   11   13 1    
    13   12   17 1    
    14   13   14 1    
    15   13   15 1    
    16   15   16 1    
    17   15   17 1    
    18   17   18 1    
    19   18   19 1    
    20   18   28 1    
    21   19   20 2    
    22   20   21 1    
    23   21   22 1    
    24   21   28 2    
    25   22   23 2    
    26   22   24 am   
    27   24   25 1    
    28   25   26 1    
    29   25   27 2    
    30   27   28 1    
@<TRIPOS>SUBSTRUCTURE
     1 GDP501      1 GROUP   
@<TRIPOS>SET
ATOM$ORANGE STATIC     ATOMS   COLORGROUP SYSTEM 
20 10 10 11 11 13 13 15 15 17 17 19 19 21 21 22 22 25 \
25 28 28 

