#    Name: 6gvm_1_GTP_CAVITY_N1_8
#    Modification time : Fri May 22 19:23:52 2020

@<TRIPOS>MOLECULE
6gvm_1_GTP_CAVITY_N1_8
   45     0     4     0     0
SMALL
NO_CHARGES


@<TRIPOS>ATOM
      1 N           7.6000  -21.4400   37.1500 N.am      1 ALA2        0.0000 
      2 N           6.6800  -23.1000   40.3000 N.am      1 ALA2        0.0000 
      3 N           7.1200  -24.5300   40.3900 N.am      1 ALA2        0.0000 
      4 N           6.9300  -19.9500   39.1700 N.am      1 ALA2        0.0000 
      5 N           7.3600  -21.3800   39.2600 N.am      1 ALA2        0.0000 
      6 N           7.8000  -22.8100   39.3500 N.am      1 ALA2        0.0000 
      7 N           6.4400  -23.0400   42.4100 N.am      1 ALA2        0.0000 
      8 N           7.5700  -22.7500   41.4500 N.am      1 ALA2        0.0000 
      9 N           8.0100  -24.1800   41.5400 N.am      1 ALA2        0.0000 
     10 N           9.5700  -25.3300   40.6800 N.am      1 ALA2        0.0000 
     11 N           6.4600  -19.8300   43.3800 N.am      1 ALA2        0.0000 
     12 N           7.5800  -19.5400   42.4300 N.am      1 ALA2        0.0000 
     13 N           8.9000  -23.8400   42.7000 N.am      1 ALA2        0.0000 
     14 N           9.3400  -25.2700   42.7900 N.am      1 ALA2        0.0000 
     15 N           6.6600  -21.2000   45.5800 N.am      1 ALA2        0.0000 
     16 O           7.1000  -22.6300   45.6700 O.2       1 ALA2        0.0000 
     17 N           7.7900  -20.9200   44.6300 N.am      1 ALA2        0.0000 
     18 O           8.4300  -23.7200   46.9200 O.2       1 ALA2        0.0000 
     19 CZ          6.2100  -22.9800   44.5100 C.ar      2 PHE5        0.0000 
     20 CZ          7.3400  -22.6900   43.5600 C.ar      2 PHE5        0.0000 
     21 CZ          7.7700  -24.1200   43.6500 C.ar      2 PHE5        0.0000 
     22 CZ          7.5400  -24.0600   45.7600 C.ar      2 PHE5        0.0000 
     23 CZ          8.6600  -23.7800   44.8100 C.ar      2 PHE5        0.0000 
     24 CZ          9.1000  -25.2100   44.9000 C.ar      2 PHE5        0.0000 
     25 CZ          8.8700  -25.1500   47.0100 C.ar      2 PHE5        0.0000 
     26 CZ          9.3100  -26.5800   47.1000 C.ar      2 PHE5        0.0000 
     27 CZ          9.9900  -24.8700   46.0500 C.ar      2 PHE5        0.0000 
     28 CZ         10.4300  -26.3000   46.1400 C.ar      2 PHE5        0.0000 
     29 CA          6.2400  -21.6700   40.2100 C.3       3 GLY6        0.0000 
     30 CA          8.2400  -24.2500   39.4400 C.3       3 GLY6        0.0000 
     31 CA          8.9300  -22.5300   38.4000 C.3       3 GLY6        0.0000 
     32 CA          6.0100  -21.6100   42.3200 C.3       3 GLY6        0.0000 
     33 CA          7.1300  -21.3200   41.3700 C.3       3 GLY6        0.0000 
     34 CA          9.1300  -23.9000   40.5900 C.3       3 GLY6        0.0000 
     35 CA          5.3400  -20.1100   44.3300 C.3       3 GLY6        0.0000 
     36 CA          5.7700  -21.5400   44.4200 C.3       3 GLY6        0.0000 
     37 CA          6.9000  -21.2600   43.4700 C.3       3 GLY6        0.0000 
     38 CA          9.5400  -26.6400   44.9900 C.3       3 GLY6        0.0000 
     39 CA          7.9900  -22.2900   46.8300 C.3       3 GLY6        0.0000 
     40 CA          9.3200  -23.3700   48.0700 C.3       3 GLY6        0.0000 
     41 DU          8.2600  -21.0400   40.4100 H         4 CUB7        0.0000 
     42 DU          8.6900  -22.4700   40.5000 H         4 CUB7        0.0000 
     43 DU          8.0200  -20.9800   42.5200 H         4 CUB7        0.0000 
     44 DU          8.4600  -22.4100   42.6100 H         4 CUB7        0.0000 
     45 DU          8.2300  -22.3500   44.7200 H         4 CUB7        0.0000 
@<TRIPOS>BOND
@<TRIPOS>SUBSTRUCTURE
     1 ALA2        1 GROUP   
     2 PHE5       19 GROUP   
     3 GLY6       29 GROUP   
     4 CUB7       41 GROUP   
@<TRIPOS>SET

