#    Name: 6gvm_1_GTP
#    Modification time : Fri May 22 19:23:51 2020

@<TRIPOS>MOLECULE
6gvm_1_GTP
   32    34     1     0     1
SMALL
NO_CHARGES


@<TRIPOS>ATOM
      1 PG          3.6980  -35.6820   39.2300 P.3       1 GTP501      0.0000 
      2 O1G         3.8650  -36.2100   37.8800 O.co2     1 GTP501      0.0000 
      3 O2G         4.2260  -36.5790   40.3670 O.co2     1 GTP501      0.0000 
      4 O3G         4.2860  -34.2690   39.3820 O.co2     1 GTP501      0.0000 
      5 O3B         2.1500  -35.5500   39.5510 O.3       1 GTP501      0.0000 
      6 PB          1.6830  -34.7630   40.8460 P.3       1 GTP501      0.0000 
      7 O1B         0.1920  -34.8740   41.1180 O.co2     1 GTP501      0.0000 
      8 O2B         2.5170  -35.2030   41.9850 O.co2     1 GTP501      0.0000 
      9 O3A         1.9840  -33.2390   40.5050 O.3       1 GTP501      0.0000 
     10 PA          1.5410  -31.9330   41.3030 P.3       1 GTP501      0.0000 
     11 O1A         2.8140  -31.4450   42.0220 O.co2     1 GTP501      0.0000 
     12 O2A         0.5300  -32.3640   42.3090 O.co2     1 GTP501      0.0000 
     13 O5'         1.0160  -30.6900   40.3020 O.3       1 GTP501      0.0000 
     14 C5'         1.6870  -29.4280   40.0590 C.3       1 GTP501      0.0000 
     15 C4'         0.7040  -28.2960   40.2580 C.3       1 GTP501      0.0000 
     16 O4'         0.3660  -28.1760   41.6550 O.3       1 GTP501      0.0000 
     17 C3'         1.1620  -26.8990   39.8580 C.3       1 GTP501      0.0000 
     18 O3'         0.0230  -26.0970   39.5560 O.3       1 GTP501      0.0000 
     19 C2'         1.8630  -26.4120   41.1240 C.3       1 GTP501      0.0000 
     20 O2'         1.8850  -24.9910   41.2010 O.3       1 GTP501      0.0000 
     21 C1'         0.9660  -27.0180   42.2070 C.3       1 GTP501      0.0000 
     22 N9          1.6810  -27.4120   43.4250 N.pl3     1 GTP501      0.0000 
     23 C8          2.6990  -28.3250   43.5410 C.2       1 GTP501      0.0000 
     24 N7          3.0890  -28.5180   44.7770 N.2       1 GTP501      0.0000 
     25 C5          2.2870  -27.6680   45.5220 C.2       1 GTP501      0.0000 
     26 C6          2.2870  -27.3490   46.9220 C.2       1 GTP501      0.0000 
     27 O6          2.9840  -27.8640   47.7940 O.2       1 GTP501      0.0000 
     28 N1          1.3990  -26.3330   47.2360 N.am      1 GTP501      0.0000 
     29 C2          0.5820  -25.6970   46.3410 C.2       1 GTP501      0.0000 
     30 N2         -0.1590  -24.6950   46.8090 N.pl3     1 GTP501      0.0000 
     31 N3          0.5360  -26.0020   45.0450 N.2       1 GTP501      0.0000 
     32 C4          1.4170  -26.9750   44.7000 C.2       1 GTP501      0.0000 
@<TRIPOS>BOND
     1    1    2 ar   
     2    1    3 ar   
     3    1    4 ar   
     4    1    5 1    
     5    5    6 1    
     6    6    7 ar   
     7    6    8 ar   
     8    6    9 1    
     9    9   10 1    
    10   10   11 ar   
    11   10   12 ar   
    12   10   13 1    
    13   13   14 1    
    14   14   15 1    
    15   15   16 1    
    16   15   17 1    
    17   16   21 1    
    18   17   18 1    
    19   17   19 1    
    20   19   20 1    
    21   19   21 1    
    22   21   22 1    
    23   22   23 1    
    24   22   32 1    
    25   23   24 2    
    26   24   25 1    
    27   25   26 1    
    28   25   32 2    
    29   26   27 2    
    30   26   28 am   
    31   28   29 1    
    32   29   30 1    
    33   29   31 2    
    34   31   32 1    
@<TRIPOS>SUBSTRUCTURE
     1 GTP501      1 GROUP   
@<TRIPOS>SET
ATOM$ORANGE STATIC     ATOMS   COLORGROUP SYSTEM 
20 14 14 15 15 17 17 19 19 21 21 23 23 25 25 26 26 29 \
29 32 32 

