#    Name: 6bzz_4_FAD_CAVITY_N1_6
#    Modification time : Fri May 22 19:29:11 2020

@<TRIPOS>MOLECULE
6bzz_4_FAD_CAVITY_N1_6
   85     0     6     0     0
SMALL
NO_CHARGES


@<TRIPOS>ATOM
      1 OG        -12.4900   73.4300  -61.0300 O.3       1 SER1        0.0000 
      2 N         -14.2700   67.1600  -63.2300 N.am      2 ALA2        0.0000 
      3 N         -14.4800   69.2300  -62.8100 N.am      2 ALA2        0.0000 
      4 N         -13.7900   68.0800  -62.1500 N.am      2 ALA2        0.0000 
      5 N         -13.2500   69.5200  -63.6100 N.am      2 ALA2        0.0000 
      6 N         -12.5500   68.3700  -62.9500 N.am      2 ALA2        0.0000 
      7 N         -15.2300   69.8600  -60.9300 N.am      2 ALA2        0.0000 
      8 N         -14.5300   68.7100  -60.2700 N.am      2 ALA2        0.0000 
      9 N         -14.0000   70.1500  -61.7300 N.am      2 ALA2        0.0000 
     10 N         -16.1500   73.0800  -61.1700 N.am      2 ALA2        0.0000 
     11 N         -14.7500   70.7800  -59.8500 N.am      2 ALA2        0.0000 
     12 N         -14.2100   72.2200  -61.3100 N.am      2 ALA2        0.0000 
     13 N         -12.9800   72.5100  -62.1100 N.am      2 ALA2        0.0000 
     14 N         -15.6600   73.9900  -60.0800 N.am      2 ALA2        0.0000 
     15 N         -17.1100   75.7700  -58.8600 N.am      2 ALA2        0.0000 
     16 N         -16.4100   74.6200  -58.2000 N.am      2 ALA2        0.0000 
     17 O         -14.4700   73.7600  -58.3400 O.2       2 ALA2        0.0000 
     18 O         -13.2400   74.0500  -59.1400 O.2       2 ALA2        0.0000 
     19 N         -16.6200   76.6900  -57.7800 N.am      2 ALA2        0.0000 
     20 O         -13.9900   74.6800  -57.2600 O.2       2 ALA2        0.0000 
     21 OD1       -15.8700   76.0600  -59.6600 O.co2     3 ASP3        0.0000 
     22 OD1       -14.6900   75.8300  -57.9200 O.co2     3 ASP3        0.0000 
     23 OD1       -13.4500   76.1200  -58.7200 O.co2     3 ASP3        0.0000 
     24 CZ        -19.3700   68.5900  -62.1500 C.ar      4 PHE5        0.0000 
     25 CZ        -18.8400   70.0300  -63.6100 C.ar      4 PHE5        0.0000 
     26 CZ        -16.9100   69.1700  -63.7500 C.ar      4 PHE5        0.0000 
     27 CZ        -18.8900   69.5100  -61.0700 C.ar      4 PHE5        0.0000 
     28 CZ        -18.1900   68.3600  -60.4100 C.ar      4 PHE5        0.0000 
     29 CZ        -18.3500   70.9500  -62.5300 C.ar      4 PHE5        0.0000 
     30 CZ        -17.6500   69.8000  -61.8700 C.ar      4 PHE5        0.0000 
     31 CZ        -16.4200   70.0900  -62.6700 C.ar      4 PHE5        0.0000 
     32 CZ        -15.1800   70.3800  -63.4700 C.ar      4 PHE5        0.0000 
     33 CZ        -13.9500   70.6700  -64.2700 C.ar      4 PHE5        0.0000 
     34 CZ        -12.7100   70.9600  -65.0700 C.ar      4 PHE5        0.0000 
     35 CZ        -19.6400   70.1400  -59.1900 C.ar      4 PHE5        0.0000 
     36 CZ        -18.4000   70.4300  -59.9900 C.ar      4 PHE5        0.0000 
     37 CZ        -17.7000   69.2800  -59.3300 C.ar      4 PHE5        0.0000 
     38 CZ        -16.6300   72.1600  -62.2500 C.ar      4 PHE5        0.0000 
     39 CZ        -15.9300   71.0100  -61.5900 C.ar      4 PHE5        0.0000 
     40 CZ        -14.7000   71.3000  -62.3900 C.ar      4 PHE5        0.0000 
     41 CZ        -13.4600   71.5900  -63.1900 C.ar      4 PHE5        0.0000 
     42 CZ        -12.2300   71.8800  -63.9900 C.ar      4 PHE5        0.0000 
     43 CZ        -18.4500   69.9000  -57.4400 C.ar      4 PHE5        0.0000 
     44 CZ        -17.2200   70.2000  -58.2400 C.ar      4 PHE5        0.0000 
     45 CZ        -14.4300   74.2900  -60.8900 C.ar      4 PHE5        0.0000 
     46 CZ        -15.1700   74.9100  -59.0000 C.ar      4 PHE5        0.0000 
     47 CZ        -13.9400   75.2000  -59.8000 C.ar      4 PHE5        0.0000 
     48 CA        -18.6300   67.9700  -64.0400 C.3       5 GLY6        0.0000 
     49 CA        -18.1400   68.8800  -62.9500 C.3       5 GLY6        0.0000 
     50 CA        -16.2100   68.0200  -63.0900 C.3       5 GLY6        0.0000 
     51 CA        -19.5900   70.6600  -61.7300 C.3       5 GLY6        0.0000 
     52 CA        -16.9500   68.6500  -61.2100 C.3       5 GLY6        0.0000 
     53 CA        -15.7200   68.9400  -62.0100 C.3       5 GLY6        0.0000 
     54 CA        -15.0200   67.7900  -61.3500 C.3       5 GLY6        0.0000 
     55 CA        -12.0200   69.8100  -64.4100 C.3       5 GLY6        0.0000 
     56 CA        -17.8700   71.8700  -61.4500 C.3       5 GLY6        0.0000 
     57 CA        -15.7700   68.4200  -59.4700 C.3       5 GLY6        0.0000 
     58 CA        -17.9200   71.3500  -58.9100 C.3       5 GLY6        0.0000 
     59 CA        -17.3800   72.7900  -60.3700 C.3       5 GLY6        0.0000 
     60 CA        -15.2800   69.3400  -58.3800 C.3       5 GLY6        0.0000 
     61 CA        -14.0500   69.6300  -59.1800 C.3       5 GLY6        0.0000 
     62 CA        -14.9100   73.3700  -61.9700 C.3       5 GLY6        0.0000 
     63 CA        -17.9700   70.8200  -56.3600 C.3       5 GLY6        0.0000 
     64 CA        -18.1300   73.4100  -58.4800 C.3       5 GLY6        0.0000 
     65 CA        -17.4300   72.2600  -57.8200 C.3       5 GLY6        0.0000 
     66 CA        -15.5000   71.4000  -57.9600 C.3       5 GLY6        0.0000 
     67 CA        -14.2600   71.6900  -58.7600 C.3       5 GLY6        0.0000 
     68 CA        -13.7300   73.1300  -60.2200 C.3       5 GLY6        0.0000 
     69 CA        -17.6400   74.3300  -57.4000 C.3       5 GLY6        0.0000 
     70 CA        -16.9400   73.1800  -56.7400 C.3       5 GLY6        0.0000 
     71 CA        -15.0100   72.3200  -56.8800 C.3       5 GLY6        0.0000 
     72 CA        -14.3100   71.1700  -56.2200 C.3       5 GLY6        0.0000 
     73 CA        -13.7800   72.6100  -57.6800 C.3       5 GLY6        0.0000 
     74 DU        -17.1700   70.7200  -60.7900 H         6 CUB7        0.0000 
     75 DU        -16.4700   69.5700  -60.1300 H         6 CUB7        0.0000 
     76 DU        -16.6800   71.6400  -59.7100 H         6 CUB7        0.0000 
     77 DU        -15.9800   70.4900  -59.0400 H         6 CUB7        0.0000 
     78 DU        -15.4500   71.9300  -60.5100 H         6 CUB7        0.0000 
     79 DU        -16.7300   71.1100  -57.1600 H         6 CUB7        0.0000 
     80 DU        -16.2000   72.5500  -58.6200 H         6 CUB7        0.0000 
     81 DU        -14.9600   72.8400  -59.4200 H         6 CUB7        0.0000 
     82 DU        -16.2400   72.0300  -56.0800 H         6 CUB7        0.0000 
     83 DU        -15.7100   73.4700  -57.5400 H         6 CUB7        0.0000 
     84 DU        -15.9200   75.5400  -57.1200 H         6 CUB7        0.0000 
     85 DU        -15.2200   74.3900  -56.4600 H         6 CUB7        0.0000 
@<TRIPOS>BOND
@<TRIPOS>SUBSTRUCTURE
     1 SER1        1 GROUP   
     2 ALA2        2 GROUP   
     3 ASP3       21 GROUP   
     4 PHE5       24 GROUP   
     5 GLY6       48 GROUP   
     6 CUB7       74 GROUP   
@<TRIPOS>SET

