#    Name: 6bzz_4_FAD
#    Modification time : Fri May 22 19:29:10 2020

@<TRIPOS>MOLECULE
6bzz_4_FAD
   18    20     1     0     1
SMALL
NO_CHARGES


@<TRIPOS>ATOM
      1 N1        -13.7900   72.7920  -61.2210 N.2       1 FAD601      0.0000 
      2 C2        -12.5170   73.0560  -61.6210 C.2       1 FAD601      0.0000 
      3 O2        -11.8970   73.9760  -61.0500 O.2       1 FAD601      0.0000 
      4 N3        -11.8960   72.3600  -62.6020 N.am      1 FAD601      0.0000 
      5 C4        -12.4950   71.3510  -63.2610 C.2       1 FAD601      0.0000 
      6 O4        -11.8870   70.7310  -64.1620 O.2       1 FAD601      0.0000 
      7 C4X       -13.8910   70.9930  -62.8820 C.2       1 FAD601      0.0000 
      8 N5        -14.5810   69.9910  -63.4840 N.2       1 FAD601      0.0000 
      9 C5X       -15.8530   69.6950  -63.1110 C.ar      1 FAD601      0.0000 
     10 C6        -16.5430   68.6630  -63.7470 C.ar      1 FAD601      0.0000 
     11 C7        -17.8530   68.3510  -63.3810 C.ar      1 FAD601      0.0000 
     12 C7M       -18.5480   67.2240  -64.1020 C.3       1 FAD601      0.0000 
     13 C8        -18.5250   69.1290  -62.2920 C.ar      1 FAD601      0.0000 
     14 C8M       -19.9370   68.8290  -61.8620 C.3       1 FAD601      0.0000 
     15 C9        -17.8390   70.1650  -61.6540 C.ar      1 FAD601      0.0000 
     16 C9A       -16.5320   70.4770  -62.0250 C.ar      1 FAD601      0.0000 
     17 N10       -15.8350   71.5250  -61.3820 N.pl3     1 FAD601      0.0000 
     18 C10       -14.5130   71.8030  -61.7940 C.2       1 FAD601      0.0000 
@<TRIPOS>BOND
     1    1    2 1    
     2    1   18 2    
     3    2    3 2    
     4    2    4 am   
     5    4    5 am   
     6    5    6 2    
     7    5    7 1    
     8    7    8 2    
     9    7   18 1    
    10    8    9 1    
    11    9   10 ar   
    12    9   16 ar   
    13   10   11 ar   
    14   11   12 1    
    15   11   13 ar   
    16   13   14 1    
    17   13   15 ar   
    18   15   16 ar   
    19   16   17 1    
    20   17   18 1    
@<TRIPOS>SUBSTRUCTURE
     1 FAD601      1 GROUP   
@<TRIPOS>SET
ATOM$ORANGE STATIC     ATOMS   COLORGROUP SYSTEM 
24 2 2 5 5 7 7 9 9 10 10 11 11 12 12 13 13 14 \
14 15 15 16 16 18 18 

