#    Name: 6bzz_2_FAD
#    Modification time : Fri May 22 19:28:57 2020

@<TRIPOS>MOLECULE
6bzz_2_FAD
   18    20     1     0     1
SMALL
NO_CHARGES


@<TRIPOS>ATOM
      1 N1        -25.2880   97.2360  -26.1900 N.2       1 FAD601      0.0000 
      2 C2        -26.5370   97.7590  -26.3410 C.2       1 FAD601      0.0000 
      3 O2        -27.1390   97.5420  -27.4090 O.2       1 FAD601      0.0000 
      4 N3        -27.1570   98.4800  -25.3770 N.am      1 FAD601      0.0000 
      5 C4        -26.5750   98.7450  -24.1910 C.2       1 FAD601      0.0000 
      6 O4        -27.1510   99.4130  -23.3050 O.2       1 FAD601      0.0000 
      7 C4X       -25.2130   98.2130  -23.9500 C.2       1 FAD601      0.0000 
      8 N5        -24.5670   98.4350  -22.7870 N.2       1 FAD601      0.0000 
      9 C5X       -23.3260   97.9450  -22.5800 C.ar      1 FAD601      0.0000 
     10 C6        -22.7000   98.2060  -21.3650 C.ar      1 FAD601      0.0000 
     11 C7        -21.4190   97.7230  -21.1200 C.ar      1 FAD601      0.0000 
     12 C7M       -20.7830   98.0360  -19.7880 C.3       1 FAD601      0.0000 
     13 C8        -20.7210   96.9210  -22.1740 C.ar      1 FAD601      0.0000 
     14 C8M       -19.3370   96.3860  -21.9440 C.3       1 FAD601      0.0000 
     15 C9        -21.3470   96.6590  -23.3970 C.ar      1 FAD601      0.0000 
     16 C9A       -22.6290   97.1470  -23.6410 C.ar      1 FAD601      0.0000 
     17 N10       -23.2860   96.8980  -24.8700 N.pl3     1 FAD601      0.0000 
     18 C10       -24.5860   97.4240  -25.0480 C.2       1 FAD601      0.0000 
@<TRIPOS>BOND
     1    1    2 1    
     2    1   18 2    
     3    2    3 2    
     4    2    4 am   
     5    4    5 am   
     6    5    6 2    
     7    5    7 1    
     8    7    8 2    
     9    7   18 1    
    10    8    9 1    
    11    9   10 ar   
    12    9   16 ar   
    13   10   11 ar   
    14   11   12 1    
    15   11   13 ar   
    16   13   14 1    
    17   13   15 ar   
    18   15   16 ar   
    19   16   17 1    
    20   17   18 1    
@<TRIPOS>SUBSTRUCTURE
     1 FAD601      1 GROUP   
@<TRIPOS>SET
ATOM$ORANGE STATIC     ATOMS   COLORGROUP SYSTEM 
24 2 2 5 5 7 7 9 9 10 10 11 11 12 12 13 13 14 \
14 15 15 16 16 18 18 

