#    Name: 6bzz_1_FAD_CAVITY_N1_4
#    Modification time : Fri May 22 19:28:51 2020

@<TRIPOS>MOLECULE
6bzz_1_FAD_CAVITY_N1_4
   77     0     5     0     0
SMALL
NO_CHARGES


@<TRIPOS>ATOM
      1 OG          0.3300   46.4800  -39.7900 O.3       1 SER1        0.0000 
      2 OG         -7.9900   47.9600  -35.2300 O.3       1 SER1        0.0000 
      3 N          -7.6800   46.9400  -40.7400 N.am      2 ALA2        0.0000 
      4 N          -6.4500   47.2300  -41.5400 N.am      2 ALA2        0.0000 
      5 N          -5.7500   46.0800  -40.8800 N.am      2 ALA2        0.0000 
      6 N          -7.7300   46.4100  -38.1900 N.am      2 ALA2        0.0000 
      7 N          -7.8900   49.0100  -40.3200 N.am      2 ALA2        0.0000 
      8 N          -7.1900   47.8600  -39.6600 N.am      2 ALA2        0.0000 
      9 N          -6.5000   46.7000  -39.0000 N.am      2 ALA2        0.0000 
     10 N          -7.2400   47.3300  -37.1100 N.am      2 ALA2        0.0000 
     11 N          -6.7100   48.7700  -38.5700 N.am      2 ALA2        0.0000 
     12 N          -6.0100   47.6200  -37.9100 N.am      2 ALA2        0.0000 
     13 N          -5.4700   49.0600  -39.3700 N.am      2 ALA2        0.0000 
     14 N          -6.7600   48.2500  -36.0300 N.am      2 ALA2        0.0000 
     15 N          -5.5200   48.5400  -36.8300 N.am      2 ALA2        0.0000 
     16 N          -5.6900   51.1300  -38.9500 N.am      2 ALA2        0.0000 
     17 N          -4.3400   48.3100  -35.0900 N.am      2 ALA2        0.0000 
     18 O          -6.4900   51.2300  -34.5300 O.2       2 ALA2        0.0000 
     19 N          -3.8500   49.2200  -34.0000 N.am      2 ALA2        0.0000 
     20 CZ         -5.8000   45.5500  -38.3300 C.ar      3 PHE5        0.0000 
     21 CZ         -4.5600   45.8400  -39.1400 C.ar      3 PHE5        0.0000 
     22 CZ         -2.6300   44.9800  -39.2700 C.ar      3 PHE5        0.0000 
     23 CZ         -0.1600   45.5700  -40.8800 C.ar      3 PHE5        0.0000 
     24 CZ         -6.5400   46.1800  -36.4500 C.ar      3 PHE5        0.0000 
     25 CZ         -5.3100   46.4700  -37.2500 C.ar      3 PHE5        0.0000 
     26 CZ         -4.0800   46.7600  -38.0500 C.ar      3 PHE5        0.0000 
     27 CZ         -2.8400   47.0500  -38.8500 C.ar      3 PHE5        0.0000 
     28 CZ         -3.0000   49.6400  -40.9800 C.ar      3 PHE5        0.0000 
     29 CZ         -0.3700   47.6300  -40.4500 C.ar      3 PHE5        0.0000 
     30 CZ         -4.8200   47.3900  -36.1700 C.ar      3 PHE5        0.0000 
     31 CZ         -3.5900   47.6800  -36.9700 C.ar      3 PHE5        0.0000 
     32 CZ         -3.7500   50.2700  -39.0900 C.ar      3 PHE5        0.0000 
     33 CZ         -1.6500   46.8200  -37.1100 C.ar      3 PHE5        0.0000 
     34 CZ         -1.8200   49.4100  -39.2300 C.ar      3 PHE5        0.0000 
     35 CZ          0.1200   48.5500  -39.3700 C.ar      3 PHE5        0.0000 
     36 CZ         -6.2700   49.1700  -34.9500 C.ar      3 PHE5        0.0000 
     37 CZ         -5.5700   48.0200  -34.2900 C.ar      3 PHE5        0.0000 
     38 CZ         -2.0300   51.4800  -38.8100 C.ar      3 PHE5        0.0000 
     39 CZ         -5.7900   50.0800  -33.8600 C.ar      3 PHE5        0.0000 
     40 CA         -3.8100   45.2200  -41.0200 C.3       4 GLY6        0.0000 
     41 CA         -2.5800   45.5100  -41.8200 C.3       4 GLY6        0.0000 
     42 CA         -1.8800   44.3600  -41.1600 C.3       4 GLY6        0.0000 
     43 CA         -5.9600   48.1500  -40.4600 C.3       4 GLY6        0.0000 
     44 CA         -5.2600   47.0000  -39.8000 C.3       4 GLY6        0.0000 
     45 CA         -4.0300   47.2900  -40.6000 C.3       4 GLY6        0.0000 
     46 CA         -3.3300   46.1400  -39.9400 C.3       4 GLY6        0.0000 
     47 CA         -2.0900   46.4300  -40.7400 C.3       4 GLY6        0.0000 
     48 CA         -1.3900   45.2800  -40.0800 C.3       4 GLY6        0.0000 
     49 CA         -0.8600   46.7200  -41.5400 C.3       4 GLY6        0.0000 
     50 CA         -4.2400   49.3500  -40.1800 C.3       4 GLY6        0.0000 
     51 CA         -3.5400   48.2000  -39.5100 C.3       4 GLY6        0.0000 
     52 CA         -2.3100   48.4900  -40.3100 C.3       4 GLY6        0.0000 
     53 CA         -1.6100   47.3400  -39.6500 C.3       4 GLY6        0.0000 
     54 CA         -0.9100   46.1900  -38.9900 C.3       4 GLY6        0.0000 
     55 CA         -6.0600   47.1000  -35.3700 C.3       4 GLY6        0.0000 
     56 CA         -6.2200   49.6900  -37.4900 C.3       4 GLY6        0.0000 
     57 CA         -4.9900   49.9800  -38.2900 C.3       4 GLY6        0.0000 
     58 CA         -2.3500   47.9700  -37.7700 C.3       4 GLY6        0.0000 
     59 CA         -1.1200   48.2600  -38.5700 C.3       4 GLY6        0.0000 
     60 CA         -0.4200   47.1100  -37.9100 C.3       4 GLY6        0.0000 
     61 CA         -6.9700   50.3200  -35.6100 C.3       4 GLY6        0.0000 
     62 CA         -5.7400   50.6100  -36.4100 C.3       4 GLY6        0.0000 
     63 CA         -3.1000   48.6000  -35.8900 C.3       4 GLY6        0.0000 
     64 CA         -2.5700   50.0400  -37.3500 C.3       4 GLY6        0.0000 
     65 CA         -1.8700   48.8900  -36.6900 C.3       4 GLY6        0.0000 
     66 CA         -1.3300   50.3300  -38.1500 C.3       4 GLY6        0.0000 
     67 CA         -5.2500   51.5300  -35.3300 C.3       4 GLY6        0.0000 
     68 CA         -2.6200   49.5100  -34.8000 C.3       4 GLY6        0.0000 
     69 DU         -4.7700   47.9100  -38.7100 H         5 CUB7        0.0000 
     70 DU         -4.2900   48.8300  -37.6300 H         5 CUB7        0.0000 
     71 DU         -3.0500   49.1200  -38.4300 H         5 CUB7        0.0000 
     72 DU         -5.0400   49.4600  -35.7500 H         5 CUB7        0.0000 
     73 DU         -4.5000   50.9000  -37.2100 H         5 CUB7        0.0000 
     74 DU         -3.8000   49.7500  -36.5500 H         5 CUB7        0.0000 
     75 DU         -3.2700   51.1900  -38.0100 H         5 CUB7        0.0000 
     76 DU         -4.5500   50.3700  -34.6700 H         5 CUB7        0.0000 
     77 DU         -3.3200   50.6700  -35.4700 H         5 CUB7        0.0000 
@<TRIPOS>BOND
@<TRIPOS>SUBSTRUCTURE
     1 SER1        1 GROUP   
     2 ALA2        3 GROUP   
     3 PHE5       20 GROUP   
     4 GLY6       40 GROUP   
     5 CUB7       69 GROUP   
@<TRIPOS>SET

