#    Name: 6bzz_3_FAD
#    Modification time : Fri May 22 19:29:03 2020

@<TRIPOS>MOLECULE
6bzz_3_FAD
   18    20     1     0     1
SMALL
NO_CHARGES


@<TRIPOS>ATOM
      1 N1        -32.6290   64.4830  -12.2490 N.2       1 FAD601      0.0000 
      2 C2        -31.3570   64.0940  -11.9850 C.2       1 FAD601      0.0000 
      3 O2        -30.7400   63.4750  -12.8700 O.2       1 FAD601      0.0000 
      4 N3        -30.7240   64.3640  -10.8220 N.am      1 FAD601      0.0000 
      5 C4        -31.3160   65.0380   -9.8210 C.2       1 FAD601      0.0000 
      6 O4        -30.6940   65.2650   -8.7600 O.2       1 FAD601      0.0000 
      7 C4X       -32.7170   65.5040  -10.0230 C.2       1 FAD601      0.0000 
      8 N5        -33.4080   66.1950   -9.0830 N.2       1 FAD601      0.0000 
      9 C5X       -34.6860   66.5980   -9.3120 C.ar      1 FAD601      0.0000 
     10 C6        -35.3830   67.3000   -8.3280 C.ar      1 FAD601      0.0000 
     11 C7        -36.6990   67.7130   -8.5580 C.ar      1 FAD601      0.0000 
     12 C7M       -37.4190   68.4700   -7.4720 C.3       1 FAD601      0.0000 
     13 C8        -37.3660   67.4000   -9.8610 C.ar      1 FAD601      0.0000 
     14 C8M       -38.7820   67.8230  -10.1480 C.3       1 FAD601      0.0000 
     15 C9        -36.6730   66.6930  -10.8430 C.ar      1 FAD601      0.0000 
     16 C9A       -35.3640   66.2820  -10.6140 C.ar      1 FAD601      0.0000 
     17 N10       -34.6660   65.5680  -11.6080 N.pl3     1 FAD601      0.0000 
     18 C10       -33.3430   65.1680  -11.3350 C.2       1 FAD601      0.0000 
@<TRIPOS>BOND
     1    1    2 1    
     2    1   18 2    
     3    2    3 2    
     4    2    4 am   
     5    4    5 am   
     6    5    6 2    
     7    5    7 1    
     8    7    8 2    
     9    7   18 1    
    10    8    9 1    
    11    9   10 ar   
    12    9   16 ar   
    13   10   11 ar   
    14   11   12 1    
    15   11   13 ar   
    16   13   14 1    
    17   13   15 ar   
    18   15   16 ar   
    19   16   17 1    
    20   17   18 1    
@<TRIPOS>SUBSTRUCTURE
     1 FAD601      1 GROUP   
@<TRIPOS>SET
ATOM$ORANGE STATIC     ATOMS   COLORGROUP SYSTEM 
24 2 2 5 5 7 7 9 9 10 10 11 11 12 12 13 13 14 \
14 15 15 16 16 18 18 

