#    Name: 6bzz_1_FAD
#    Modification time : Fri May 22 19:28:50 2020

@<TRIPOS>MOLECULE
6bzz_1_FAD
   18    20     1     0     1
SMALL
NO_CHARGES


@<TRIPOS>ATOM
      1 N1         -6.4270   47.9180  -35.9830 N.2       1 FAD601      0.0000 
      2 C2         -7.6660   47.5430  -35.7040 C.2       1 FAD601      0.0000 
      3 O2         -8.1540   48.1100  -34.7440 O.2       1 FAD601      0.0000 
      4 N3         -8.3330   46.5680  -36.3620 N.am      1 FAD601      0.0000 
      5 C4         -7.7780   45.9450  -37.4030 C.2       1 FAD601      0.0000 
      6 O4         -8.3980   45.0680  -37.9720 O.2       1 FAD601      0.0000 
      7 C4X        -6.3920   46.3340  -37.7850 C.2       1 FAD601      0.0000 
      8 N5         -5.6930   45.7670  -38.7900 N.2       1 FAD601      0.0000 
      9 C5X        -4.4400   46.1670  -39.0420 C.ar      1 FAD601      0.0000 
     10 C6         -3.7580   45.5930  -40.0690 C.ar      1 FAD601      0.0000 
     11 C7         -2.4530   45.9820  -40.3440 C.ar      1 FAD601      0.0000 
     12 C7M        -1.6840   45.3510  -41.4640 C.3       1 FAD601      0.0000 
     13 C8         -1.7980   47.0370  -39.5510 C.ar      1 FAD601      0.0000 
     14 C8M        -0.3940   47.4140  -39.9240 C.3       1 FAD601      0.0000 
     15 C9         -2.4870   47.6560  -38.5230 C.ar      1 FAD601      0.0000 
     16 C9A        -3.7720   47.2420  -38.2300 C.ar      1 FAD601      0.0000 
     17 N10        -4.4540   47.8550  -37.2030 N.pl3     1 FAD601      0.0000 
     18 C10        -5.7520   47.3960  -36.9580 C.2       1 FAD601      0.0000 
@<TRIPOS>BOND
     1    1    2 1    
     2    1   18 2    
     3    2    3 2    
     4    2    4 am   
     5    4    5 am   
     6    5    6 2    
     7    5    7 1    
     8    7    8 2    
     9    7   18 1    
    10    8    9 1    
    11    9   10 ar   
    12    9   16 ar   
    13   10   11 ar   
    14   11   12 1    
    15   11   13 ar   
    16   13   14 1    
    17   13   15 ar   
    18   15   16 ar   
    19   16   17 1    
    20   17   18 1    
@<TRIPOS>SUBSTRUCTURE
     1 FAD601      1 GROUP   
@<TRIPOS>SET
ATOM$ORANGE STATIC     ATOMS   COLORGROUP SYSTEM 
24 2 2 5 5 7 7 9 9 10 10 11 11 12 12 13 13 14 \
14 15 15 16 16 18 18 

