#    Name: 6qv1_2_AGS
#    Modification time : Fri May 22 19:36:06 2020

@<TRIPOS>MOLECULE
6qv1_2_AGS
   31    33     1     0     0
SMALL
NO_CHARGES


@<TRIPOS>ATOM
      1 PG          8.4100   32.5590   26.6810 P.3       1 AGS600      0.0000 
      2 S1G         7.5370   30.8900   26.9150 S.2       1 AGS600      0.0000 
      3 O2G         9.2070   33.0730   27.9150 O.3       1 AGS600      0.0000 
      4 O3G         7.6120   33.8510   26.3440 O.3       1 AGS600      0.0000 
      5 PB          9.3320   32.5690   23.9710 P.3       1 AGS600      0.0000 
      6 O1B         9.6800   31.3360   23.2370 O.co2     1 AGS600      0.0000 
      7 O2B         7.9520   33.1440   23.6910 O.co2     1 AGS600      0.0000 
      8 O3B         9.4470   32.3770   25.5440 O.3       1 AGS600      0.0000 
      9 PA         10.5230   34.9860   22.7830 P.3       1 AGS600      0.0000 
     10 O1A        10.2930   34.6230   21.3730 O.co2     1 AGS600      0.0000 
     11 O2A         9.6150   36.0700   23.3640 O.co2     1 AGS600      0.0000 
     12 O3A        10.4040   33.7210   23.7390 O.3       1 AGS600      0.0000 
     13 O5'        12.0280   35.4260   22.9980 O.3       1 AGS600      0.0000 
     14 C5'        13.1110   34.5110   22.7450 C.3       1 AGS600      0.0000 
     15 C4'        14.4210   35.1730   23.0880 C.3       1 AGS600      0.0000 
     16 O4'        14.4930   36.4720   22.4660 O.3       1 AGS600      0.0000 
     17 C3'        14.7230   35.3770   24.5710 C.3       1 AGS600      0.0000 
     18 O3'        16.0740   35.0300   24.8510 O.3       1 AGS600      0.0000 
     19 C2'        14.3930   36.8570   24.8030 C.3       1 AGS600      0.0000 
     20 O2'        15.2140   37.4370   25.8120 O.3       1 AGS600      0.0000 
     21 C1'        14.6970   37.4800   23.4370 C.3       1 AGS600      0.0000 
     22 N9         13.8650   38.6290   23.0820 N.pl3     1 AGS600      0.0000 
     23 C8         12.5280   38.6230   22.7770 C.2       1 AGS600      0.0000 
     24 N7         12.0630   39.7830   22.3800 N.2       1 AGS600      0.0000 
     25 C5         13.1700   40.6170   22.4360 C.ar      1 AGS600      0.0000 
     26 C6         13.3500   41.9810   22.1290 C.ar      1 AGS600      0.0000 
     27 N6         12.3920   42.7560   21.6080 N.pl3     1 AGS600      0.0000 
     28 N1         14.5800   42.5130   22.3220 N.ar      1 AGS600      0.0000 
     29 C2         15.5620   41.7230   22.7760 C.ar      1 AGS600      0.0000 
     30 N3         15.5170   40.4200   23.0730 N.ar      1 AGS600      0.0000 
     31 C4         14.2860   39.9210   22.8800 C.ar      1 AGS600      0.0000 
@<TRIPOS>BOND
     1    1    2 2    
     2    1    3 1    
     3    1    4 1    
     4    1    8 1    
     5    5    6 ar   
     6    5    7 ar   
     7    5    8 1    
     8    5   12 1    
     9    9   10 ar   
    10    9   11 ar   
    11    9   12 1    
    12    9   13 1    
    13   13   14 1    
    14   14   15 1    
    15   15   16 1    
    16   15   17 1    
    17   16   21 1    
    18   17   18 1    
    19   17   19 1    
    20   19   20 1    
    21   19   21 1    
    22   21   22 1    
    23   22   23 1    
    24   22   31 1    
    25   23   24 2    
    26   24   25 1    
    27   25   26 ar   
    28   25   31 ar   
    29   26   27 1    
    30   26   28 ar   
    31   28   29 ar   
    32   29   30 ar   
    33   30   31 ar   
@<TRIPOS>SUBSTRUCTURE
     1 AGS600      1 GROUP   
@<TRIPOS>SET

