#    Name: 6qv1_3_AGS
#    Modification time : Fri May 22 19:36:16 2020

@<TRIPOS>MOLECULE
6qv1_3_AGS
   31    33     1     0     0
SMALL
NO_CHARGES


@<TRIPOS>ATOM
      1 PG         35.6210  119.3620   76.4150 P.3       1 AGS600      0.0000 
      2 S1G        36.4690  121.0290   76.0820 S.2       1 AGS600      0.0000 
      3 O2G        36.5380  118.1010   76.2800 O.3       1 AGS600      0.0000 
      4 O3G        34.9920  119.0390   77.7920 O.3       1 AGS600      0.0000 
      5 PB         34.5680  118.7980   73.8140 P.3       1 AGS600      0.0000 
      6 O1B        33.9240  119.8150   72.9560 O.co2     1 AGS600      0.0000 
      7 O2B        36.0270  118.4660   73.4960 O.co2     1 AGS600      0.0000 
      8 O3B        34.4940  119.1850   75.3550 O.3       1 AGS600      0.0000 
      9 PA         34.0370  116.0110   73.1370 P.3       1 AGS600      0.0000 
     10 O1A        34.4790  116.1640   71.7390 O.co2     1 AGS600      0.0000 
     11 O2A        35.0280  115.2560   74.0320 O.co2     1 AGS600      0.0000 
     12 O3A        33.7630  117.4270   73.8080 O.3       1 AGS600      0.0000 
     13 O5'        32.6160  115.2820   73.2500 O.3       1 AGS600      0.0000 
     14 C5'        31.3830  115.8680   72.7850 C.3       1 AGS600      0.0000 
     15 C4'        30.2450  114.9420   73.1320 C.3       1 AGS600      0.0000 
     16 O4'        30.5350  113.6100   72.6590 O.3       1 AGS600      0.0000 
     17 C3'        29.8900  114.8230   74.6160 C.3       1 AGS600      0.0000 
     18 O3'        28.4900  114.9620   74.8280 O.3       1 AGS600      0.0000 
     19 C2'        30.4420  113.4480   75.0140 C.3       1 AGS600      0.0000 
     20 O2'        29.6680  112.8020   76.0200 O.3       1 AGS600      0.0000 
     21 C1'        30.3630  112.6690   73.7010 C.3       1 AGS600      0.0000 
     22 N9         31.3820  111.6330   73.5570 N.pl3     1 AGS600      0.0000 
     23 C8         32.7350  111.8080   73.4070 C.2       1 AGS600      0.0000 
     24 N7         33.4160  110.6900   73.3310 N.2       1 AGS600      0.0000 
     25 C5         32.4440  109.7060   73.4370 C.ar      1 AGS600      0.0000 
     26 C6         32.5120  108.2980   73.4390 C.ar      1 AGS600      0.0000 
     27 N6         33.6500  107.6090   73.3090 N.pl3     1 AGS600      0.0000 
     28 N1         31.3530  107.6110   73.5720 N.ar      1 AGS600      0.0000 
     29 C2         30.2080  108.2950   73.6920 C.ar      1 AGS600      0.0000 
     30 N3         30.0210  109.6190   73.6990 N.ar      1 AGS600      0.0000 
     31 C4         31.1850  110.2740   73.5710 C.ar      1 AGS600      0.0000 
@<TRIPOS>BOND
     1    1    2 2    
     2    1    3 1    
     3    1    4 1    
     4    1    8 1    
     5    5    6 ar   
     6    5    7 ar   
     7    5    8 1    
     8    5   12 1    
     9    9   10 ar   
    10    9   11 ar   
    11    9   12 1    
    12    9   13 1    
    13   13   14 1    
    14   14   15 1    
    15   15   16 1    
    16   15   17 1    
    17   16   21 1    
    18   17   18 1    
    19   17   19 1    
    20   19   20 1    
    21   19   21 1    
    22   21   22 1    
    23   22   23 1    
    24   22   31 1    
    25   23   24 2    
    26   24   25 1    
    27   25   26 ar   
    28   25   31 ar   
    29   26   27 1    
    30   26   28 ar   
    31   28   29 ar   
    32   29   30 ar   
    33   30   31 ar   
@<TRIPOS>SUBSTRUCTURE
     1 AGS600      1 GROUP   
@<TRIPOS>SET

