#    Name: 6qv1_4_AGS
#    Modification time : Fri May 22 19:36:27 2020

@<TRIPOS>MOLECULE
6qv1_4_AGS
   31    33     1     0     0
SMALL
NO_CHARGES


@<TRIPOS>ATOM
      1 PG         51.7270  121.8020   87.9230 P.3       1 AGS600      0.0000 
      2 S1G        50.4910  123.2090   87.5980 S.2       1 AGS600      0.0000 
      3 O2G        52.6520  121.4340   86.7160 O.3       1 AGS600      0.0000 
      4 O3G        51.2310  120.3690   88.2880 O.3       1 AGS600      0.0000 
      5 PB         52.7030  121.9080   90.6390 P.3       1 AGS600      0.0000 
      6 O1B        53.2390  123.0520   91.4060 O.co2     1 AGS600      0.0000 
      7 O2B        51.3100  121.4420   91.0240 O.co2     1 AGS600      0.0000 
      8 O3B        52.6870  122.2300   89.0810 O.3       1 AGS600      0.0000 
      9 PA         53.7900  119.3780   91.6670 P.3       1 AGS600      0.0000 
     10 O1A        53.5060  119.7420   93.0710 O.co2     1 AGS600      0.0000 
     11 O2A        52.8880  118.2820   91.1010 O.co2     1 AGS600      0.0000 
     12 O3A        53.6580  120.6360   90.7000 O.3       1 AGS600      0.0000 
     13 O5'        55.2870  118.8570   91.4490 O.3       1 AGS600      0.0000 
     14 C5'        56.4650  119.6820   91.5530 C.3       1 AGS600      0.0000 
     15 C4'        57.6890  118.8180   91.3630 C.3       1 AGS600      0.0000 
     16 O4'        57.5190  117.5550   92.0440 O.3       1 AGS600      0.0000 
     17 C3'        58.0910  118.4910   89.9240 C.3       1 AGS600      0.0000 
     18 O3'        59.4970  118.6160   89.7370 O.3       1 AGS600      0.0000 
     19 C2'        57.5780  117.0590   89.7310 C.3       1 AGS600      0.0000 
     20 O2'        58.3650  116.3140   88.8080 O.3       1 AGS600      0.0000 
     21 C1'        57.6970  116.4770   91.1420 C.3       1 AGS600      0.0000 
     22 N9         56.7060  115.4480   91.4560 N.pl3     1 AGS600      0.0000 
     23 C8         55.3510  115.6160   91.5760 C.2       1 AGS600      0.0000 
     24 N7         54.7000  114.5220   91.8900 N.2       1 AGS600      0.0000 
     25 C5         55.6960  113.5630   91.9830 C.ar      1 AGS600      0.0000 
     26 C6         55.6670  112.1900   92.3040 C.ar      1 AGS600      0.0000 
     27 N6         54.5460  111.5180   92.5910 N.pl3     1 AGS600      0.0000 
     28 N1         56.8450  111.5240   92.3240 N.ar      1 AGS600      0.0000 
     29 C2         57.9700  112.1910   92.0390 C.ar      1 AGS600      0.0000 
     30 N3         58.1190  113.4830   91.7230 N.ar      1 AGS600      0.0000 
     31 C4         56.9390  114.1180   91.7140 C.ar      1 AGS600      0.0000 
@<TRIPOS>BOND
     1    1    2 2    
     2    1    3 1    
     3    1    4 1    
     4    1    8 1    
     5    5    6 ar   
     6    5    7 ar   
     7    5    8 1    
     8    5   12 1    
     9    9   10 ar   
    10    9   11 ar   
    11    9   12 1    
    12    9   13 1    
    13   13   14 1    
    14   14   15 1    
    15   15   16 1    
    16   15   17 1    
    17   16   21 1    
    18   17   18 1    
    19   17   19 1    
    20   19   20 1    
    21   19   21 1    
    22   21   22 1    
    23   22   23 1    
    24   22   31 1    
    25   23   24 2    
    26   24   25 1    
    27   25   26 ar   
    28   25   31 ar   
    29   26   27 1    
    30   26   28 ar   
    31   28   29 ar   
    32   29   30 ar   
    33   30   31 ar   
@<TRIPOS>SUBSTRUCTURE
     1 AGS600      1 GROUP   
@<TRIPOS>SET

