#    Name: 6qv1_1_AGS
#    Modification time : Fri May 22 19:35:56 2020

@<TRIPOS>MOLECULE
6qv1_1_AGS
   31    33     1     0     0
SMALL
NO_CHARGES


@<TRIPOS>ATOM
      1 PG         -8.4700   35.4910   36.9300 P.3       1 AGS600      0.0000 
      2 S1G        -7.6480   33.8310   37.3490 S.2       1 AGS600      0.0000 
      3 O2G        -7.5520   36.7530   37.0730 O.3       1 AGS600      0.0000 
      4 O3G        -9.0220   35.7680   35.5150 O.3       1 AGS600      0.0000 
      5 PB         -9.6490   36.1450   39.4480 P.3       1 AGS600      0.0000 
      6 O1B       -10.3400   35.1550   40.3020 O.co2     1 AGS600      0.0000 
      7 O2B        -8.2080   36.4790   39.8300 O.co2     1 AGS600      0.0000 
      8 O3B        -9.6490   35.7100   37.9200 O.3       1 AGS600      0.0000 
      9 PA        -10.2080   38.9500   40.0130 P.3       1 AGS600      0.0000 
     10 O1A        -9.8330   38.8340   41.4370 O.co2     1 AGS600      0.0000 
     11 O2A        -9.1750   39.6720   39.1450 O.co2     1 AGS600      0.0000 
     12 O3A       -10.4480   37.5170   39.3700 O.3       1 AGS600      0.0000 
     13 O5'       -11.6110   39.6850   39.8090 O.3       1 AGS600      0.0000 
     14 C5'       -12.8670   39.1190   40.2330 C.3       1 AGS600      0.0000 
     15 C4'       -13.9860   40.0400   39.8150 C.3       1 AGS600      0.0000 
     16 O4'       -13.7100   41.3840   40.2630 O.3       1 AGS600      0.0000 
     17 C3'       -14.2820   40.1220   38.3150 C.3       1 AGS600      0.0000 
     18 O3'       -15.6750   39.9850   38.0550 O.3       1 AGS600      0.0000 
     19 C2'       -13.7030   41.4830   37.9020 C.3       1 AGS600      0.0000 
     20 O2'       -14.4440   42.1070   36.8590 O.3       1 AGS600      0.0000 
     21 C1'       -13.8290   42.2970   39.1900 C.3       1 AGS600      0.0000 
     22 N9        -12.8070   43.3310   39.3510 N.pl3     1 AGS600      0.0000 
     23 C8        -11.4650   43.1490   39.5670 C.2       1 AGS600      0.0000 
     24 N7        -10.7780   44.2630   39.6450 N.2       1 AGS600      0.0000 
     25 C5        -11.7340   45.2520   39.4690 C.ar      1 AGS600      0.0000 
     26 C6        -11.6530   46.6580   39.4320 C.ar      1 AGS600      0.0000 
     27 N6        -10.5160   47.3400   39.5960 N.pl3     1 AGS600      0.0000 
     28 N1        -12.7970   47.3510   39.2270 N.ar      1 AGS600      0.0000 
     29 C2        -13.9410   46.6730   39.0710 C.ar      1 AGS600      0.0000 
     30 N3        -14.1400   45.3510   39.0920 N.ar      1 AGS600      0.0000 
     31 C4        -12.9920   44.6920   39.2920 C.ar      1 AGS600      0.0000 
@<TRIPOS>BOND
     1    1    2 2    
     2    1    3 1    
     3    1    4 1    
     4    1    8 1    
     5    5    6 ar   
     6    5    7 ar   
     7    5    8 1    
     8    5   12 1    
     9    9   10 ar   
    10    9   11 ar   
    11    9   12 1    
    12    9   13 1    
    13   13   14 1    
    14   14   15 1    
    15   15   16 1    
    16   15   17 1    
    17   16   21 1    
    18   17   18 1    
    19   17   19 1    
    20   19   20 1    
    21   19   21 1    
    22   21   22 1    
    23   22   23 1    
    24   22   31 1    
    25   23   24 2    
    26   24   25 1    
    27   25   26 ar   
    28   25   31 ar   
    29   26   27 1    
    30   26   28 ar   
    31   28   29 ar   
    32   29   30 ar   
    33   30   31 ar   
@<TRIPOS>SUBSTRUCTURE
     1 AGS600      1 GROUP   
@<TRIPOS>SET

