#    Name: 6bt6_2_3GK
#    Modification time : Fri May 22 19:25:02 2020

@<TRIPOS>MOLECULE
6bt6_2_3GK
   27    30     1     0     0
SMALL
NO_CHARGES


@<TRIPOS>ATOM
      1 N1         13.4390    1.5420   -8.6050           1 3GK302      0.0000 
      2 C6         11.6980   -1.3040   -9.8690           1 3GK302      0.0000 
      3 C7         10.3400   -1.5950   -9.8210           1 3GK302      0.0000 
      4 C8          9.8060   -2.6730  -10.5110           1 3GK302      0.0000 
      5 C9         10.6560   -3.4800  -11.2600           1 3GK302      0.0000 
      6 C13         7.6300   -3.7430  -11.1720           1 3GK302      0.0000 
      7 C17         4.2050   -3.2210   -9.4170           1 3GK302      0.0000 
      8 C18         3.4460   -4.0230  -10.2930           1 3GK302      0.0000 
      9 C22         5.0440   -1.9240   -7.8610           1 3GK302      0.0000 
     10 C24         3.2120   -5.4880  -12.2770           1 3GK302      0.0000 
     11 F27         3.6750   -6.7200  -12.3500           1 3GK302      0.0000 
     12 F25         1.9200   -5.5000  -11.8360           1 3GK302      0.0000 
     13 F26         3.1700   -5.0230  -13.5560           1 3GK302      0.0000 
     14 C19         4.0510   -4.6570  -11.3680           1 3GK302      0.0000 
     15 N23         3.8950   -2.4850   -8.2970           1 3GK302      0.0000 
     16 N21         6.0660   -2.2830   -8.6700           1 3GK302      0.0000 
     17 C16         5.5890   -3.0760   -9.6300           1 3GK302      0.0000 
     18 C20         5.4150   -4.5240  -11.5970           1 3GK302      0.0000 
     19 C15         6.1630   -3.7480  -10.7460           1 3GK302      0.0000 
     20 O14         8.0190   -4.4380  -12.1060           1 3GK302      0.0000 
     21 N12         8.4180   -2.9320  -10.4270           1 3GK302      0.0000 
     22 C10        12.0070   -3.2030  -11.3160           1 3GK302      0.0000 
     23 C11        12.5280   -2.1220  -10.6260           1 3GK302      0.0000 
     24 C3         12.2590   -0.1500   -9.1300           1 3GK302      0.0000 
     25 N2         13.2420    0.6240   -9.5820           1 3GK302      0.0000 
     26 N4         11.8390    0.2420   -7.9280           1 3GK302      0.0000 
     27 N5         12.5950    1.3060   -7.6180           1 3GK302      0.0000 
@<TRIPOS>BOND
     1    1   25 du   
     2    1   27 du   
     3    2    3 du   
     4    2   23 du   
     5    2   24 du   
     6    3    4 du   
     7    4    5 du   
     8    4   21 du   
     9    5   22 du   
    10    6   19 du   
    11    6   20 du   
    12    6   21 du   
    13    7    8 du   
    14    7   15 du   
    15    7   17 du   
    16    8   14 du   
    17    9   15 du   
    18    9   16 du   
    19   10   11 du   
    20   10   12 du   
    21   10   13 du   
    22   10   14 du   
    23   14   18 du   
    24   16   17 du   
    25   17   19 du   
    26   18   19 du   
    27   22   23 du   
    28   24   25 du   
    29   24   26 du   
    30   26   27 du   
@<TRIPOS>SUBSTRUCTURE
     1 3GK302      1 GROUP   
@<TRIPOS>SET

