#    Name: 6bt6_1_3GK
#    Modification time : Fri May 22 19:24:58 2020

@<TRIPOS>MOLECULE
6bt6_1_3GK
   27    30     1     0     0
SMALL
NO_CHARGES


@<TRIPOS>ATOM
      1 N1          1.3950   -1.5160  -11.6780           1 3GK301      0.0000 
      2 C6          4.6120   -1.4870  -13.2030           1 3GK301      0.0000 
      3 C7          5.5180   -0.7300  -12.4650           1 3GK301      0.0000 
      4 C8          6.8510   -0.6590  -12.8260           1 3GK301      0.0000 
      5 C9          7.2910   -1.3450  -13.9540           1 3GK301      0.0000 
      6 C13         8.7930    0.8390  -12.4830           1 3GK301      0.0000 
      7 C17         9.7740    2.5130   -9.1570           1 3GK301      0.0000 
      8 C18        10.7920    3.3790   -9.6090           1 3GK301      0.0000 
      9 C22         8.2640    1.3290   -8.0770           1 3GK301      0.0000 
     10 C24        12.1680    4.3120  -11.4580           1 3GK301      0.0000 
     11 F27        11.6060    5.4140  -11.9350           1 3GK301      0.0000 
     12 F25        13.0390    4.6790  -10.4820           1 3GK301      0.0000 
     13 F26        12.8990    3.8170  -12.4840           1 3GK301      0.0000 
     14 C19        11.1170    3.3780  -10.9560           1 3GK301      0.0000 
     15 N23         9.2200    2.2700   -7.9270           1 3GK301      0.0000 
     16 N21         8.1810    0.9580   -9.3680           1 3GK301      0.0000 
     17 C16         9.0900    1.6620  -10.0460           1 3GK301      0.0000 
     18 C20        10.4510    2.5380  -11.8520           1 3GK301      0.0000 
     19 C15         9.4620    1.6850  -11.4040           1 3GK301      0.0000 
     20 O14         9.2040    0.8060  -13.6370           1 3GK301      0.0000 
     21 N12         7.7080    0.1510  -12.0510           1 3GK301      0.0000 
     22 C10         6.3970   -2.0880  -14.6990           1 3GK301      0.0000 
     23 C11         5.0640   -2.1610  -14.3320           1 3GK301      0.0000 
     24 C3          3.1870   -1.5560  -12.8170           1 3GK301      0.0000 
     25 N2          2.7390   -1.3870  -11.5800           1 3GK301      0.0000 
     26 N4          2.1890   -1.7760  -13.6660           1 3GK301      0.0000 
     27 N5          1.0760   -1.7500  -12.9300           1 3GK301      0.0000 
@<TRIPOS>BOND
     1    1   25 du   
     2    1   27 du   
     3    2    3 du   
     4    2   23 du   
     5    2   24 du   
     6    3    4 du   
     7    4    5 du   
     8    4   21 du   
     9    5   22 du   
    10    6   19 du   
    11    6   20 du   
    12    6   21 du   
    13    7    8 du   
    14    7   15 du   
    15    7   17 du   
    16    8   14 du   
    17    9   15 du   
    18    9   16 du   
    19   10   11 du   
    20   10   12 du   
    21   10   13 du   
    22   10   14 du   
    23   14   18 du   
    24   16   17 du   
    25   17   19 du   
    26   18   19 du   
    27   22   23 du   
    28   24   25 du   
    29   24   26 du   
    30   26   27 du   
@<TRIPOS>SUBSTRUCTURE
     1 3GK301      1 GROUP   
@<TRIPOS>SET

