#    Name: 6bt6_2_3GK_CAVITY_N1_6
#    Modification time : Fri May 22 19:25:03 2020

@<TRIPOS>MOLECULE
6bt6_2_3GK_CAVITY_N1_6
   78     0     7     0     0
SMALL
NO_CHARGES


@<TRIPOS>ATOM
      1 OG          1.5300   -2.2900  -13.8600 O.3       1 SER1        0.0000 
      2 OG          0.9800   -3.0000  -12.6500 O.3       1 SER1        0.0000 
      3 OG          0.4200   -3.7100  -11.4500 O.3       1 SER1        0.0000 
      4 OG          2.6000   -1.6800  -13.0000 O.3       1 SER1        0.0000 
      5 OG          2.0500   -2.3900  -11.8000 O.3       1 SER1        0.0000 
      6 OG          4.0400   -2.1500  -14.4900 O.3       1 SER1        0.0000 
      7 OG          3.4900   -2.8600  -13.2900 O.3       1 SER1        0.0000 
      8 OG          5.6700   -0.8300  -14.8400 O.3       1 SER1        0.0000 
      9 OG          5.1200   -1.5400  -13.6400 O.3       1 SER1        0.0000 
     10 N           4.9300   -3.3200  -14.7700 N.am      2 ALA2        0.0000 
     11 O           3.6800   -1.0700  -12.1500 O.2       2 ALA2        0.0000 
     12 N           6.5600   -2.0100  -15.1200 N.am      2 ALA2        0.0000 
     13 O           6.7400   -0.2200  -13.9900 O.2       2 ALA2        0.0000 
     14 O           7.6300   -1.4000  -14.2700 O.2       2 ALA2        0.0000 
     15 N           6.9300    1.5600  -12.8500 N.am      2 ALA2        0.0000 
     16 N           5.8200    0.1400  -10.4500 N.am      2 ALA2        0.0000 
     17 O           7.8200    0.3900  -13.1400 O.2       2 ALA2        0.0000 
     18 N           7.2700   -0.3200  -11.9400 N.am      2 ALA2        0.0000 
     19 N           6.7100   -1.0300  -10.7300 N.am      2 ALA2        0.0000 
     20 O           8.7100   -0.7900  -13.4200 O.2       2 ALA2        0.0000 
     21 O           8.1600   -1.5000  -12.2200 O.2       2 ALA2        0.0000 
     22 N           7.4500    1.4600  -10.8000 N.am      2 ALA2        0.0000 
     23 N           6.9000    0.7500   -9.6000 N.am      2 ALA2        0.0000 
     24 O           8.8900    1.0000  -12.2900 O.2       2 ALA2        0.0000 
     25 O           9.2300   -0.8900  -11.3700 O.2       2 ALA2        0.0000 
     26 O          10.1200   -2.0600  -11.6500 O.2       2 ALA2        0.0000 
     27 O           9.9700    1.6000  -11.4300 O.2       2 ALA2        0.0000 
     28 N          10.1500    3.3900  -10.3000 N.am      2 ALA2        0.0000 
     29 O           9.6000    2.6800   -9.1000 O.2       2 ALA2        0.0000 
     30 N          11.5900    2.9200  -11.7900 N.am      2 ALA2        0.0000 
     31 N          10.8900    5.8800  -10.3700 N.am      2 ALA2        0.0000 
     32 N          11.7800    4.7000  -10.6500 N.am      2 ALA2        0.0000 
     33 N          13.2200    4.2400  -12.1400 N.am      2 ALA2        0.0000 
     34 OD1         1.8400   -4.9800   -9.6800 O.co2     3 ASP3        0.0000 
     35 NZ         11.2200    4.0000   -9.4500 N.4       4 LYS4        0.0000 
     36 CZ          4.3800   -4.0300  -13.5700 C.ar      5 PHE5        0.0000 
     37 CZ          3.8300   -4.7400  -12.3700 C.ar      5 PHE5        0.0000 
     38 CZ          4.7200   -5.9100  -12.6500 C.ar      5 PHE5        0.0000 
     39 CZ          6.0100   -2.7100  -13.9200 C.ar      5 PHE5        0.0000 
     40 CZ          5.4600   -3.4200  -12.7200 C.ar      5 PHE5        0.0000 
     41 CZ          6.3500   -4.6000  -13.0000 C.ar      5 PHE5        0.0000 
     42 CA          1.8700   -4.1700  -12.9400 C.3       6 GLY6        0.0000 
     43 CA          1.3100   -4.8800  -11.7400 C.3       6 GLY6        0.0000 
     44 CA          0.7600   -5.5900  -10.5300 C.3       6 GLY6        0.0000 
     45 CA          2.7600   -5.3500  -13.2200 C.3       6 GLY6        0.0000 
     46 CA          2.2000   -6.0600  -12.0200 C.3       6 GLY6        0.0000 
     47 CA          1.1600   -1.2200  -11.5200 C.3       6 GLY6        0.0000 
     48 CA          3.1200   -1.7800  -10.9500 C.3       6 GLY6        0.0000 
     49 CA          2.5700   -2.4900   -9.7500 C.3       6 GLY6        0.0000 
     50 CA          4.7500   -0.4600  -11.3000 C.3       6 GLY6        0.0000 
     51 CA          5.0900   -2.3500  -10.3800 C.3       6 GLY6        0.0000 
     52 CA          7.0800   -2.1000  -13.0700 C.3       6 GLY6        0.0000 
     53 CA          7.9700   -3.2800  -13.3500 C.3       6 GLY6        0.0000 
     54 CA          9.0500   -2.6700  -12.5000 C.3       6 GLY6        0.0000 
     55 CA          8.0000    2.1700  -12.0000 C.3       6 GLY6        0.0000 
     56 CA          6.3500    0.0500   -8.4000 C.3       6 GLY6        0.0000 
     57 CA          9.0800    2.7800  -11.1500 C.3       6 GLY6        0.0000 
     58 CA          8.5200    2.0700   -9.9500 C.3       6 GLY6        0.0000 
     59 CA          7.9700    1.3600   -8.7500 C.3       6 GLY6        0.0000 
     60 CA         10.7000    4.1000  -11.5000 C.3       6 GLY6        0.0000 
     61 CA         12.3300    5.4100  -11.8500 C.3       6 GLY6        0.0000 
     62 CA         13.4000    6.0200  -11.0000 C.3       6 GLY6        0.0000 
     63 DU          1.5000   -3.1000  -10.6000 H         7 CUB7        0.0000 
     64 DU          2.9400   -3.5600  -12.0900 H         7 CUB7        0.0000 
     65 DU          3.2800   -5.4500  -11.1700 H         7 CUB7        0.0000 
     66 DU          4.5700   -2.2500  -12.4400 H         7 CUB7        0.0000 
     67 DU          4.0100   -2.9600  -11.2300 H         7 CUB7        0.0000 
     68 DU          3.4600   -3.6600  -10.0300 H         7 CUB7        0.0000 
     69 DU          4.9000   -4.1300  -11.5200 H         7 CUB7        0.0000 
     70 DU          6.1900   -0.9300  -12.7900 H         7 CUB7        0.0000 
     71 DU          5.6400   -1.6400  -11.5900 H         7 CUB7        0.0000 
     72 DU          6.5300   -2.8100  -11.8700 H         7 CUB7        0.0000 
     73 DU          7.6000   -2.2000  -11.0200 H         7 CUB7        0.0000 
     74 DU          8.3400    0.2900  -11.0800 H         7 CUB7        0.0000 
     75 DU          7.7900   -0.4200   -9.8800 H         7 CUB7        0.0000 
     76 DU          9.4100    0.9000  -10.2300 H         7 CUB7        0.0000 
     77 DU         11.0400    2.2100  -10.5800 H         7 CUB7        0.0000 
     78 DU         12.6700    3.5300  -10.9300 H         7 CUB7        0.0000 
@<TRIPOS>BOND
@<TRIPOS>SUBSTRUCTURE
     1 SER1        1 GROUP   
     2 ALA2       10 GROUP   
     3 ASP3       34 GROUP   
     4 LYS4       35 GROUP   
     5 PHE5       36 GROUP   
     6 GLY6       42 GROUP   
     7 CUB7       63 GROUP   
@<TRIPOS>SET

