#    Name: 6jqm_1_NDP
#    Modification time : Fri May 22 19:25:10 2020

@<TRIPOS>MOLECULE
6jqm_1_NDP
   48    52     1     0     1
SMALL
NO_CHARGES


@<TRIPOS>ATOM
      1 PA        232.0210  291.0740  203.5840 P.3       1 NDP801      0.0000 
      2 O1A       233.0160  291.1660  204.6840 O.co2     1 NDP801      0.0000 
      3 O2A       231.7580  292.2310  202.6650 O.co2     1 NDP801      0.0000 
      4 O5B       230.6090  290.5330  204.2180 O.3       1 NDP801      0.0000 
      5 C5B       230.2460  289.4770  203.4070 C.3       1 NDP801      0.0000 
      6 C4B       228.7660  289.2670  203.5580 C.3       1 NDP801      0.0000 
      7 O4B       228.2860  290.0360  204.6570 O.3       1 NDP801      0.0000 
      8 C3B       228.1110  289.7790  202.2780 C.3       1 NDP801      0.0000 
      9 O3B       226.8710  289.1790  202.1320 O.3       1 NDP801      0.0000 
     10 C2B       227.8960  291.2380  202.6590 C.3       1 NDP801      0.0000 
     11 O2B       226.9650  291.8480  201.9410 O.3       1 NDP801      0.0000 
     12 C1B       227.3940  291.0040  204.1160 C.3       1 NDP801      0.0000 
     13 N9A       227.4770  292.2060  204.9420 N.pl3     1 NDP801      0.0000 
     14 C8A       228.4700  293.1910  204.9450 C.2       1 NDP801      0.0000 
     15 N7A       228.2440  294.1720  205.8390 N.2       1 NDP801      0.0000 
     16 C5A       227.0390  293.7960  206.4430 C.ar      1 NDP801      0.0000 
     17 C6A       226.2680  294.3930  207.4470 C.ar      1 NDP801      0.0000 
     18 N6A       226.6810  295.5740  208.0200 N.pl3     1 NDP801      0.0000 
     19 N1A       225.1000  293.8340  207.8850 N.ar      1 NDP801      0.0000 
     20 C2A       224.7540  292.6570  207.2650 C.ar      1 NDP801      0.0000 
     21 N3A       225.3800  291.9690  206.2980 N.ar      1 NDP801      0.0000 
     22 C4A       226.5480  292.5750  205.8940 C.ar      1 NDP801      0.0000 
     23 O3        232.7130  289.9120  202.6640 O.3       1 NDP801      0.0000 
     24 PN        233.7360  290.6220  201.6810 P.3       1 NDP801      0.0000 
     25 O1N       233.0510  290.8470  200.3920 O.co2     1 NDP801      0.0000 
     26 O2N       234.6180  291.6590  202.3420 O.co2     1 NDP801      0.0000 
     27 O5D       234.9170  289.3930  201.2090 O.3       1 NDP801      0.0000 
     28 C5D       236.1610  289.9730  201.2350 C.3       1 NDP801      0.0000 
     29 C4D       237.0080  289.1970  202.2060 C.3       1 NDP801      0.0000 
     30 O4D       236.1930  288.2020  202.7880 O.3       1 NDP801      0.0000 
     31 C3D       238.0630  288.4250  201.4050 C.3       1 NDP801      0.0000 
     32 O3D       239.2000  289.2150  201.3040 O.3       1 NDP801      0.0000 
     33 C2D       238.3110  287.2090  202.3030 C.3       1 NDP801      0.0000 
     34 O2D       239.3590  287.4010  203.1900 O.3       1 NDP801      0.0000 
     35 C1D       237.0020  287.1080  203.1360 C.3       1 NDP801      0.0000 
     36 N1N       236.2800  285.9050  202.7550 N.pl3     1 NDP801      0.0000 
     37 C2N       236.3550  284.7730  203.5290 C.2       1 NDP801      0.0000 
     38 C3N       235.3300  283.8880  203.4710 C.2       1 NDP801      0.0000 
     39 C7N       235.4240  282.7040  204.2860 C.2       1 NDP801      0.0000 
     40 O7N       236.4430  282.3380  204.8760 O.2       1 NDP801      0.0000 
     41 N7N       234.2780  281.9420  204.3940 N.am      1 NDP801      0.0000 
     42 C4N       234.1600  284.1150  202.6130 C.3       1 NDP801      0.0000 
     43 C5N       234.4690  285.0480  201.5120 C.2       1 NDP801      0.0000 
     44 C6N       235.4880  285.8930  201.6040 C.2       1 NDP801      0.0000 
     45 P2B       227.7080  292.9560  200.6960 P.3       1 NDP801      0.0000 
     46 O1X       228.2160  291.8780  199.7920 O.co2     1 NDP801      0.0000 
     47 O2X       226.5220  293.7920  200.2060 O.co2     1 NDP801      0.0000 
     48 O3X       228.7030  293.6330  201.5940 O.co2     1 NDP801      0.0000 
@<TRIPOS>BOND
     1    1    2 ar   
     2    1    3 ar   
     3    1    4 1    
     4    1   23 1    
     5    4    5 1    
     6    5    6 1    
     7    6    7 1    
     8    6    8 1    
     9    7   12 1    
    10    8    9 1    
    11    8   10 1    
    12   10   11 1    
    13   10   12 1    
    14   11   45 1    
    15   12   13 1    
    16   13   14 1    
    17   13   22 1    
    18   14   15 2    
    19   15   16 1    
    20   16   17 ar   
    21   16   22 ar   
    22   17   18 1    
    23   17   19 ar   
    24   19   20 ar   
    25   20   21 ar   
    26   21   22 ar   
    27   23   24 1    
    28   24   25 ar   
    29   24   26 ar   
    30   24   27 1    
    31   27   28 1    
    32   28   29 1    
    33   29   30 1    
    34   29   31 1    
    35   30   35 1    
    36   31   32 1    
    37   31   33 1    
    38   33   34 1    
    39   33   35 1    
    40   35   36 1    
    41   36   37 1    
    42   36   44 1    
    43   37   38 2    
    44   38   39 1    
    45   38   42 1    
    46   39   40 2    
    47   39   41 am   
    48   42   43 1    
    49   43   44 2    
    50   45   46 ar   
    51   45   47 ar   
    52   45   48 ar   
@<TRIPOS>SUBSTRUCTURE
     1 NDP801      1 GROUP   
@<TRIPOS>SET
ATOM$ORANGE STATIC     ATOMS   COLORGROUP SYSTEM 
42 5 5 6 6 8 8 10 10 12 12 14 14 16 16 17 17 20 \
20 22 22 28 28 29 29 31 31 33 33 35 35 37 37 38 38 39 \
39 42 42 43 43 44 44 

