#    Name: 6jqm_6_NDP
#    Modification time : Fri May 22 19:25:49 2020

@<TRIPOS>MOLECULE
6jqm_6_NDP
   48    52     1     0     1
SMALL
NO_CHARGES


@<TRIPOS>ATOM
      1 PA        150.3420  188.8530  238.6330 P.3       1 NDP801      0.0000 
      2 O1A       149.9510  187.8220  237.6360 O.co2     1 NDP801      0.0000 
      3 O2A       149.4770  189.1660  239.8180 O.co2     1 NDP801      0.0000 
      4 O5B       150.7030  190.2420  237.8470 O.3       1 NDP801      0.0000 
      5 C5B       151.6820  190.8170  238.6370 C.3       1 NDP801      0.0000 
      6 C4B       151.5860  192.3100  238.5060 C.3       1 NDP801      0.0000 
      7 O4B       150.6800  192.6370  237.4660 O.3       1 NDP801      0.0000 
      8 C3B       151.0470  192.8430  239.8370 C.3       1 NDP801      0.0000 
      9 O3B       151.5160  194.1320  240.0380 O.3       1 NDP801      0.0000 
     10 C2B       149.5470  192.9060  239.5440 C.3       1 NDP801      0.0000 
     11 O2B       148.8950  193.8060  240.2710 O.3       1 NDP801      0.0000 
     12 C1B       149.6140  193.3680  238.0540 C.3       1 NDP801      0.0000 
     13 N9A       148.4010  193.0410  237.3060 N.pl3     1 NDP801      0.0000 
     14 C8A       147.6420  191.8650  237.3470 C.2       1 NDP801      0.0000 
     15 N7A       146.5810  191.8880  236.5180 N.2       1 NDP801      0.0000 
     16 C5A       146.6630  193.1470  235.9140 C.ar      1 NDP801      0.0000 
     17 C6A       145.8610  193.7850  234.9600 C.ar      1 NDP801      0.0000 
     18 N6A       144.7530  193.1470  234.4490 N.pl3     1 NDP801      0.0000 
     19 N1A       146.1440  195.0450  234.5100 N.ar      1 NDP801      0.0000 
     20 C2A       147.2630  195.6210  235.0640 C.ar      1 NDP801      0.0000 
     21 N3A       148.1220  195.1450  235.9750 N.ar      1 NDP801      0.0000 
     22 C4A       147.7920  193.8770  236.3940 C.ar      1 NDP801      0.0000 
     23 O3        151.7330  188.1960  239.1960 O.3       1 NDP801      0.0000 
     24 PN        151.4350  187.4950  240.5860 P.3       1 NDP801      0.0000 
     25 O1N       151.6390  188.4960  241.6520 O.co2     1 NDP801      0.0000 
     26 O2N       150.2810  186.5170  240.5680 O.co2     1 NDP801      0.0000 
     27 O5D       152.8010  186.4190  240.9110 O.3       1 NDP801      0.0000 
     28 C5D       152.4340  185.1540  240.5310 C.3       1 NDP801      0.0000 
     29 C4D       153.5680  184.5610  239.7440 C.3       1 NDP801      0.0000 
     30 O4D       154.3620  185.6210  239.2540 O.3       1 NDP801      0.0000 
     31 C3D       154.4910  183.8140  240.7100 C.3       1 NDP801      0.0000 
     32 O3D       154.0430  182.5050  240.8230 O.3       1 NDP801      0.0000 
     33 C2D       155.8260  183.8820  239.9620 C.3       1 NDP801      0.0000 
     34 O2D       156.0410  182.7740  239.1540 O.3       1 NDP801      0.0000 
     35 C1D       155.6550  185.1240  239.0300 C.3       1 NDP801      0.0000 
     36 N1N       156.5840  186.1620  239.4370 N.pl3     1 NDP801      0.0000 
     37 C2N       157.7250  186.4250  238.7140 C.2       1 NDP801      0.0000 
     38 C3N       158.2760  187.6610  238.8170 C.2       1 NDP801      0.0000 
     39 C7N       159.4700  187.9480  238.0720 C.2       1 NDP801      0.0000 
     40 O7N       159.9690  187.2140  237.2230 O.2       1 NDP801      0.0000 
     41 N7N       160.0800  189.1510  238.3550 N.am      1 NDP801      0.0000 
     42 C4N       157.6840  188.6980  239.6570 C.3       1 NDP801      0.0000 
     43 C5N       156.8230  188.1280  240.7060 C.2       1 NDP801      0.0000 
     44 C6N       156.3130  186.9150  240.5760 C.2       1 NDP801      0.0000 
     45 P2B       147.6870  193.0140  241.3910 P.3       1 NDP801      0.0000 
     46 O1X       148.6480  192.7170  242.4980 O.co2     1 NDP801      0.0000 
     47 O2X       146.6470  194.1130  241.6300 O.co2     1 NDP801      0.0000 
     48 O3X       147.2910  191.8760  240.4950 O.co2     1 NDP801      0.0000 
@<TRIPOS>BOND
     1    1    2 ar   
     2    1    3 ar   
     3    1    4 1    
     4    1   23 1    
     5    4    5 1    
     6    5    6 1    
     7    6    7 1    
     8    6    8 1    
     9    7   12 1    
    10    8    9 1    
    11    8   10 1    
    12   10   11 1    
    13   10   12 1    
    14   11   45 1    
    15   12   13 1    
    16   13   14 1    
    17   13   22 1    
    18   14   15 2    
    19   15   16 1    
    20   16   17 ar   
    21   16   22 ar   
    22   17   18 1    
    23   17   19 ar   
    24   19   20 ar   
    25   20   21 ar   
    26   21   22 ar   
    27   23   24 1    
    28   24   25 ar   
    29   24   26 ar   
    30   24   27 1    
    31   27   28 1    
    32   28   29 1    
    33   29   30 1    
    34   29   31 1    
    35   30   35 1    
    36   31   32 1    
    37   31   33 1    
    38   33   34 1    
    39   33   35 1    
    40   35   36 1    
    41   36   37 1    
    42   36   44 1    
    43   37   38 2    
    44   38   39 1    
    45   38   42 1    
    46   39   40 2    
    47   39   41 am   
    48   42   43 1    
    49   43   44 2    
    50   45   46 ar   
    51   45   47 ar   
    52   45   48 ar   
@<TRIPOS>SUBSTRUCTURE
     1 NDP801      1 GROUP   
@<TRIPOS>SET
ATOM$ORANGE STATIC     ATOMS   COLORGROUP SYSTEM 
42 5 5 6 6 8 8 10 10 12 12 14 14 16 16 17 17 20 \
20 22 22 28 28 29 29 31 31 33 33 35 35 37 37 38 38 39 \
39 42 42 43 43 44 44 

