#    Name: 6jqm_5_NDP
#    Modification time : Fri May 22 19:25:40 2020

@<TRIPOS>MOLECULE
6jqm_5_NDP
   48    52     1     0     1
SMALL
NO_CHARGES


@<TRIPOS>ATOM
      1 PA        148.5610  193.8070  203.5870 P.3       1 NDP801      0.0000 
      2 O1A       148.0670  194.6590  204.7000 O.co2     1 NDP801      0.0000 
      3 O2A       147.6210  193.0420  202.7010 O.co2     1 NDP801      0.0000 
      4 O5B       149.6960  192.7900  204.1940 O.3       1 NDP801      0.0000 
      5 C5B       150.8090  193.0040  203.4080 C.3       1 NDP801      0.0000 
      6 C4B       151.7280  191.8290  203.5780 C.3       1 NDP801      0.0000 
      7 O4B       151.2970  191.0460  204.6850 O.3       1 NDP801      0.0000 
      8 C3B       151.6200  190.9910  202.3090 C.3       1 NDP801      0.0000 
      9 O3B       152.7570  190.2100  202.1870 O.3       1 NDP801      0.0000 
     10 C2B       150.4510  190.0860  202.6780 C.3       1 NDP801      0.0000 
     11 O2B       150.4130  188.9550  201.9890 O.3       1 NDP801      0.0000 
     12 C1B       150.8480  189.7990  204.1610 C.3       1 NDP801      0.0000 
     13 N9A       149.7100  189.3620  204.9640 N.pl3     1 NDP801      0.0000 
     14 C8A       148.3930  189.8290  204.9280 C.2       1 NDP801      0.0000 
     15 N7A       147.5840  189.2110  205.8070 N.2       1 NDP801      0.0000 
     16 C5A       148.4280  188.2960  206.4440 C.ar      1 NDP801      0.0000 
     17 C6A       148.2000  187.3550  207.4520 C.ar      1 NDP801      0.0000 
     18 N6A       146.9420  187.2210  207.9960 N.pl3     1 NDP801      0.0000 
     19 N1A       149.2000  186.5490  207.9260 N.ar      1 NDP801      0.0000 
     20 C2A       150.4260  186.7400  207.3350 C.ar      1 NDP801      0.0000 
     21 N3A       150.7980  187.5910  206.3680 N.ar      1 NDP801      0.0000 
     22 C4A       149.7560  188.3770  205.9280 C.ar      1 NDP801      0.0000 
     23 O3        149.2590  194.9480  202.6430 O.3       1 NDP801      0.0000 
     24 PN        148.1340  195.5580  201.7050 P.3       1 NDP801      0.0000 
     25 O1N       148.2490  194.9150  200.3800 O.co2     1 NDP801      0.0000 
     26 O2N       146.8090  195.8110  202.3900 O.co2     1 NDP801      0.0000 
     27 O5D       148.6520  197.2030  201.3140 O.3       1 NDP801      0.0000 
     28 C5D       147.5480  198.0130  201.3720 C.3       1 NDP801      0.0000 
     29 C4D       147.8580  199.1490  202.3070 C.3       1 NDP801      0.0000 
     30 O4D       149.1490  198.9380  202.8440 O.3       1 NDP801      0.0000 
     31 C3D       147.9810  200.4250  201.4710 C.3       1 NDP801      0.0000 
     32 O3D       146.7330  201.0300  201.4090 O.3       1 NDP801      0.0000 
     33 C2D       148.9570  201.2550  202.3090 C.3       1 NDP801      0.0000 
     34 O2D       148.3090  202.1070  203.1920 O.3       1 NDP801      0.0000 
     35 C1D       149.7130  200.1860  203.1540 C.3       1 NDP801      0.0000 
     36 N1N       151.1090  200.1340  202.7400 N.pl3     1 NDP801      0.0000 
     37 C2N       152.1010  200.6810  203.5220 C.2       1 NDP801      0.0000 
     38 C3N       153.3560  200.1790  203.4020 C.2       1 NDP801      0.0000 
     39 C7N       154.4020  200.7400  204.2090 C.2       1 NDP801      0.0000 
     40 O7N       154.2570  201.6500  205.0190 O.2       1 NDP801      0.0000 
     41 N7N       155.6590  200.2030  204.0340 N.am      1 NDP801      0.0000 
     42 C4N       153.6580  199.0880  202.4850 C.3       1 NDP801      0.0000 
     43 C5N       152.6740  198.9970  201.3960 C.2       1 NDP801      0.0000 
     44 C6N       151.4600  199.5070  201.5430 C.2       1 NDP801      0.0000 
     45 P2B       148.9800  188.8930  200.8650 P.3       1 NDP801      0.0000 
     46 O1X       149.3690  190.0760  200.0350 O.co2     1 NDP801      0.0000 
     47 O2X       149.0920  187.5080  200.2210 O.co2     1 NDP801      0.0000 
     48 O3X       147.9010  189.0900  201.8900 O.co2     1 NDP801      0.0000 
@<TRIPOS>BOND
     1    1    2 ar   
     2    1    3 ar   
     3    1    4 1    
     4    1   23 1    
     5    4    5 1    
     6    5    6 1    
     7    6    7 1    
     8    6    8 1    
     9    7   12 1    
    10    8    9 1    
    11    8   10 1    
    12   10   11 1    
    13   10   12 1    
    14   11   45 1    
    15   12   13 1    
    16   13   14 1    
    17   13   22 1    
    18   14   15 2    
    19   15   16 1    
    20   16   17 ar   
    21   16   22 ar   
    22   17   18 1    
    23   17   19 ar   
    24   19   20 ar   
    25   20   21 ar   
    26   21   22 ar   
    27   23   24 1    
    28   24   25 ar   
    29   24   26 ar   
    30   24   27 1    
    31   27   28 1    
    32   28   29 1    
    33   29   30 1    
    34   29   31 1    
    35   30   35 1    
    36   31   32 1    
    37   31   33 1    
    38   33   34 1    
    39   33   35 1    
    40   35   36 1    
    41   36   37 1    
    42   36   44 1    
    43   37   38 2    
    44   38   39 1    
    45   38   42 1    
    46   39   40 2    
    47   39   41 am   
    48   42   43 1    
    49   43   44 2    
    50   45   46 ar   
    51   45   47 ar   
    52   45   48 ar   
@<TRIPOS>SUBSTRUCTURE
     1 NDP801      1 GROUP   
@<TRIPOS>SET
ATOM$ORANGE STATIC     ATOMS   COLORGROUP SYSTEM 
42 5 5 6 6 8 8 10 10 12 12 14 14 16 16 17 17 20 \
20 22 22 28 28 29 29 31 31 33 33 35 35 37 37 38 38 39 \
39 42 42 43 43 44 44 

