#    Name: 6jqm_3_NDP
#    Modification time : Fri May 22 19:25:20 2020

@<TRIPOS>MOLECULE
6jqm_3_NDP
   48    52     1     0     1
SMALL
NO_CHARGES


@<TRIPOS>ATOM
      1 PA        274.5460  170.2790  203.6480 P.3       1 NDP801      0.0000 
      2 O1A       274.0580  169.3780  204.7240 O.co2     1 NDP801      0.0000 
      3 O2A       275.7310  169.9250  202.7990 O.co2     1 NDP801      0.0000 
      4 O5B       274.7410  171.7730  204.2880 O.3       1 NDP801      0.0000 
      5 C5B       274.1140  172.6120  203.3920 C.3       1 NDP801      0.0000 
      6 C4B       274.6980  173.9780  203.5680 C.3       1 NDP801      0.0000 
      7 O4B       275.5950  173.9590  204.6700 O.3       1 NDP801      0.0000 
      8 C3B       275.4830  174.2880  202.2970 C.3       1 NDP801      0.0000 
      9 O3B       275.6210  175.6600  202.1770 O.3       1 NDP801      0.0000 
     10 C2B       276.8380  173.7000  202.6700 C.3       1 NDP801      0.0000 
     11 O2B       277.8490  174.2010  201.9750 O.3       1 NDP801      0.0000 
     12 C1B       276.8940  174.2020  204.1470 C.3       1 NDP801      0.0000 
     13 N9A       277.8460  173.4480  204.9550 N.pl3     1 NDP801      0.0000 
     14 C8A       278.1160  172.0770  204.9140 C.2       1 NDP801      0.0000 
     15 N7A       279.0550  171.6910  205.7960 N.2       1 NDP801      0.0000 
     16 C5A       279.4100  172.8800  206.4410 C.ar      1 NDP801      0.0000 
     17 C6A       280.3320  173.1560  207.4570 C.ar      1 NDP801      0.0000 
     18 N6A       281.0850  172.1390  207.9980 N.pl3     1 NDP801      0.0000 
     19 N1A       280.5150  174.4230  207.9380 N.ar      1 NDP801      0.0000 
     20 C2A       279.7290  175.3850  207.3490 C.ar      1 NDP801      0.0000 
     21 N3A       278.8110  175.2800  206.3760 N.ar      1 NDP801      0.0000 
     22 C4A       278.6670  173.9860  205.9270 C.ar      1 NDP801      0.0000 
     23 O3        273.2480  170.2650  202.6560 O.3       1 NDP801      0.0000 
     24 PN        273.3830  169.0110  201.6960 P.3       1 NDP801      0.0000 
     25 O1N       273.9320  169.4820  200.4090 O.co2     1 NDP801      0.0000 
     26 O2N       273.8430  167.7400  202.3770 O.co2     1 NDP801      0.0000 
     27 O5D       271.7330  168.5860  201.2130 O.3       1 NDP801      0.0000 
     28 C5D       271.5870  167.2290  201.3490 C.3       1 NDP801      0.0000 
     29 C4D       270.4270  166.9780  202.2770 C.3       1 NDP801      0.0000 
     30 O4D       269.9320  168.2220  202.7250 O.3       1 NDP801      0.0000 
     31 C3D       269.2830  166.3820  201.4520 C.3       1 NDP801      0.0000 
     32 O3D       269.3890  164.9980  201.4960 O.3       1 NDP801      0.0000 
     33 C2D       268.0470  166.8670  202.2180 C.3       1 NDP801      0.0000 
     34 O2D       267.5470  165.9090  203.0890 O.3       1 NDP801      0.0000 
     35 C1D       268.5840  168.0500  203.0780 C.3       1 NDP801      0.0000 
     36 N1N       267.8990  169.2650  202.6900 N.pl3     1 NDP801      0.0000 
     37 C2N       266.9460  169.8550  203.5000 C.2       1 NDP801      0.0000 
     38 C3N       266.7520  171.1940  203.3670 C.2       1 NDP801      0.0000 
     39 C7N       265.7670  171.8550  204.1850 C.2       1 NDP801      0.0000 
     40 O7N       265.1400  171.3400  205.1030 O.2       1 NDP801      0.0000 
     41 N7N       265.5300  173.1810  203.8870 N.am      1 NDP801      0.0000 
     42 C4N       267.5240  171.9820  202.4190 C.3       1 NDP801      0.0000 
     43 C5N       268.0590  171.1640  201.3220 C.2       1 NDP801      0.0000 
     44 C6N       268.2240  169.8610  201.4770 C.2       1 NDP801      0.0000 
     45 P2B       278.5760  172.9620  200.8460 P.3       1 NDP801      0.0000 
     46 O1X       277.3560  172.7700  200.0020 O.co2     1 NDP801      0.0000 
     47 O2X       279.7610  173.7040  200.2220 O.co2     1 NDP801      0.0000 
     48 O3X       278.8870  171.9030  201.8650 O.co2     1 NDP801      0.0000 
@<TRIPOS>BOND
     1    1    2 ar   
     2    1    3 ar   
     3    1    4 1    
     4    1   23 1    
     5    4    5 1    
     6    5    6 1    
     7    6    7 1    
     8    6    8 1    
     9    7   12 1    
    10    8    9 1    
    11    8   10 1    
    12   10   11 1    
    13   10   12 1    
    14   11   45 1    
    15   12   13 1    
    16   13   14 1    
    17   13   22 1    
    18   14   15 2    
    19   15   16 1    
    20   16   17 ar   
    21   16   22 ar   
    22   17   18 1    
    23   17   19 ar   
    24   19   20 ar   
    25   20   21 ar   
    26   21   22 ar   
    27   23   24 1    
    28   24   25 ar   
    29   24   26 ar   
    30   24   27 1    
    31   27   28 1    
    32   28   29 1    
    33   29   30 1    
    34   29   31 1    
    35   30   35 1    
    36   31   32 1    
    37   31   33 1    
    38   33   34 1    
    39   33   35 1    
    40   35   36 1    
    41   36   37 1    
    42   36   44 1    
    43   37   38 2    
    44   38   39 1    
    45   38   42 1    
    46   39   40 2    
    47   39   41 am   
    48   42   43 1    
    49   43   44 2    
    50   45   46 ar   
    51   45   47 ar   
    52   45   48 ar   
@<TRIPOS>SUBSTRUCTURE
     1 NDP801      1 GROUP   
@<TRIPOS>SET
ATOM$ORANGE STATIC     ATOMS   COLORGROUP SYSTEM 
42 5 5 6 6 8 8 10 10 12 12 14 14 16 16 17 17 20 \
20 22 22 28 28 29 29 31 31 33 33 35 35 37 37 38 38 39 \
39 42 42 43 43 44 44 

