#    Name: 6jqm_4_NDP
#    Modification time : Fri May 22 19:25:29 2020

@<TRIPOS>MOLECULE
6jqm_4_NDP
   48    52     1     0     1
SMALL
NO_CHARGES


@<TRIPOS>ATOM
      1 PA        277.8390  174.3580  238.6080 P.3       1 NDP801      0.0000 
      2 O1A       278.9240  174.5710  237.6140 O.co2     1 NDP801      0.0000 
      3 O2A       277.9800  173.3690  239.7270 O.co2     1 NDP801      0.0000 
      4 O5B       276.4400  174.0790  237.8130 O.3       1 NDP801      0.0000 
      5 C5B       275.4730  174.5100  238.7000 C.3       1 NDP801      0.0000 
      6 C4B       274.2690  173.6260  238.5550 C.3       1 NDP801      0.0000 
      7 O4B       274.4900  172.6960  237.5090 O.3       1 NDP801      0.0000 
      8 C3B       274.0980  172.8730  239.8810 C.3       1 NDP801      0.0000 
      9 O3B       272.7500  172.6280  240.1000 O.3       1 NDP801      0.0000 
     10 C2B       274.7940  171.5470  239.5630 C.3       1 NDP801      0.0000 
     11 O2B       274.3440  170.5190  240.2740 O.3       1 NDP801      0.0000 
     12 C1B       274.3500  171.4030  238.0740 C.3       1 NDP801      0.0000 
     13 N9A       275.2100  170.5000  237.3130 N.pl3     1 NDP801      0.0000 
     14 C8A       276.6070  170.4290  237.3090 C.2       1 NDP801      0.0000 
     15 N7A       277.0890  169.4840  236.4810 N.2       1 NDP801      0.0000 
     16 C5A       275.9390  168.9150  235.9240 C.ar      1 NDP801      0.0000 
     17 C6A       275.7580  167.8840  234.9930 C.ar      1 NDP801      0.0000 
     18 N6A       276.8470  167.2350  234.4590 N.pl3     1 NDP801      0.0000 
     19 N1A       274.5120  167.4920  234.5890 N.ar      1 NDP801      0.0000 
     20 C2A       273.4730  168.1840  235.1640 C.ar      1 NDP801      0.0000 
     21 N3A       273.4840  169.1830  236.0590 N.ar      1 NDP801      0.0000 
     22 C4A       274.7600  169.5390  236.4310 C.ar      1 NDP801      0.0000 
     23 O3        277.7690  175.8490  239.2840 O.3       1 NDP801      0.0000 
     24 PN        278.6060  175.8280  240.6290 P.3       1 NDP801      0.0000 
     25 O1N       277.6870  175.4720  241.7290 O.co2     1 NDP801      0.0000 
     26 O2N       280.0040  175.2660  240.4950 O.co2     1 NDP801      0.0000 
     27 O5D       278.9420  177.5120  241.0470 O.3       1 NDP801      0.0000 
     28 C5D       280.1910  177.8110  240.5720 C.3       1 NDP801      0.0000 
     29 C4D       280.0950  179.0780  239.7700 C.3       1 NDP801      0.0000 
     30 O4D       278.7700  179.2280  239.3190 O.3       1 NDP801      0.0000 
     31 C3D       280.2880  180.2700  240.7120 C.3       1 NDP801      0.0000 
     32 O3D       281.6470  180.5280  240.8250 O.3       1 NDP801      0.0000 
     33 C2D       279.5760  181.3800  239.9320 C.3       1 NDP801      0.0000 
     34 O2D       280.4370  182.1020  239.1170 O.3       1 NDP801      0.0000 
     35 C1D       278.6000  180.5880  239.0090 C.3       1 NDP801      0.0000 
     36 N1N       277.2390  180.9350  239.3550 N.pl3     1 NDP801      0.0000 
     37 C2N       276.5200  181.8180  238.5840 C.2       1 NDP801      0.0000 
     38 C3N       275.1660  181.7830  238.6490 C.2       1 NDP801      0.0000 
     39 C7N       274.4310  182.7150  237.8390 C.2       1 NDP801      0.0000 
     40 O7N       274.9300  183.6650  237.2320 O.2       1 NDP801      0.0000 
     41 N7N       273.0690  182.5060  237.7560 N.am      1 NDP801      0.0000 
     42 C4N       274.4560  180.8320  239.5090 C.3       1 NDP801      0.0000 
     43 C5N       275.3260  180.3000  240.5780 C.2       1 NDP801      0.0000 
     44 C6N       276.6470  180.3630  240.4790 C.2       1 NDP801      0.0000 
     45 P2B       275.6470  169.8070  241.3470 P.3       1 NDP801      0.0000 
     46 O1X       275.4970  170.7830  242.4700 O.co2     1 NDP801      0.0000 
     47 O2X       275.1690  168.3720  241.5850 O.co2     1 NDP801      0.0000 
     48 O3X       276.8110  169.9970  240.4180 O.co2     1 NDP801      0.0000 
@<TRIPOS>BOND
     1    1    2 ar   
     2    1    3 ar   
     3    1    4 1    
     4    1   23 1    
     5    4    5 1    
     6    5    6 1    
     7    6    7 1    
     8    6    8 1    
     9    7   12 1    
    10    8    9 1    
    11    8   10 1    
    12   10   11 1    
    13   10   12 1    
    14   11   45 1    
    15   12   13 1    
    16   13   14 1    
    17   13   22 1    
    18   14   15 2    
    19   15   16 1    
    20   16   17 ar   
    21   16   22 ar   
    22   17   18 1    
    23   17   19 ar   
    24   19   20 ar   
    25   20   21 ar   
    26   21   22 ar   
    27   23   24 1    
    28   24   25 ar   
    29   24   26 ar   
    30   24   27 1    
    31   27   28 1    
    32   28   29 1    
    33   29   30 1    
    34   29   31 1    
    35   30   35 1    
    36   31   32 1    
    37   31   33 1    
    38   33   34 1    
    39   33   35 1    
    40   35   36 1    
    41   36   37 1    
    42   36   44 1    
    43   37   38 2    
    44   38   39 1    
    45   38   42 1    
    46   39   40 2    
    47   39   41 am   
    48   42   43 1    
    49   43   44 2    
    50   45   46 ar   
    51   45   47 ar   
    52   45   48 ar   
@<TRIPOS>SUBSTRUCTURE
     1 NDP801      1 GROUP   
@<TRIPOS>SET
ATOM$ORANGE STATIC     ATOMS   COLORGROUP SYSTEM 
42 5 5 6 6 8 8 10 10 12 12 14 14 16 16 17 17 20 \
20 22 22 28 28 29 29 31 31 33 33 35 35 37 37 38 38 39 \
39 42 42 43 43 44 44 

