#    Name: 6hqb_3_ECH_CAVITY_N1_6
#    Modification time : Fri May 22 19:29:08 2020

@<TRIPOS>MOLECULE
6hqb_3_ECH_CAVITY_N1_6
   17     0     3     0     0
SMALL
NO_CHARGES


@<TRIPOS>ATOM
      1 N         -56.4700    0.3400    0.1700 N.am      1 ALA2        0.0000 
      2 CA        -58.4800   -2.8400   -2.7200 C.3       2 GLY6        0.0000 
      3 CA        -57.3000   -3.0600   -0.9600 C.3       2 GLY6        0.0000 
      4 CA        -57.4500   -2.0000   -2.0200 C.3       2 GLY6        0.0000 
      5 CA        -58.5300   -1.3400   -1.2200 C.3       2 GLY6        0.0000 
      6 CA        -56.4200   -1.1600   -1.3300 C.3       2 GLY6        0.0000 
      7 CA        -54.1600   -2.0400   -0.3700 C.3       2 GLY6        0.0000 
      8 CA        -55.2500   -1.3800    0.4300 C.3       2 GLY6        0.0000 
      9 CA        -55.3900   -0.3200   -0.6300 C.3       2 GLY6        0.0000 
     10 CA        -53.2800   -0.1400   -0.7400 C.3       2 GLY6        0.0000 
     11 CA        -54.3600    0.5200    0.0700 C.3       2 GLY6        0.0000 
     12 CA        -55.4400    1.1800    0.8700 C.3       2 GLY6        0.0000 
     13 CA        -51.0200   -1.0200    0.2100 C.3       2 GLY6        0.0000 
     14 DU        -57.4000   -3.5000   -3.5200 H         3 CUB7        0.0000 
     15 DU        -56.3700   -2.6600   -2.8200 H         3 CUB7        0.0000 
     16 DU        -55.3400   -1.8200   -2.1300 H         3 CUB7        0.0000 
     17 DU        -54.3100   -0.9800   -1.4300 H         3 CUB7        0.0000 
@<TRIPOS>BOND
@<TRIPOS>SUBSTRUCTURE
     1 ALA2        1 GROUP   
     2 GLY6        2 GROUP   
     3 CUB7       14 GROUP   
@<TRIPOS>SET

