#    Name: 6hqb_2_ECH_CAVITY_N1_4
#    Modification time : Fri May 22 19:28:54 2020

@<TRIPOS>MOLECULE
6hqb_2_ECH_CAVITY_N1_4
   55     0     4     0     0
SMALL
NO_CHARGES


@<TRIPOS>ATOM
      1 N         -65.8700    5.4800   -8.3000 N.am      1 ALA2        0.0000 
      2 CZ        -66.3400    6.7000  -15.5400 C.ar      2 PHE5        0.0000 
      3 CZ        -69.0100    4.4600   -8.8900 C.ar      2 PHE5        0.0000 
      4 CZ        -72.8300   10.6500  -10.7200 C.ar      2 PHE5        0.0000 
      5 CZ        -73.9100   11.3100   -9.9100 C.ar      2 PHE5        0.0000 
      6 CZ        -65.0300    5.4300  -12.7200 C.ar      2 PHE5        0.0000 
      7 CZ        -65.1700    6.4800  -13.7800 C.ar      2 PHE5        0.0000 
      8 CZ        -65.3100    7.5400  -14.8400 C.ar      2 PHE5        0.0000 
      9 CZ        -67.4800    8.8600  -13.2300 C.ar      2 PHE5        0.0000 
     10 CZ        -67.9800    5.3000   -8.2000 C.ar      2 PHE5        0.0000 
     11 CZ        -68.1300    6.3600   -9.2500 C.ar      2 PHE5        0.0000 
     12 CZ        -69.5000    9.1200  -10.5700 C.ar      2 PHE5        0.0000 
     13 CZ        -71.6600   10.4400   -8.9600 C.ar      2 PHE5        0.0000 
     14 CZ        -64.1400    7.3200  -13.0900 C.ar      2 PHE5        0.0000 
     15 CZ        -68.1800    7.8600   -7.7600 C.ar      2 PHE5        0.0000 
     16 CZ        -63.1100    8.1600  -12.3900 C.ar      2 PHE5        0.0000 
     17 CA        -73.8600    9.8100  -11.4100 C.3       3 GLY6        0.0000 
     18 CA        -66.8500    3.1400  -10.5000 C.3       3 GLY6        0.0000 
     19 CA        -64.8800    4.3800  -11.6700 C.3       3 GLY6        0.0000 
     20 CA        -65.8200    3.9800   -9.8000 C.3       3 GLY6        0.0000 
     21 CA        -65.9600    5.0400  -10.8600 C.3       3 GLY6        0.0000 
     22 CA        -66.4000    8.2000  -14.0400 C.3       3 GLY6        0.0000 
     23 CA        -66.9000    4.6400   -9.0000 C.3       3 GLY6        0.0000 
     24 CA        -63.8500    5.2200  -10.9700 C.3       3 GLY6        0.0000 
     25 CA        -64.0000    6.2700  -12.0300 C.3       3 GLY6        0.0000 
     26 CA        -64.9300    5.8800  -10.1700 C.3       3 GLY6        0.0000 
     27 CA        -65.2200    7.9800  -12.2800 C.3       3 GLY6        0.0000 
     28 CA        -65.3700    9.0400  -13.3400 C.3       3 GLY6        0.0000 
     29 CA        -66.0200    6.5400   -9.3600 C.3       3 GLY6        0.0000 
     30 CA        -66.3000    8.6400  -11.4800 C.3       3 GLY6        0.0000 
     31 CA        -66.4500    9.7000  -12.5400 C.3       3 GLY6        0.0000 
     32 CA        -67.1000    7.2000   -8.5600 C.3       3 GLY6        0.0000 
     33 CA        -62.9700    7.1100  -11.3300 C.3       3 GLY6        0.0000 
     34 CA        -63.9000    6.7200   -9.4700 C.3       3 GLY6        0.0000 
     35 CA        -64.0500    7.7700  -10.5300 C.3       3 GLY6        0.0000 
     36 CA        -64.1900    8.8200  -11.5900 C.3       3 GLY6        0.0000 
     37 CA        -64.9900    7.3800   -8.6700 C.3       3 GLY6        0.0000 
     38 CA        -65.1300    8.4300   -9.7300 C.3       3 GLY6        0.0000 
     39 CA        -65.2700    9.4800  -10.7800 C.3       3 GLY6        0.0000 
     40 CA        -66.0700    8.0400   -7.8600 C.3       3 GLY6        0.0000 
     41 CA        -66.2100    9.0900   -8.9200 C.3       3 GLY6        0.0000 
     42 CA        -66.3600   10.1400   -9.9800 C.3       3 GLY6        0.0000 
     43 CA        -67.1500    8.7000   -7.0600 C.3       3 GLY6        0.0000 
     44 CA        -63.0200    8.6100   -9.8300 C.3       3 GLY6        0.0000 
     45 CA        -65.1800    9.9300   -8.2300 C.3       3 GLY6        0.0000 
     46 DU        -65.9100    3.5400  -12.3600 H         4 CUB7        0.0000 
     47 DU        -66.2500    7.1400  -12.9800 H         4 CUB7        0.0000 
     48 DU        -67.0400    5.7000  -10.0600 H         4 CUB7        0.0000 
     49 DU        -67.3300    7.8000  -12.1800 H         4 CUB7        0.0000 
     50 DU        -68.4100    8.4600  -11.3700 H         4 CUB7        0.0000 
     51 DU        -65.0800    6.9300  -11.2200 H         4 CUB7        0.0000 
     52 DU        -66.1600    7.5900  -10.4200 H         4 CUB7        0.0000 
     53 DU        -67.2400    8.2500   -9.6200 H         4 CUB7        0.0000 
     54 DU        -67.3800    9.3000  -10.6800 H         4 CUB7        0.0000 
     55 DU        -68.3200    8.9100   -8.8100 H         4 CUB7        0.0000 
@<TRIPOS>BOND
@<TRIPOS>SUBSTRUCTURE
     1 ALA2        1 GROUP   
     2 PHE5        2 GROUP   
     3 GLY6       17 GROUP   
     4 CUB7       46 GROUP   
@<TRIPOS>SET

