#    Name: 6hqb_2_ECH
#    Modification time : Fri May 22 19:28:52 2020

@<TRIPOS>MOLECULE
6hqb_2_ECH
   41    42     1     0     0
SMALL
NO_CHARGES


@<TRIPOS>ATOM
      1 C1        -85.7590   12.0420   -7.3760 C.3       1 ECH4006     0.0000 
      2 C2        -86.2850   10.9400   -8.3050 C.3       1 ECH4006     0.0000 
      3 C3        -87.0140    9.8840   -7.4760 C.3       1 ECH4006     0.0000 
      4 C4        -86.0260    9.1950   -6.5340 C.3       1 ECH4006     0.0000 
      5 C5        -85.2780   10.1910   -5.7300 C.2       1 ECH4006     0.0000 
      6 C6        -85.0130   11.4030   -6.2400 C.2       1 ECH4006     0.0000 
      7 C7        -83.8330   12.1120   -5.7540 C.2       1 ECH4006     0.0000 
      8 C8        -82.6370   11.5340   -5.8700 C.2       1 ECH4006     0.0000 
      9 C9        -81.4280   12.1810   -5.4130 C.2       1 ECH4006     0.0000 
     10 C10       -80.2530   11.6510   -5.7640 C.2       1 ECH4006     0.0000 
     11 C11       -80.2750   10.4700   -6.5690 C.2       1 ECH4006     0.0000 
     12 C12       -79.1860    9.8590   -7.0160 C.2       1 ECH4006     0.0000 
     13 C13       -79.3830    8.6780   -7.8100 C.2       1 ECH4006     0.0000 
     14 C14       -78.3560    8.0550   -8.3790 C.2       1 ECH4006     0.0000 
     15 C15       -76.9870    8.4760   -8.2680 C.2       1 ECH4006     0.0000 
     16 C16       -76.1070    7.5910   -8.7150 C.2       1 ECH4006     0.0000 
     17 C17       -74.6830    7.7640   -8.7250 C.2       1 ECH4006     0.0000 
     18 C18       -73.9840    6.7500   -9.2440 C.2       1 ECH4006     0.0000 
     19 C19       -72.5440    6.8010   -9.3220 C.2       1 ECH4006     0.0000 
     20 C20       -71.9150    5.7160   -9.7690 C.2       1 ECH4006     0.0000 
     21 C21       -70.4940    5.6450   -9.9100 C.2       1 ECH4006     0.0000 
     22 C22       -69.9550    4.5470  -10.4460 C.2       1 ECH4006     0.0000 
     23 C23       -68.5250    4.4960  -10.5990 C.2       1 ECH4006     0.0000 
     24 C24       -67.9040    5.5840  -11.0510 C.2       1 ECH4006     0.0000 
     25 C25       -66.4590    5.5770  -11.2220 C.2       1 ECH4006     0.0000 
     26 C26       -65.7190    6.1250  -10.2660 C.2       1 ECH4006     0.0000 
     27 C27       -64.4380    6.7600  -10.5790 C.2       1 ECH4006     0.0000 
     28 O27       -63.9100    7.5700   -9.8430 O.2       1 ECH4006     0.0000 
     29 C28       -63.8330    6.3400  -11.8840 C.3       1 ECH4006     0.0000 
     30 C29       -64.8730    6.2710  -12.9830 C.3       1 ECH4006     0.0000 
     31 C30       -65.9820    5.2720  -12.6230 C.3       1 ECH4006     0.0000 
     32 C31       -86.9290   12.8350   -6.7930 C.3       1 ECH4006     0.0000 
     33 C32       -84.8350   12.9970   -8.1380 C.3       1 ECH4006     0.0000 
     34 C33       -85.2840   10.0040   -4.2500 C.3       1 ECH4006     0.0000 
     35 C34       -81.5750   13.3990   -4.5780 C.3       1 ECH4006     0.0000 
     36 C35       -80.7820    8.1820   -7.9610 C.3       1 ECH4006     0.0000 
     37 C36       -74.6470    5.5200   -9.7830 C.3       1 ECH4006     0.0000 
     38 C37       -70.7290    3.3640  -10.9120 C.3       1 ECH4006     0.0000 
     39 C38       -65.9830    5.9210   -8.8150 C.3       1 ECH4006     0.0000 
     40 C39       -65.4540    3.8440  -12.6200 C.3       1 ECH4006     0.0000 
     41 C40       -67.1210    5.3690  -13.6360 C.3       1 ECH4006     0.0000 
@<TRIPOS>BOND
     1    1    2 1    
     2    1    6 1    
     3    1   32 1    
     4    1   33 1    
     5    2    3 1    
     6    3    4 1    
     7    4    5 1    
     8    5    6 2    
     9    5   34 1    
    10    6    7 1    
    11    7    8 2    
    12    8    9 1    
    13    9   10 2    
    14    9   35 1    
    15   10   11 1    
    16   11   12 2    
    17   12   13 1    
    18   13   14 2    
    19   13   36 1    
    20   14   15 1    
    21   15   16 2    
    22   16   17 1    
    23   17   18 2    
    24   18   19 1    
    25   18   37 1    
    26   19   20 2    
    27   20   21 1    
    28   21   22 2    
    29   22   23 1    
    30   22   38 1    
    31   23   24 2    
    32   24   25 1    
    33   25   26 2    
    34   25   31 1    
    35   26   27 1    
    36   26   39 1    
    37   27   28 2    
    38   27   29 1    
    39   29   30 1    
    40   30   31 1    
    41   31   40 1    
    42   31   41 1    
@<TRIPOS>SUBSTRUCTURE
     1 ECH4006     1 GROUP   
@<TRIPOS>SET

