#    Name: 6hqb_3_ECH
#    Modification time : Fri May 22 19:29:06 2020

@<TRIPOS>MOLECULE
6hqb_3_ECH
   41    42     1     0     0
SMALL
NO_CHARGES


@<TRIPOS>ATOM
      1 C1        -58.2340   -9.5510    7.4340 C.3       1 ECH4021     0.0000 
      2 C2        -59.5730  -10.1040    7.9270 C.3       1 ECH4021     0.0000 
      3 C3        -60.2670   -9.0440    8.7690 C.3       1 ECH4021     0.0000 
      4 C4        -59.4920   -8.8440   10.0610 C.3       1 ECH4021     0.0000 
      5 C5        -58.0420   -8.6540    9.7970 C.2       1 ECH4021     0.0000 
      6 C6        -57.4960   -8.9460    8.6010 C.2       1 ECH4021     0.0000 
      7 C7        -56.0340   -8.9650    8.5310 C.2       1 ECH4021     0.0000 
      8 C8        -55.3750   -8.0340    7.8350 C.2       1 ECH4021     0.0000 
      9 C9        -53.9300   -8.0440    7.7800 C.2       1 ECH4021     0.0000 
     10 C10       -53.2840   -7.5250    6.7280 C.2       1 ECH4021     0.0000 
     11 C11       -53.9900   -6.9660    5.6110 C.2       1 ECH4021     0.0000 
     12 C12       -53.6170   -5.8220    5.0410 C.2       1 ECH4021     0.0000 
     13 C13       -54.3700   -5.3330    3.9120 C.2       1 ECH4021     0.0000 
     14 C14       -54.8320   -6.2440    3.0640 C.2       1 ECH4021     0.0000 
     15 C15       -55.6020   -5.9230    1.8970 C.2       1 ECH4021     0.0000 
     16 C16       -55.7510   -6.9210    1.0430 C.2       1 ECH4021     0.0000 
     17 C17       -56.4930   -6.8650   -0.1830 C.2       1 ECH4021     0.0000 
     18 C18       -56.5810   -8.0320   -0.8220 C.2       1 ECH4021     0.0000 
     19 C19       -57.3010   -8.1790   -2.0650 C.2       1 ECH4021     0.0000 
     20 C20       -57.7110   -9.4200   -2.2980 C.2       1 ECH4021     0.0000 
     21 C21       -58.4360   -9.8910   -3.4340 C.2       1 ECH4021     0.0000 
     22 C22       -58.7750  -11.1820   -3.3720 C.2       1 ECH4021     0.0000 
     23 C23       -59.4980  -11.8110   -4.4510 C.2       1 ECH4021     0.0000 
     24 C24       -59.6540  -13.1330   -4.3850 C.2       1 ECH4021     0.0000 
     25 C25       -60.3570  -13.8570   -5.4300 C.2       1 ECH4021     0.0000 
     26 C26       -61.6490  -14.0790   -5.2530 C.2       1 ECH4021     0.0000 
     27 C27       -62.1600  -15.4480   -5.2090 C.2       1 ECH4021     0.0000 
     28 O27       -63.1950  -15.7420   -4.6490 O.2       1 ECH4021     0.0000 
     29 C28       -61.3080  -16.4720   -5.9060 C.3       1 ECH4021     0.0000 
     30 C29       -60.2980  -15.8660   -6.8820 C.3       1 ECH4021     0.0000 
     31 C30       -59.4510  -14.7470   -6.2390 C.3       1 ECH4021     0.0000 
     32 C31       -58.4850   -8.4610    6.3910 C.3       1 ECH4021     0.0000 
     33 C32       -57.3880  -10.6660    6.8090 C.3       1 ECH4021     0.0000 
     34 C33       -57.1640   -8.4010   10.9750 C.3       1 ECH4021     0.0000 
     35 C34       -53.2260   -8.6330    8.9510 C.3       1 ECH4021     0.0000 
     36 C35       -54.5810   -3.8670    3.7640 C.3       1 ECH4021     0.0000 
     37 C36       -55.9370   -9.2710   -0.2810 C.3       1 ECH4021     0.0000 
     38 C37       -58.4320  -12.0610   -2.2150 C.3       1 ECH4021     0.0000 
     39 C38       -62.6810  -13.0160   -5.3820 C.3       1 ECH4021     0.0000 
     40 C39       -58.7810  -13.8810   -7.3050 C.3       1 ECH4021     0.0000 
     41 C40       -58.3570  -15.3480   -5.3570 C.3       1 ECH4021     0.0000 
@<TRIPOS>BOND
     1    1    2 1    
     2    1    6 1    
     3    1   32 1    
     4    1   33 1    
     5    2    3 1    
     6    3    4 1    
     7    4    5 1    
     8    5    6 2    
     9    5   34 1    
    10    6    7 1    
    11    7    8 2    
    12    8    9 1    
    13    9   10 2    
    14    9   35 1    
    15   10   11 1    
    16   11   12 2    
    17   12   13 1    
    18   13   14 2    
    19   13   36 1    
    20   14   15 1    
    21   15   16 2    
    22   16   17 1    
    23   17   18 2    
    24   18   19 1    
    25   18   37 1    
    26   19   20 2    
    27   20   21 1    
    28   21   22 2    
    29   22   23 1    
    30   22   38 1    
    31   23   24 2    
    32   24   25 1    
    33   25   26 2    
    34   25   31 1    
    35   26   27 1    
    36   26   39 1    
    37   27   28 2    
    38   27   29 1    
    39   29   30 1    
    40   30   31 1    
    41   31   40 1    
    42   31   41 1    
@<TRIPOS>SUBSTRUCTURE
     1 ECH4021     1 GROUP   
@<TRIPOS>SET

