#    Name: 6hqb_3_ECH_CAVITY_N1_8
#    Modification time : Fri May 22 19:29:08 2020

@<TRIPOS>MOLECULE
6hqb_3_ECH_CAVITY_N1_8
   47     0     4     0     0
SMALL
NO_CHARGES


@<TRIPOS>ATOM
      1 N         -56.4600   -3.1100   -5.3800 N.am      1 ALA2        0.0000 
      2 N         -57.5400   -2.4500   -4.5800 N.am      1 ALA2        0.0000 
      3 N         -56.4700    0.3400    0.1700 N.am      1 ALA2        0.0000 
      4 CZ        -53.4200    0.9100   -1.8000 C.ar      2 PHE5        0.0000 
      5 CZ        -54.5000    1.5700   -0.9900 C.ar      2 PHE5        0.0000 
      6 CZ        -52.3900    1.7500   -1.1000 C.ar      2 PHE5        0.0000 
      7 CZ        -53.4800    2.4100   -0.3000 C.ar      2 PHE5        0.0000 
      8 CA        -58.4800   -2.8400   -2.7200 C.3       3 GLY6        0.0000 
      9 CA        -58.6200   -1.7900   -3.7800 C.3       3 GLY6        0.0000 
     10 CA        -55.5700   -1.2200   -5.7400 C.3       3 GLY6        0.0000 
     11 CA        -56.6600   -0.5600   -4.9400 C.3       3 GLY6        0.0000 
     12 CA        -57.3000   -3.0600   -0.9600 C.3       3 GLY6        0.0000 
     13 CA        -57.4500   -2.0000   -2.0200 C.3       3 GLY6        0.0000 
     14 CA        -57.5900   -0.9500   -3.0800 C.3       3 GLY6        0.0000 
     15 CA        -58.5300   -1.3400   -1.2200 C.3       3 GLY6        0.0000 
     16 CA        -56.4200   -1.1600   -1.3300 C.3       3 GLY6        0.0000 
     17 CA        -57.5000   -0.5000   -0.5200 C.3       3 GLY6        0.0000 
     18 CA        -57.6400    0.5500   -1.5800 C.3       3 GLY6        0.0000 
     19 CA        -54.1600   -2.0400   -0.3700 C.3       3 GLY6        0.0000 
     20 CA        -55.2500   -1.3800    0.4300 C.3       3 GLY6        0.0000 
     21 CA        -55.3900   -0.3200   -0.6300 C.3       3 GLY6        0.0000 
     22 CA        -56.6200    1.3900   -0.8800 C.3       3 GLY6        0.0000 
     23 CA        -57.7000    2.0500   -0.0800 C.3       3 GLY6        0.0000 
     24 CA        -53.2800   -0.1400   -0.7400 C.3       3 GLY6        0.0000 
     25 CA        -54.3600    0.5200    0.0700 C.3       3 GLY6        0.0000 
     26 CA        -55.4400    1.1800    0.8700 C.3       3 GLY6        0.0000 
     27 CA        -50.0900   -0.6200   -1.6500 C.3       3 GLY6        0.0000 
     28 CA        -51.0200   -1.0200    0.2100 C.3       3 GLY6        0.0000 
     29 CA        -51.1700    0.0400   -0.8400 C.3       3 GLY6        0.0000 
     30 CA        -52.2500    0.7000   -0.0400 C.3       3 GLY6        0.0000 
     31 CA        -53.3300    1.3600    0.7600 C.3       3 GLY6        0.0000 
     32 CA        -50.1400    0.8800   -0.1500 C.3       3 GLY6        0.0000 
     33 CA        -51.2200    1.5400    0.6500 C.3       3 GLY6        0.0000 
     34 DU        -57.4000   -3.5000   -3.5200 H         4 CUB7        0.0000 
     35 DU        -56.3700   -2.6600   -2.8200 H         4 CUB7        0.0000 
     36 DU        -56.5100   -1.6100   -3.8800 H         4 CUB7        0.0000 
     37 DU        -54.4000   -1.4300   -3.9900 H         4 CUB7        0.0000 
     38 DU        -55.3400   -1.8200   -2.1300 H         4 CUB7        0.0000 
     39 DU        -55.4800   -0.7700   -3.1900 H         4 CUB7        0.0000 
     40 DU        -56.5600   -0.1100   -2.3800 H         4 CUB7        0.0000 
     41 DU        -53.2300   -1.6400   -2.2400 H         4 CUB7        0.0000 
     42 DU        -53.3700   -0.5900   -3.2900 H         4 CUB7        0.0000 
     43 DU        -54.3100   -0.9800   -1.4300 H         4 CUB7        0.0000 
     44 DU        -54.4500    0.0700   -2.4900 H         4 CUB7        0.0000 
     45 DU        -55.5300    0.7300   -1.6900 H         4 CUB7        0.0000 
     46 DU        -52.2000   -0.8000   -1.5400 H         4 CUB7        0.0000 
     47 DU        -52.3400    0.2500   -2.6000 H         4 CUB7        0.0000 
@<TRIPOS>BOND
@<TRIPOS>SUBSTRUCTURE
     1 ALA2        1 GROUP   
     2 PHE5        4 GROUP   
     3 GLY6        8 GROUP   
     4 CUB7       34 GROUP   
@<TRIPOS>SET

