#    Name: 6hqb_3_ECH_CAVITY_N1_4
#    Modification time : Fri May 22 19:29:08 2020

@<TRIPOS>MOLECULE
6hqb_3_ECH_CAVITY_N1_4
    1     0     1     0     0
SMALL
NO_CHARGES


@<TRIPOS>ATOM
      1 CA        -57.3000   -3.0600   -0.9600 C.3       1 GLY6        0.0000 
@<TRIPOS>BOND
@<TRIPOS>SUBSTRUCTURE
     1 GLY6        1 GROUP   
@<TRIPOS>SET

