#    Name: 6njl_2_ZK1_CAVITY_N1_4
#    Modification time : Fri May 22 19:37:47 2020

@<TRIPOS>MOLECULE
6njl_2_ZK1_CAVITY_N1_4
   91     0     6     0     0
SMALL
NO_CHARGES


@<TRIPOS>ATOM
      1 OG        306.1800  258.1500  213.0600 O.3       1 SER1        0.0000 
      2 OG        304.3100  262.7500  213.3700 O.3       1 SER1        0.0000 
      3 OG        305.3500  261.6900  213.6000 O.3       1 SER1        0.0000 
      4 OG        304.2300  258.7200  214.6800 O.3       1 SER1        0.0000 
      5 OG        306.3400  258.6100  214.4800 O.3       1 SER1        0.0000 
      6 OG        305.2700  257.6600  214.9100 O.3       1 SER1        0.0000 
      7 OG        306.3000  256.5900  215.1300 O.3       1 SER1        0.0000 
      8 OG        304.4800  263.2100  214.7900 O.3       1 SER1        0.0000 
      9 OG        305.5100  262.1500  215.0100 O.3       1 SER1        0.0000 
     10 OG        305.4300  258.1100  216.3300 O.3       1 SER1        0.0000 
     11 OG        304.3500  257.1600  216.7600 O.3       1 SER1        0.0000 
     12 OG        299.3500  262.9300  217.0500 O.3       1 SER1        0.0000 
     13 OG        305.7500  266.6400  215.1200 O.3       1 SER1        0.0000 
     14 OG        304.6800  265.6900  215.5500 O.3       1 SER1        0.0000 
     15 OG        305.7100  264.6200  215.7800 O.3       1 SER1        0.0000 
     16 OG        304.6400  263.6700  216.2100 O.3       1 SER1        0.0000 
     17 OG        301.4100  260.8100  217.5000 O.3       1 SER1        0.0000 
     18 OG        305.6700  262.6100  216.4300 O.3       1 SER1        0.0000 
     19 OG        302.4500  259.7400  217.7300 O.3       1 SER1        0.0000 
     20 OG        298.4700  264.4600  218.2400 O.3       1 SER1        0.0000 
     21 OG        299.5100  263.3900  218.4700 O.3       1 SER1        0.0000 
     22 OG        301.6200  263.2800  218.2600 O.3       1 SER1        0.0000 
     23 OG        300.5400  262.3300  218.6900 O.3       1 SER1        0.0000 
     24 OG        302.6500  262.2200  218.4900 O.3       1 SER1        0.0000 
     25 OG        303.6800  261.1600  218.7100 O.3       1 SER1        0.0000 
     26 OG        300.7000  262.7900  220.1100 O.3       1 SER1        0.0000 
     27 OG        304.9600  264.5900  219.0500 O.3       1 SER1        0.0000 
     28 OG        303.8900  263.6300  219.4800 O.3       1 SER1        0.0000 
     29 OG        302.8100  262.6800  219.9100 O.3       1 SER1        0.0000 
     30 OG        302.7700  260.6600  220.5600 O.3       1 SER1        0.0000 
     31 OG        303.0100  265.1500  220.6700 O.3       1 SER1        0.0000 
     32 OG        302.9700  263.1400  221.3300 O.3       1 SER1        0.0000 
     33 O         302.1700  260.8400  214.2300 O.2       2 ALA2        0.0000 
     34 O         303.2000  259.7800  214.4600 O.2       2 ALA2        0.0000 
     35 NZ        304.8800  268.1600  216.3100 N.4       3 LYS4        0.0000 
     36 NZ        303.8100  267.2100  216.7500 N.4       3 LYS4        0.0000 
     37 NZ        304.8400  266.1400  216.9700 N.4       3 LYS4        0.0000 
     38 NZ        303.7700  265.1900  217.4000 N.4       3 LYS4        0.0000 
     39 NZ        301.8200  265.7600  219.0300 N.4       3 LYS4        0.0000 
     40 NZ        303.9300  265.6500  218.8200 N.4       3 LYS4        0.0000 
     41 NZ        302.8500  264.7000  219.2500 N.4       3 LYS4        0.0000 
     42 NZ        306.0400  265.5400  218.6200 N.4       3 LYS4        0.0000 
     43 CZ        304.7600  262.1100  218.2800 C.ar      4 PHE5        0.0000 
     44 CZ        300.7400  264.8000  219.4600 C.ar      4 PHE5        0.0000 
     45 CZ        299.6700  263.8500  219.8900 C.ar      4 PHE5        0.0000 
     46 CZ        304.9200  262.5700  219.7000 C.ar      4 PHE5        0.0000 
     47 CZ        303.8500  261.6200  220.1300 C.ar      4 PHE5        0.0000 
     48 CZ        300.9100  265.2600  220.8800 C.ar      4 PHE5        0.0000 
     49 CA        304.1100  260.2800  212.6100 C.3       5 GLY6        0.0000 
     50 CA        302.2100  262.8600  213.5700 C.3       5 GLY6        0.0000 
     51 CA        303.2400  261.8000  213.8000 C.3       5 GLY6        0.0000 
     52 CA        304.2700  260.7400  214.0300 C.3       5 GLY6        0.0000 
     53 CA        307.3800  257.5500  214.7000 C.3       5 GLY6        0.0000 
     54 CA        303.4400  264.2700  214.5600 C.3       5 GLY6        0.0000 
     55 CA        302.3700  263.3200  214.9900 C.3       5 GLY6        0.0000 
     56 CA        301.2900  262.3700  215.4200 C.3       5 GLY6        0.0000 
     57 CA        302.3300  261.3000  215.6500 C.3       5 GLY6        0.0000 
     58 CA        307.6200  262.0400  214.8100 C.3       5 GLY6        0.0000 
     59 CA        306.5400  261.0800  215.2400 C.3       5 GLY6        0.0000 
     60 CA        307.5800  260.0200  215.4700 C.3       5 GLY6        0.0000 
     61 CA        308.6100  258.9600  215.6900 C.3       5 GLY6        0.0000 
     62 CA        307.5400  258.0000  216.1200 C.3       5 GLY6        0.0000 
     63 CA        304.7200  267.7000  214.9000 C.3       5 GLY6        0.0000 
     64 CA        300.4200  263.8900  216.6200 C.3       5 GLY6        0.0000 
     65 CA        303.6000  264.7300  215.9800 C.3       5 GLY6        0.0000 
     66 CA        302.5300  263.7800  216.4100 C.3       5 GLY6        0.0000 
     67 CA        301.4500  262.8200  216.8400 C.3       5 GLY6        0.0000 
     68 CA        300.3800  261.8700  217.2700 C.3       5 GLY6        0.0000 
     69 CA        299.5500  265.4100  217.8100 C.3       5 GLY6        0.0000 
     70 CA        302.7300  266.2500  217.1800 C.3       5 GLY6        0.0000 
     71 CA        301.6600  265.3000  217.6100 C.3       5 GLY6        0.0000 
     72 CA        300.5800  264.3500  218.0400 C.3       5 GLY6        0.0000 
     73 CA        301.9800  266.2200  220.4400 C.3       5 GLY6        0.0000 
     74 CA        301.9400  264.2000  221.1000 C.3       5 GLY6        0.0000 
     75 CA        302.1000  264.6600  222.5200 C.3       5 GLY6        0.0000 
     76 DU        305.3100  259.6700  214.2500 H         6 CUB7        0.0000 
     77 DU        303.4000  262.2600  215.2200 H         6 CUB7        0.0000 
     78 DU        304.4400  261.1900  215.4500 H         6 CUB7        0.0000 
     79 DU        303.3600  260.2400  215.8800 H         6 CUB7        0.0000 
     80 DU        305.4700  260.1300  215.6700 H         6 CUB7        0.0000 
     81 DU        304.3900  259.1800  216.1000 H         6 CUB7        0.0000 
     82 DU        306.5000  259.0700  215.9000 H         6 CUB7        0.0000 
     83 DU        303.5600  262.7200  216.6400 H         6 CUB7        0.0000 
     84 DU        302.4900  261.7600  217.0700 H         6 CUB7        0.0000 
     85 DU        303.5200  260.7000  217.2900 H         6 CUB7        0.0000 
     86 DU        304.5600  259.6400  217.5200 H         6 CUB7        0.0000 
     87 DU        305.5900  258.5700  217.7500 H         6 CUB7        0.0000 
     88 DU        302.6900  264.2400  217.8300 H         6 CUB7        0.0000 
     89 DU        304.8000  264.1300  217.6300 H         6 CUB7        0.0000 
     90 DU        303.7300  263.1700  218.0600 H         6 CUB7        0.0000 
     91 DU        301.7800  263.7400  219.6800 H         6 CUB7        0.0000 
@<TRIPOS>BOND
@<TRIPOS>SUBSTRUCTURE
     1 SER1        1 GROUP   
     2 ALA2       33 GROUP   
     3 LYS4       35 GROUP   
     4 PHE5       43 GROUP   
     5 GLY6       49 GROUP   
     6 CUB7       76 GROUP   
@<TRIPOS>SET

