#    Name: 6njl_1_ZK1
#    Modification time : Fri May 22 19:37:40 2020

@<TRIPOS>MOLECULE
6njl_1_ZK1
   27    29     1     0     0
SMALL
NO_CHARGES


@<TRIPOS>ATOM
      1 OAA       274.1730  303.1270  226.6890 O.2       1 ZK1901      0.0000 
      2 OAB       276.7090  302.1170  226.1480 O.2       1 ZK1901      0.0000 
      3 OAC       278.6200  299.9610  222.4090 O.co2     1 ZK1901      0.0000 
      4 OAD       276.3200  299.9920  223.2920 O.co2     1 ZK1901      0.0000 
      5 OAE       278.2360  299.8900  224.8440 O.co2     1 ZK1901      0.0000 
      6 FAF       272.9460  304.4650  218.9290 F         1 ZK1901      0.0000 
      7 FAG       272.2470  305.8410  220.5200 F         1 ZK1901      0.0000 
      8 FAH       274.0070  306.4010  219.2980 F         1 ZK1901      0.0000 
      9 CAI       276.2630  303.5500  221.6240 C.ar      1 ZK1901      0.0000 
     10 CAJ       273.7410  304.5450  222.2010 C.ar      1 ZK1901      0.0000 
     11 CAK       277.0710  302.9220  217.4330 C.3       1 ZK1901      0.0000 
     12 CAL       278.1720  304.9100  218.0810 C.3       1 ZK1901      0.0000 
     13 CAM       275.8580  303.2150  218.3160 C.3       1 ZK1901      0.0000 
     14 CAN       277.0280  305.3360  219.0020 C.3       1 ZK1901      0.0000 
     15 CAO       277.8000  302.3060  223.6190 C.3       1 ZK1901      0.0000 
     16 NAP       273.9960  303.8170  224.4500 N.am      1 ZK1901      0.0000 
     17 OAQ       277.7250  304.1010  217.0160 O.3       1 ZK1901      0.0000 
     18 CAR       275.5190  304.1610  220.6220 C.ar      1 ZK1901      0.0000 
     19 CAS       274.2440  304.6650  220.9140 C.ar      1 ZK1901      0.0000 
     20 CAT       274.7050  303.2350  225.4010 C.2       1 ZK1901      0.0000 
     21 CAU       275.9710  302.7300  225.1260 C.2       1 ZK1901      0.0000 
     22 CAV       274.4960  303.9210  223.2100 C.ar      1 ZK1901      0.0000 
     23 CAW       275.7460  303.4240  222.9300 C.ar      1 ZK1901      0.0000 
     24 NAX       276.1260  304.2440  219.3020 N.3       1 ZK1901      0.0000 
     25 NAY       276.4740  302.8330  223.9020 N.am      1 ZK1901      0.0000 
     26 CAZ       273.3510  305.3560  219.8810 C.3       1 ZK1901      0.0000 
     27 PBA       277.7390  300.4480  223.5330 P.3       1 ZK1901      0.0000 
@<TRIPOS>BOND
     1    1   20 2    
     2    2   21 2    
     3    3   27 ar   
     4    4   27 ar   
     5    5   27 ar   
     6    6   26 1    
     7    7   26 1    
     8    8   26 1    
     9    9   18 ar   
    10    9   23 ar   
    11   10   19 ar   
    12   10   22 ar   
    13   11   13 1    
    14   11   17 1    
    15   12   14 1    
    16   12   17 1    
    17   13   24 1    
    18   14   24 1    
    19   15   25 1    
    20   15   27 1    
    21   16   20 am   
    22   16   22 1    
    23   18   19 ar   
    24   18   24 1    
    25   19   26 1    
    26   20   21 1    
    27   21   25 am   
    28   22   23 ar   
    29   23   25 1    
@<TRIPOS>SUBSTRUCTURE
     1 ZK1901      1 GROUP   
@<TRIPOS>SET

