#    Name: 6njl_2_ZK1
#    Modification time : Fri May 22 19:37:46 2020

@<TRIPOS>MOLECULE
6njl_2_ZK1
   27    29     1     0     0
SMALL
NO_CHARGES


@<TRIPOS>ATOM
      1 OAA       305.1260  257.6310  223.2870 O.2       1 ZK1901      0.0000 
      2 OAB       307.0530  257.2940  221.3000 O.2       1 ZK1901      0.0000 
      3 OAC       307.1140  257.5190  216.6270 O.co2     1 ZK1901      0.0000 
      4 OAD       305.1530  257.1150  218.0670 O.co2     1 ZK1901      0.0000 
      5 OAE       307.3510  256.1570  218.6660 O.co2     1 ZK1901      0.0000 
      6 FAF       301.0700  262.6610  218.6650 F         1 ZK1901      0.0000 
      7 FAG       301.3490  263.0150  220.8340 F         1 ZK1901      0.0000 
      8 FAH       302.4790  264.2430  219.3850 F         1 ZK1901      0.0000 
      9 CAI       305.0440  260.8240  218.8080 C.ar      1 ZK1901      0.0000 
     10 CAJ       303.1430  261.1360  220.7990 C.ar      1 ZK1901      0.0000 
     11 CAK       303.3930  263.1280  215.1060 C.3       1 ZK1901      0.0000 
     12 CAL       304.9540  264.5450  216.1150 C.3       1 ZK1901      0.0000 
     13 CAM       303.2690  262.2200  216.3310 C.3       1 ZK1901      0.0000 
     14 CAN       304.9750  263.7620  217.4300 C.3       1 ZK1901      0.0000 
     15 CAO       307.0510  258.8650  219.0420 C.3       1 ZK1901      0.0000 
     16 NAP       304.1690  259.3700  222.0220 N.am      1 ZK1901      0.0000 
     17 OAQ       303.7140  264.4520  215.4550 O.3       1 ZK1901      0.0000 
     18 CAR       304.0600  261.7960  218.6710 C.ar      1 ZK1901      0.0000 
     19 CAS       303.1010  261.9560  219.6810 C.ar      1 ZK1901      0.0000 
     20 CAT       305.1050  258.4440  222.1480 C.2       1 ZK1901      0.0000 
     21 CAU       306.0640  258.2770  221.1540 C.2       1 ZK1901      0.0000 
     22 CAV       304.1390  260.1500  220.9290 C.ar      1 ZK1901      0.0000 
     23 CAW       305.0840  259.9910  219.9460 C.ar      1 ZK1901      0.0000 
     24 NAX       304.0910  262.6110  217.4640 N.3       1 ZK1901      0.0000 
     25 NAY       306.0430  259.0490  220.0750 N.am      1 ZK1901      0.0000 
     26 CAZ       301.9790  262.9970  219.6250 C.3       1 ZK1901      0.0000 
     27 PBA       306.6470  257.3420  218.0520 P.3       1 ZK1901      0.0000 
@<TRIPOS>BOND
     1    1   20 2    
     2    2   21 2    
     3    3   27 ar   
     4    4   27 ar   
     5    5   27 ar   
     6    6   26 1    
     7    7   26 1    
     8    8   26 1    
     9    9   18 ar   
    10    9   23 ar   
    11   10   19 ar   
    12   10   22 ar   
    13   11   13 1    
    14   11   17 1    
    15   12   14 1    
    16   12   17 1    
    17   13   24 1    
    18   14   24 1    
    19   15   25 1    
    20   15   27 1    
    21   16   20 am   
    22   16   22 1    
    23   18   19 ar   
    24   18   24 1    
    25   19   26 1    
    26   20   21 1    
    27   21   25 am   
    28   22   23 ar   
    29   23   25 1    
@<TRIPOS>SUBSTRUCTURE
     1 ZK1901      1 GROUP   
@<TRIPOS>SET

