#    Name: 6njl_4_ZK1
#    Modification time : Fri May 22 19:37:59 2020

@<TRIPOS>MOLECULE
6njl_4_ZK1
   27    29     1     0     0
SMALL
NO_CHARGES


@<TRIPOS>ATOM
      1 OAA       245.3070  292.6780  223.5210 O.2       1 ZK1901      0.0000 
      2 OAB       243.3390  292.9870  221.5700 O.2       1 ZK1901      0.0000 
      3 OAC       243.1890  292.7360  216.9000 O.co2     1 ZK1901      0.0000 
      4 OAD       245.1840  293.1500  218.2890 O.co2     1 ZK1901      0.0000 
      5 OAE       243.0020  294.1130  218.9340 O.co2     1 ZK1901      0.0000 
      6 FAF       249.3160  287.6640  218.8380 F         1 ZK1901      0.0000 
      7 FAG       249.0890  287.3200  221.0150 F         1 ZK1901      0.0000 
      8 FAH       247.9400  286.0740  219.5970 F         1 ZK1901      0.0000 
      9 CAI       245.3310  289.4650  219.0540 C.ar      1 ZK1901      0.0000 
     10 CAJ       247.2740  289.1800  221.0100 C.ar      1 ZK1901      0.0000 
     11 CAK       246.9590  287.1440  215.3440 C.3       1 ZK1901      0.0000 
     12 CAL       245.4420  285.7070  216.3930 C.3       1 ZK1901      0.0000 
     13 CAM       247.0670  288.0790  216.5480 C.3       1 ZK1901      0.0000 
     14 CAN       245.4010  286.5220  217.6880 C.3       1 ZK1901      0.0000 
     15 CAO       243.3100  291.4070  219.3210 C.3       1 ZK1901      0.0000 
     16 NAP       246.2560  290.9430  222.2450 N.am      1 ZK1901      0.0000 
     17 OAQ       246.6750  285.8190  215.7250 O.3       1 ZK1901      0.0000 
     18 CAR       246.3210  288.5020  218.9030 C.ar      1 ZK1901      0.0000 
     19 CAS       247.3020  288.3560  219.8940 C.ar      1 ZK1901      0.0000 
     20 CAT       245.3140  291.8610  222.3860 C.2       1 ZK1901      0.0000 
     21 CAU       244.3330  292.0140  221.4100 C.2       1 ZK1901      0.0000 
     22 CAV       246.2720  290.1570  221.1550 C.ar      1 ZK1901      0.0000 
     23 CAW       245.3060  290.3030  220.1900 C.ar      1 ZK1901      0.0000 
     24 NAX       246.2740  287.6820  217.7000 N.3       1 ZK1901      0.0000 
     25 NAY       244.3410  291.2370  220.3340 N.am      1 ZK1901      0.0000 
     26 CAZ       248.4320  287.3250  219.8200 C.3       1 ZK1901      0.0000 
     27 PBA       243.6910  292.9230  218.3120 P.3       1 ZK1901      0.0000 
@<TRIPOS>BOND
     1    1   20 2    
     2    2   21 2    
     3    3   27 ar   
     4    4   27 ar   
     5    5   27 ar   
     6    6   26 1    
     7    7   26 1    
     8    8   26 1    
     9    9   18 ar   
    10    9   23 ar   
    11   10   19 ar   
    12   10   22 ar   
    13   11   13 1    
    14   11   17 1    
    15   12   14 1    
    16   12   17 1    
    17   13   24 1    
    18   14   24 1    
    19   15   25 1    
    20   15   27 1    
    21   16   20 am   
    22   16   22 1    
    23   18   19 ar   
    24   18   24 1    
    25   19   26 1    
    26   20   21 1    
    27   21   25 am   
    28   22   23 ar   
    29   23   25 1    
@<TRIPOS>SUBSTRUCTURE
     1 ZK1901      1 GROUP   
@<TRIPOS>SET

