#    Name: 6njl_3_ZK1
#    Modification time : Fri May 22 19:37:54 2020

@<TRIPOS>MOLECULE
6njl_3_ZK1
   27    29     1     0     0
SMALL
NO_CHARGES


@<TRIPOS>ATOM
      1 OAA       276.1300  247.3240  226.8960 O.2       1 ZK1901      0.0000 
      2 OAB       273.5920  248.3260  226.3440 O.2       1 ZK1901      0.0000 
      3 OAC       271.6960  250.4920  222.5970 O.co2     1 ZK1901      0.0000 
      4 OAD       274.0030  250.4560  223.4630 O.co2     1 ZK1901      0.0000 
      5 OAE       272.0970  250.5710  225.0290 O.co2     1 ZK1901      0.0000 
      6 FAF       277.3830  246.0330  219.1120 F         1 ZK1901      0.0000 
      7 FAG       278.1130  244.6820  220.7090 F         1 ZK1901      0.0000 
      8 FAH       276.3570  244.0820  219.5020 F         1 ZK1901      0.0000 
      9 CAI       274.0710  246.9260  221.8150 C.ar      1 ZK1901      0.0000 
     10 CAJ       276.5950  245.9370  222.3970 C.ar      1 ZK1901      0.0000 
     11 CAK       273.2740  247.5700  217.6180 C.3       1 ZK1901      0.0000 
     12 CAL       272.2040  245.5570  218.2330 C.3       1 ZK1901      0.0000 
     13 CAM       274.4780  247.2980  218.5210 C.3       1 ZK1901      0.0000 
     14 CAN       273.3410  245.1450  219.1700 C.3       1 ZK1901      0.0000 
     15 CAO       272.5180  248.1500  223.8090 C.3       1 ZK1901      0.0000 
     16 NAP       276.3250  246.6490  224.6520 N.am      1 ZK1901      0.0000 
     17 OAQ       272.6550  246.3810  217.1800 O.3       1 ZK1901      0.0000 
     18 CAR       274.8210  246.3260  220.8120 C.ar      1 ZK1901      0.0000 
     19 CAS       276.0970  245.8240  221.1070 C.ar      1 ZK1901      0.0000 
     20 CAT       275.6070  247.2220  225.6030 C.2       1 ZK1901      0.0000 
     21 CAU       274.3400  247.7230  225.3230 C.2       1 ZK1901      0.0000 
     22 CAV       275.8310  246.5520  223.4070 C.ar      1 ZK1901      0.0000 
     23 CAW       274.5800  247.0440  223.1240 C.ar      1 ZK1901      0.0000 
     24 NAX       274.2220  246.2500  219.4890 N.3       1 ZK1901      0.0000 
     25 NAY       273.8450  247.6250  224.0960 N.am      1 ZK1901      0.0000 
     26 CAZ       276.9970  245.1440  220.0720 C.3       1 ZK1901      0.0000 
     27 PBA       272.5830  250.0060  223.7170 P.3       1 ZK1901      0.0000 
@<TRIPOS>BOND
     1    1   20 2    
     2    2   21 2    
     3    3   27 ar   
     4    4   27 ar   
     5    5   27 ar   
     6    6   26 1    
     7    7   26 1    
     8    8   26 1    
     9    9   18 ar   
    10    9   23 ar   
    11   10   19 ar   
    12   10   22 ar   
    13   11   13 1    
    14   11   17 1    
    15   12   14 1    
    16   12   17 1    
    17   13   24 1    
    18   14   24 1    
    19   15   25 1    
    20   15   27 1    
    21   16   20 am   
    22   16   22 1    
    23   18   19 ar   
    24   18   24 1    
    25   19   26 1    
    26   20   21 1    
    27   21   25 am   
    28   22   23 ar   
    29   23   25 1    
@<TRIPOS>SUBSTRUCTURE
     1 ZK1901      1 GROUP   
@<TRIPOS>SET

