#    Name: 6njl_3_ZK1_CAVITY_N1_4
#    Modification time : Fri May 22 19:37:54 2020

@<TRIPOS>MOLECULE
6njl_3_ZK1_CAVITY_N1_4
  120     0     6     0     0
SMALL
NO_CHARGES


@<TRIPOS>ATOM
      1 OG        271.6700  244.4100  216.6700 O.3       1 SER1        0.0000 
      2 OG        271.9200  248.9000  216.7800 O.3       1 SER1        0.0000 
      3 OG        270.8400  247.9500  217.2100 O.3       1 SER1        0.0000 
      4 OG        271.8700  246.8800  217.4400 O.3       1 SER1        0.0000 
      5 OG        270.8000  245.9300  217.8700 O.3       1 SER1        0.0000 
      6 OG        272.9100  245.8200  217.6600 O.3       1 SER1        0.0000 
      7 OG        271.0400  250.4200  217.9700 O.3       1 SER1        0.0000 
      8 OG        273.0300  244.2600  219.7400 O.3       1 SER1        0.0000 
      9 OG        278.3600  247.0100  218.2400 O.3       1 SER1        0.0000 
     10 OG        277.2900  246.0600  218.6700 O.3       1 SER1        0.0000 
     11 OG        275.1400  244.1500  219.5300 O.3       1 SER1        0.0000 
     12 OG        278.3200  245.0000  218.9000 O.3       1 SER1        0.0000 
     13 OG        273.3100  250.7700  219.1900 O.3       1 SER1        0.0000 
     14 OG        277.4900  248.5300  219.4300 O.3       1 SER1        0.0000 
     15 OG        276.4100  247.5800  219.8600 O.3       1 SER1        0.0000 
     16 OG        276.3700  245.5600  220.5200 O.3       1 SER1        0.0000 
     17 OG        275.3000  244.6100  220.9500 O.3       1 SER1        0.0000 
     18 OG        278.4800  245.4500  220.3100 O.3       1 SER1        0.0000 
     19 OG        276.3300  243.5500  221.1800 O.3       1 SER1        0.0000 
     20 OG        277.3700  242.4800  221.4000 O.3       1 SER1        0.0000 
     21 OG        276.2900  241.5300  221.8300 O.3       1 SER1        0.0000 
     22 OG        271.3700  251.3400  220.8100 O.3       1 SER1        0.0000 
     23 OG        273.4800  251.2300  220.6100 O.3       1 SER1        0.0000 
     24 OG        272.4000  250.2700  221.0400 O.3       1 SER1        0.0000 
     25 OG        275.5800  251.1200  220.4000 O.3       1 SER1        0.0000 
     26 OG        276.6200  250.0600  220.6300 O.3       1 SER1        0.0000 
     27 OG        275.5400  249.1000  221.0600 O.3       1 SER1        0.0000 
     28 OG        275.5000  247.0900  221.7100 O.3       1 SER1        0.0000 
     29 OG        276.5400  246.0200  221.9400 O.3       1 SER1        0.0000 
     30 OG        274.7100  252.6400  221.5900 O.3       1 SER1        0.0000 
     31 OG        273.6400  251.6900  222.0300 O.3       1 SER1        0.0000 
     32 OG        272.5600  250.7300  222.4600 O.3       1 SER1        0.0000 
     33 OG        275.7500  251.5800  221.8200 O.3       1 SER1        0.0000 
     34 OG        274.6700  250.6200  222.2500 O.3       1 SER1        0.0000 
     35 OG        273.6000  249.6700  222.6800 O.3       1 SER1        0.0000 
     36 OG        276.7800  250.5100  222.0500 O.3       1 SER1        0.0000 
     37 OG        275.7000  249.5600  222.4800 O.3       1 SER1        0.0000 
     38 OG        276.7400  248.5000  222.7000 O.3       1 SER1        0.0000 
     39 OG        275.6600  247.5400  223.1300 O.3       1 SER1        0.0000 
     40 OG        276.7000  246.4800  223.3600 O.3       1 SER1        0.0000 
     41 OG        276.9800  252.9900  222.8100 O.3       1 SER1        0.0000 
     42 OG        273.7600  250.1300  224.1000 O.3       1 SER1        0.0000 
     43 OG        276.9400  250.9700  223.4600 O.3       1 SER1        0.0000 
     44 OG        275.8700  250.0200  223.9000 O.3       1 SER1        0.0000 
     45 OG        274.7900  249.0700  224.3300 O.3       1 SER1        0.0000 
     46 OG        275.8300  248.0000  224.5500 O.3       1 SER1        0.0000 
     47 OG        273.9200  250.5900  225.5200 O.3       1 SER1        0.0000 
     48 OG        272.8400  249.6300  225.9500 O.3       1 SER1        0.0000 
     49 OG        274.9500  249.5200  225.7500 O.3       1 SER1        0.0000 
     50 O         274.0200  248.7900  216.5700 O.2       2 ALA2        0.0000 
     51 O         273.1500  250.3100  217.7700 O.2       2 ALA2        0.0000 
     52 O         274.1900  249.2500  217.9900 O.2       2 ALA2        0.0000 
     53 N         277.4100  244.5000  220.7500 N.am      2 ALA2        0.0000 
     54 N         277.5700  244.9600  222.1600 N.am      2 ALA2        0.0000 
     55 N         277.5300  242.9400  222.8200 N.am      2 ALA2        0.0000 
     56 O         271.5300  251.8000  222.2300 O.2       2 ALA2        0.0000 
     57 N         276.6600  244.4600  224.0100 N.am      2 ALA2        0.0000 
     58 O         271.8100  250.7000  225.7200 O.2       2 ALA2        0.0000 
     59 NZ        274.9800  243.6900  218.1100 N.4       3 LYS4        0.0000 
     60 NZ        276.0100  242.6300  218.3400 N.4       3 LYS4        0.0000 
     61 NZ        276.1700  243.0900  219.7600 N.4       3 LYS4        0.0000 
     62 CZ        278.1600  244.5400  217.4800 C.ar      4 PHE5        0.0000 
     63 CZ        277.0800  243.5800  217.9100 C.ar      4 PHE5        0.0000 
     64 CZ        278.2800  242.9800  219.5500 C.ar      4 PHE5        0.0000 
     65 CZ        274.2700  245.6700  220.7200 C.ar      4 PHE5        0.0000 
     66 CZ        274.4300  246.1300  222.1400 C.ar      4 PHE5        0.0000 
     67 CZ        276.4900  244.0100  222.5900 C.ar      4 PHE5        0.0000 
     68 CZ        273.5600  247.6500  223.3400 C.ar      4 PHE5        0.0000 
     69 CZ        274.5900  246.5900  223.5600 C.ar      4 PHE5        0.0000 
     70 CZ        273.7200  248.1100  224.7600 C.ar      4 PHE5        0.0000 
     71 CZ        274.7500  247.0500  224.9800 C.ar      4 PHE5        0.0000 
     72 CZ        275.7800  245.9900  225.2100 C.ar      4 PHE5        0.0000 
     73 CA        272.7900  247.3800  215.5900 C.3       5 GLY6        0.0000 
     74 CA        276.9200  243.1300  216.4900 C.3       5 GLY6        0.0000 
     75 CA        271.9600  250.9200  216.1200 C.3       5 GLY6        0.0000 
     76 CA        272.9900  249.8500  216.3500 C.3       5 GLY6        0.0000 
     77 CA        275.0600  247.7300  216.8000 C.3       5 GLY6        0.0000 
     78 CA        273.9800  246.7700  217.2300 C.3       5 GLY6        0.0000 
     79 CA        276.0900  246.6600  217.0300 C.3       5 GLY6        0.0000 
     80 CA        275.0200  245.7100  217.4600 C.3       5 GLY6        0.0000 
     81 CA        277.1300  245.6000  217.2500 C.3       5 GLY6        0.0000 
     82 CA        276.0500  244.6500  217.6800 C.3       5 GLY6        0.0000 
     83 CA        272.1200  251.3700  217.5400 C.3       5 GLY6        0.0000 
     84 CA        271.0000  248.4000  218.6300 C.3       5 GLY6        0.0000 
     85 CA        269.9300  247.4500  219.0600 C.3       5 GLY6        0.0000 
     86 CA        275.2200  248.1900  218.2200 C.3       5 GLY6        0.0000 
     87 CA        276.2500  247.1200  218.4400 C.3       5 GLY6        0.0000 
     88 CA        277.2100  242.0300  219.9800 C.3       5 GLY6        0.0000 
     89 CA        271.2000  250.8800  219.3900 C.3       5 GLY6        0.0000 
     90 CA        271.1600  248.8600  220.0500 C.3       5 GLY6        0.0000 
     91 CA        275.4200  250.6600  218.9800 C.3       5 GLY6        0.0000 
     92 CA        276.4600  249.6000  219.2100 C.3       5 GLY6        0.0000 
     93 CA        275.3800  248.6400  219.6400 C.3       5 GLY6        0.0000 
     94 CA        278.4400  243.4400  220.9700 C.3       5 GLY6        0.0000 
     95 CA        278.4000  241.4200  221.6300 C.3       5 GLY6        0.0000 
     96 CA        270.2900  250.3800  221.2400 C.3       5 GLY6        0.0000 
     97 CA        271.3300  249.3200  221.4700 C.3       5 GLY6        0.0000 
     98 CA        273.0100  250.0900  227.3700 C.3       5 GLY6        0.0000 
     99 DU        272.9500  247.8400  217.0000 H         6 CUB7        0.0000 
    100 DU        273.9400  244.7600  217.8900 H         6 CUB7        0.0000 
    101 DU        272.0800  249.3600  218.2000 H         6 CUB7        0.0000 
    102 DU        272.0400  247.3400  218.8500 H         6 CUB7        0.0000 
    103 DU        274.1400  247.2300  218.6500 H         6 CUB7        0.0000 
    104 DU        275.1800  246.1700  218.8800 H         6 CUB7        0.0000 
    105 DU        274.1000  245.2100  219.3100 H         6 CUB7        0.0000 
    106 DU        276.2100  245.1100  219.1000 H         6 CUB7        0.0000 
    107 DU        277.2500  244.0400  219.3300 H         6 CUB7        0.0000 
    108 DU        272.2400  249.8200  219.6200 H         6 CUB7        0.0000 
    109 DU        274.3500  249.7100  219.4100 H         6 CUB7        0.0000 
    110 DU        272.2000  247.8000  220.2700 H         6 CUB7        0.0000 
    111 DU        274.3100  247.6900  220.0700 H         6 CUB7        0.0000 
    112 DU        273.2300  246.7400  220.5000 H         6 CUB7        0.0000 
    113 DU        275.3400  246.6300  220.2900 H         6 CUB7        0.0000 
    114 DU        274.5100  250.1700  220.8300 H         6 CUB7        0.0000 
    115 DU        273.4300  249.2100  221.2600 H         6 CUB7        0.0000 
    116 DU        272.3600  248.2600  221.6900 H         6 CUB7        0.0000 
    117 DU        274.4700  248.1500  221.4900 H         6 CUB7        0.0000 
    118 DU        272.5200  248.7200  223.1100 H         6 CUB7        0.0000 
    119 DU        274.6300  248.6100  222.9100 H         6 CUB7        0.0000 
    120 DU        272.6800  249.1700  224.5300 H         6 CUB7        0.0000 
@<TRIPOS>BOND
@<TRIPOS>SUBSTRUCTURE
     1 SER1        1 GROUP   
     2 ALA2       50 GROUP   
     3 LYS4       59 GROUP   
     4 PHE5       62 GROUP   
     5 GLY6       73 GROUP   
     6 CUB7       99 GROUP   
@<TRIPOS>SET

