#    Name: 6aux_2_H4B_CAVITY_N1_12
#    Modification time : Fri May 22 19:35:53 2020

@<TRIPOS>MOLECULE
6aux_2_H4B_CAVITY_N1_12
   65     0     5     0     0
SMALL
NO_CHARGES


@<TRIPOS>ATOM
      1 N          13.6200    2.0900   50.7300 N.am      1 ALA2        0.0000 
      2 N          13.1800    0.8300   51.4200 N.am      1 ALA2        0.0000 
      3 N          11.8000    1.3800   51.5600 N.am      1 ALA2        0.0000 
      4 N          11.6000    4.3800   53.6700 N.am      1 ALA2        0.0000 
      5 N          11.1600    3.1200   54.3600 N.am      1 ALA2        0.0000 
      6 N           8.9100    1.1600   55.8800 N.am      1 ALA2        0.0000 
      7 O           8.4700   -0.1000   56.5600 O.2       1 ALA2        0.0000 
      8 N          10.5900    5.5300   55.1400 N.am      1 ALA2        0.0000 
      9 N           9.7200    3.0100   56.5100 N.am      1 ALA2        0.0000 
     10 N           9.2800    1.7500   57.2000 N.am      1 ALA2        0.0000 
     11 N           8.8500    0.4900   57.8900 N.am      1 ALA2        0.0000 
     12 N          10.0900    3.6000   57.8400 N.am      1 ALA2        0.0000 
     13 N           8.7000    4.1600   57.9800 N.am      1 ALA2        0.0000 
     14 N           9.6600    2.3400   58.5300 N.am      1 ALA2        0.0000 
     15 N           8.2700    2.9000   58.6700 N.am      1 ALA2        0.0000 
     16 O           7.2600    4.0500   60.1400 O.2       1 ALA2        0.0000 
     17 O           8.2100    2.2300   60.6800 O.2       1 ALA2        0.0000 
     18 NZ         11.3000   -0.5500   54.2600 N.4       2 LYS4        0.0000 
     19 NZ         13.5000    0.7500   54.7600 N.4       2 LYS4        0.0000 
     20 NZ         12.1100    1.3100   54.9000 N.4       2 LYS4        0.0000 
     21 NZ         11.6800    0.0500   55.5900 N.4       2 LYS4        0.0000 
     22 NZ         10.2900    0.6000   55.7300 N.4       2 LYS4        0.0000 
     23 CZ         15.3800    2.1200   51.9200 C.ar      3 PHE5        0.0000 
     24 CZ         13.9900    2.6800   52.0600 C.ar      3 PHE5        0.0000 
     25 CZ         12.6100    3.2400   52.2000 C.ar      3 PHE5        0.0000 
     26 CZ         15.7500    2.7200   53.2400 C.ar      3 PHE5        0.0000 
     27 CZ         14.3700    3.2700   53.3900 C.ar      3 PHE5        0.0000 
     28 CZ         12.9800    3.8300   53.5300 C.ar      3 PHE5        0.0000 
     29 CZ         12.4100    6.2400   54.3100 C.ar      3 PHE5        0.0000 
     30 CZ         14.7400    3.8700   54.7100 C.ar      3 PHE5        0.0000 
     31 CZ         13.3600    4.4200   54.8600 C.ar      3 PHE5        0.0000 
     32 CZ         11.9700    4.9800   55.0000 C.ar      3 PHE5        0.0000 
     33 CZ          9.5100    6.0100   58.6200 C.ar      3 PHE5        0.0000 
     34 CZ          9.0800    4.7500   59.3100 C.ar      3 PHE5        0.0000 
     35 CZ          7.6900    5.3100   59.4500 C.ar      3 PHE5        0.0000 
     36 CZ          8.6400    3.4900   60.0000 C.ar      3 PHE5        0.0000 
     37 CA         11.3600    0.1200   52.2500 C.3       4 GLY6        0.0000 
     38 CA         13.1200    0.1600   53.4300 C.3       4 GLY6        0.0000 
     39 CA          9.9200    0.0100   54.4100 C.3       4 GLY6        0.0000 
     40 CA          8.5300    0.5600   54.5500 C.3       4 GLY6        0.0000 
     41 CA          9.3400    2.4200   55.1900 C.3       4 GLY6        0.0000 
     42 CA         11.0200    6.7900   54.4500 C.3       4 GLY6        0.0000 
     43 CA         10.1500    4.2700   55.8300 C.3       4 GLY6        0.0000 
     44 CA         11.3900    7.3900   55.7800 C.3       4 GLY6        0.0000 
     45 CA          9.5700    6.6800   56.6100 C.3       4 GLY6        0.0000 
     46 CA         10.5300    4.8700   57.1500 C.3       4 GLY6        0.0000 
     47 CA          9.1400    5.4200   57.3000 C.3       4 GLY6        0.0000 
     48 CA         11.7700    7.9800   57.1100 C.3       4 GLY6        0.0000 
     49 CA         10.3800    8.5400   57.2500 C.3       4 GLY6        0.0000 
     50 CA          9.9500    7.2700   57.9400 C.3       4 GLY6        0.0000 
     51 CA          8.1300    6.5700   58.7700 C.3       4 GLY6        0.0000 
     52 DU         13.5600    1.4200   52.7500 H         5 CUB7        0.0000 
     53 DU         12.1700    1.9700   52.8900 H         5 CUB7        0.0000 
     54 DU         11.7400    0.7100   53.5800 H         5 CUB7        0.0000 
     55 DU         15.3200    1.4600   53.9300 H         5 CUB7        0.0000 
     56 DU         13.9300    2.0100   54.0700 H         5 CUB7        0.0000 
     57 DU         12.5500    2.5700   54.2200 H         5 CUB7        0.0000 
     58 DU         10.7300    1.8600   55.0500 H         5 CUB7        0.0000 
     59 DU         12.9200    3.1600   55.5400 H         5 CUB7        0.0000 
     60 DU         11.5400    3.7200   55.6900 H         5 CUB7        0.0000 
     61 DU         11.1000    2.4600   56.3700 H         5 CUB7        0.0000 
     62 DU         10.6700    1.1900   57.0600 H         5 CUB7        0.0000 
     63 DU         12.7800    6.8300   55.6400 H         5 CUB7        0.0000 
     64 DU         12.3500    5.5700   56.3200 H         5 CUB7        0.0000 
     65 DU         10.9600    6.1300   56.4700 H         5 CUB7        0.0000 
@<TRIPOS>BOND
@<TRIPOS>SUBSTRUCTURE
     1 ALA2        1 GROUP   
     2 LYS4       18 GROUP   
     3 PHE5       23 GROUP   
     4 GLY6       37 GROUP   
     5 CUB7       52 GROUP   
@<TRIPOS>SET

