#    Name: 6aux_2_H4B_CAVITY_N1_4
#    Modification time : Fri May 22 19:35:53 2020

@<TRIPOS>MOLECULE
6aux_2_H4B_CAVITY_N1_4
   15     0     4     0     0
SMALL
NO_CHARGES


@<TRIPOS>ATOM
      1 N          13.6200    2.0900   50.7300 N.am      1 ALA2        0.0000 
      2 N          13.1800    0.8300   51.4200 N.am      1 ALA2        0.0000 
      3 N          11.8000    1.3800   51.5600 N.am      1 ALA2        0.0000 
      4 CZ         15.3800    2.1200   51.9200 C.ar      2 PHE5        0.0000 
      5 CZ         13.9900    2.6800   52.0600 C.ar      2 PHE5        0.0000 
      6 CZ         12.6100    3.2400   52.2000 C.ar      2 PHE5        0.0000 
      7 CZ         15.7500    2.7200   53.2400 C.ar      2 PHE5        0.0000 
      8 CZ         14.3700    3.2700   53.3900 C.ar      2 PHE5        0.0000 
      9 CZ         12.9800    3.8300   53.5300 C.ar      2 PHE5        0.0000 
     10 CA         11.3600    0.1200   52.2500 C.3       3 GLY6        0.0000 
     11 CA         13.1200    0.1600   53.4300 C.3       3 GLY6        0.0000 
     12 DU         13.5600    1.4200   52.7500 H         4 CUB7        0.0000 
     13 DU         12.1700    1.9700   52.8900 H         4 CUB7        0.0000 
     14 DU         15.3200    1.4600   53.9300 H         4 CUB7        0.0000 
     15 DU         13.9300    2.0100   54.0700 H         4 CUB7        0.0000 
@<TRIPOS>BOND
@<TRIPOS>SUBSTRUCTURE
     1 ALA2        1 GROUP   
     2 PHE5        4 GROUP   
     3 GLY6       10 GROUP   
     4 CUB7       12 GROUP   
@<TRIPOS>SET

