#    Name: 6aux_2_H4B
#    Modification time : Fri May 22 19:35:52 2020

@<TRIPOS>MOLECULE
6aux_2_H4B
   17    18     1     0     1
SMALL
NO_CHARGES


@<TRIPOS>ATOM
      1 N1         14.3950    3.4550   48.4600 N.2       1 H4B802      0.0000 
      2 C2         14.4920    2.9710   49.7260 C.2       1 H4B802      0.0000 
      3 N2         13.4550    2.3100   50.2860 N.pl3     1 H4B802      0.0000 
      4 N3         15.6100    3.1600   50.4590 N.am      1 H4B802      0.0000 
      5 C4         16.6720    3.8180   49.9530 C.2       1 H4B802      0.0000 
      6 O4         17.7080    3.9770   50.6320 O.2       1 H4B802      0.0000 
      7 C4A        16.5950    4.3330   48.6730 C.2       1 H4B802      0.0000 
      8 C8A        15.4360    4.1300   47.9290 C.2       1 H4B802      0.0000 
      9 N5         17.6380    5.0250   48.1390 N.3       1 H4B802      0.0000 
     10 N8         15.3400    4.6120   46.6630 N.pl3     1 H4B802      0.0000 
     11 C6         17.2880    5.9690   47.0830 C.3       1 H4B802      0.0000 
     12 C7         16.4880    5.2300   46.0050 C.3       1 H4B802      0.0000 
     13 C9         18.5220    6.6160   46.4500 C.3       1 H4B802      0.0000 
     14 O9         19.3980    5.5710   46.0240 O.3       1 H4B802      0.0000 
     15 C10        18.1610    7.4200   45.2050 C.3       1 H4B802      0.0000 
     16 C11        19.4090    7.9990   44.5360 C.3       1 H4B802      0.0000 
     17 O10        17.2530    8.4770   45.5390 O.3       1 H4B802      0.0000 
@<TRIPOS>BOND
     1    1    2 2    
     2    1    8 1    
     3    2    3 1    
     4    2    4 1    
     5    4    5 am   
     6    5    6 2    
     7    5    7 1    
     8    7    8 2    
     9    7    9 1    
    10    8   10 1    
    11    9   11 1    
    12   10   12 1    
    13   11   12 1    
    14   11   13 1    
    15   13   14 1    
    16   13   15 1    
    17   15   16 1    
    18   15   17 1    
@<TRIPOS>SUBSTRUCTURE
     1 H4B802      1 GROUP   
@<TRIPOS>SET
ATOM$ORANGE STATIC     ATOMS   COLORGROUP SYSTEM 
18 2 2 5 5 7 7 8 8 11 11 12 12 13 13 15 15 16 \
16 

