#    Name: 6aux_2_H4B_CAVITY_N1_8
#    Modification time : Fri May 22 19:35:53 2020

@<TRIPOS>MOLECULE
6aux_2_H4B_CAVITY_N1_8
   46     0     5     0     0
SMALL
NO_CHARGES


@<TRIPOS>ATOM
      1 N          13.6200    2.0900   50.7300 N.am      1 ALA2        0.0000 
      2 N          13.1800    0.8300   51.4200 N.am      1 ALA2        0.0000 
      3 N          11.8000    1.3800   51.5600 N.am      1 ALA2        0.0000 
      4 N          11.6000    4.3800   53.6700 N.am      1 ALA2        0.0000 
      5 N          11.1600    3.1200   54.3600 N.am      1 ALA2        0.0000 
      6 N           8.9100    1.1600   55.8800 N.am      1 ALA2        0.0000 
      7 N          10.5900    5.5300   55.1400 N.am      1 ALA2        0.0000 
      8 N           9.7200    3.0100   56.5100 N.am      1 ALA2        0.0000 
      9 NZ         11.3000   -0.5500   54.2600 N.4       2 LYS4        0.0000 
     10 NZ         13.5000    0.7500   54.7600 N.4       2 LYS4        0.0000 
     11 NZ         12.1100    1.3100   54.9000 N.4       2 LYS4        0.0000 
     12 NZ         11.6800    0.0500   55.5900 N.4       2 LYS4        0.0000 
     13 NZ         10.2900    0.6000   55.7300 N.4       2 LYS4        0.0000 
     14 CZ         15.3800    2.1200   51.9200 C.ar      3 PHE5        0.0000 
     15 CZ         13.9900    2.6800   52.0600 C.ar      3 PHE5        0.0000 
     16 CZ         12.6100    3.2400   52.2000 C.ar      3 PHE5        0.0000 
     17 CZ         15.7500    2.7200   53.2400 C.ar      3 PHE5        0.0000 
     18 CZ         14.3700    3.2700   53.3900 C.ar      3 PHE5        0.0000 
     19 CZ         12.9800    3.8300   53.5300 C.ar      3 PHE5        0.0000 
     20 CZ         12.4100    6.2400   54.3100 C.ar      3 PHE5        0.0000 
     21 CZ         14.7400    3.8700   54.7100 C.ar      3 PHE5        0.0000 
     22 CZ         13.3600    4.4200   54.8600 C.ar      3 PHE5        0.0000 
     23 CZ         11.9700    4.9800   55.0000 C.ar      3 PHE5        0.0000 
     24 CA         11.3600    0.1200   52.2500 C.3       4 GLY6        0.0000 
     25 CA         13.1200    0.1600   53.4300 C.3       4 GLY6        0.0000 
     26 CA          9.9200    0.0100   54.4100 C.3       4 GLY6        0.0000 
     27 CA          8.5300    0.5600   54.5500 C.3       4 GLY6        0.0000 
     28 CA          9.3400    2.4200   55.1900 C.3       4 GLY6        0.0000 
     29 CA         11.0200    6.7900   54.4500 C.3       4 GLY6        0.0000 
     30 CA         10.1500    4.2700   55.8300 C.3       4 GLY6        0.0000 
     31 CA         11.3900    7.3900   55.7800 C.3       4 GLY6        0.0000 
     32 CA         10.5300    4.8700   57.1500 C.3       4 GLY6        0.0000 
     33 DU         13.5600    1.4200   52.7500 H         5 CUB7        0.0000 
     34 DU         12.1700    1.9700   52.8900 H         5 CUB7        0.0000 
     35 DU         11.7400    0.7100   53.5800 H         5 CUB7        0.0000 
     36 DU         15.3200    1.4600   53.9300 H         5 CUB7        0.0000 
     37 DU         13.9300    2.0100   54.0700 H         5 CUB7        0.0000 
     38 DU         12.5500    2.5700   54.2200 H         5 CUB7        0.0000 
     39 DU         10.7300    1.8600   55.0500 H         5 CUB7        0.0000 
     40 DU         12.9200    3.1600   55.5400 H         5 CUB7        0.0000 
     41 DU         11.5400    3.7200   55.6900 H         5 CUB7        0.0000 
     42 DU         11.1000    2.4600   56.3700 H         5 CUB7        0.0000 
     43 DU         10.6700    1.1900   57.0600 H         5 CUB7        0.0000 
     44 DU         12.7800    6.8300   55.6400 H         5 CUB7        0.0000 
     45 DU         12.3500    5.5700   56.3200 H         5 CUB7        0.0000 
     46 DU         10.9600    6.1300   56.4700 H         5 CUB7        0.0000 
@<TRIPOS>BOND
@<TRIPOS>SUBSTRUCTURE
     1 ALA2        1 GROUP   
     2 LYS4        9 GROUP   
     3 PHE5       14 GROUP   
     4 GLY6       24 GROUP   
     5 CUB7       33 GROUP   
@<TRIPOS>SET

