#    Name: 5nxa_5_SSS
#    Modification time : Fri May 22 19:18:18 2020

@<TRIPOS>MOLECULE
5nxa_5_SSS
   30    31     1     0     0
SMALL
NO_CHARGES


@<TRIPOS>ATOM
      1 PA         48.6100  -21.4090   57.1590 P.3       1 SSS502      0.0000 
      2 O1A        49.2700  -22.7300   56.7500 O.co2     1 SSS502      0.0000 
      3 O2A        47.2150  -21.5120   57.7600 O.co2     1 SSS502      0.0000 
      4 O3A        48.7410  -20.2220   56.2000 O.co2     1 SSS502      0.0000 
      5 O5'        49.5530  -21.0440   58.3770 O.3       1 SSS502      0.0000 
      6 C5'        49.1980  -20.0420   59.2890 C.3       1 SSS502      0.0000 
      7 C4'        50.3860  -19.6560   60.1410 C.3       1 SSS502      0.0000 
      8 O4'        49.8890  -18.5850   60.8830 O.3       1 SSS502      0.0000 
      9 C1'        50.3930  -18.6290   62.1770 C.3       1 SSS502      0.0000 
     10 N9         49.4630  -17.9360   63.1140 N.pl3     1 SSS502      0.0000 
     11 C4         49.2410  -16.6260   63.1300 C.2       1 SSS502      0.0000 
     12 O6         47.6610  -14.0500   63.7570 O.2       1 SSS502      0.0000 
     13 N3         49.7980  -15.7260   62.2640 N.pl3     1 SSS502      0.0000 
     14 C6         47.8330  -14.9590   64.5560 C.2       1 SSS502      0.0000 
     15 N6         47.8950  -14.9220   65.9060 N.am      1 SSS502      0.0000 
     16 C61        48.0860  -13.7730   66.7790 C.3       1 SSS502      0.0000 
     17 C62        49.5650  -13.4870   66.9750 C.2       1 SSS502      0.0000 
     18 C63        47.4550  -14.0780   68.1500 C.3       1 SSS502      0.0000 
     19 C64        46.0350  -14.5990   68.0050 C.2       1 SSS502      0.0000 
     20 O65        50.3570  -14.4530   66.9730 O.co2     1 SSS502      0.0000 
     21 O66        49.9650  -12.3110   67.1390 O.co2     1 SSS502      0.0000 
     22 O67        45.2470  -13.9960   67.2360 O.co2     1 SSS502      0.0000 
     23 O68        45.7160  -15.6210   68.6540 O.co2     1 SSS502      0.0000 
     24 C5         48.2550  -16.2970   64.1420 C.2       1 SSS502      0.0000 
     25 N7         48.0130  -17.4540   64.7520 N.2       1 SSS502      0.0000 
     26 C8         48.7060  -18.4340   64.1240 C.2       1 SSS502      0.0000 
     27 C2'        50.7170  -20.0650   62.4620 C.3       1 SSS502      0.0000 
     28 O2'        49.7270  -20.7500   63.1580 O.3       1 SSS502      0.0000 
     29 C3'        50.8680  -20.7120   61.1210 C.3       1 SSS502      0.0000 
     30 O3'        52.2600  -21.1250   60.9730 O.3       1 SSS502      0.0000 
@<TRIPOS>BOND
     1    1    2 ar   
     2    1    3 ar   
     3    1    4 ar   
     4    1    5 1    
     5    5    6 1    
     6    6    7 1    
     7    7    8 1    
     8    7   29 1    
     9    8    9 1    
    10    9   10 1    
    11    9   27 1    
    12   10   11 1    
    13   10   26 1    
    14   11   13 1    
    15   11   24 2    
    16   12   14 2    
    17   14   15 am   
    18   14   24 1    
    19   15   16 1    
    20   16   17 1    
    21   16   18 1    
    22   17   20 ar   
    23   17   21 ar   
    24   18   19 1    
    25   19   22 ar   
    26   19   23 ar   
    27   24   25 1    
    28   25   26 2    
    29   27   28 1    
    30   27   29 1    
    31   29   30 1    
@<TRIPOS>SUBSTRUCTURE
     1 SSS502      1 GROUP   
@<TRIPOS>SET

