#    Name: 5nxa_8_SSS
#    Modification time : Fri May 22 19:18:51 2020

@<TRIPOS>MOLECULE
5nxa_8_SSS
   30    31     1     0     0
SMALL
NO_CHARGES


@<TRIPOS>ATOM
      1 PA         33.3930   14.2190  -22.0780 P.3       1 SSS502      0.0000 
      2 O1A        33.6730   13.4790  -20.7680 O.co2     1 SSS502      0.0000 
      3 O2A        34.4110   15.2840  -22.3600 O.co2     1 SSS502      0.0000 
      4 O3A        32.9570   13.3940  -23.2740 O.co2     1 SSS502      0.0000 
      5 O5'        32.0980   15.0130  -21.6350 O.3       1 SSS502      0.0000 
      6 C5'        31.3970   15.7460  -22.5940 C.3       1 SSS502      0.0000 
      7 C4'        30.4200   16.5730  -21.8170 C.3       1 SSS502      0.0000 
      8 O4'        29.8940   17.5550  -22.6760 O.3       1 SSS502      0.0000 
      9 C1'        28.5150   17.6770  -22.4230 C.3       1 SSS502      0.0000 
     10 N9         27.8040   17.9310  -23.6840 N.pl3     1 SSS502      0.0000 
     11 C4         27.8270   19.0780  -24.3240 C.2       1 SSS502      0.0000 
     12 O6         27.6310   21.0860  -26.4090 O.2       1 SSS502      0.0000 
     13 N3         28.5200   20.1740  -23.9670 N.pl3     1 SSS502      0.0000 
     14 C6         26.8290   20.1520  -26.4000 C.2       1 SSS502      0.0000 
     15 N6         25.5750   20.1640  -26.8770 N.am      1 SSS502      0.0000 
     16 C61        24.7960   21.3960  -27.0390 C.3       1 SSS502      0.0000 
     17 C62        24.4590   21.9680  -25.6670 C.2       1 SSS502      0.0000 
     18 C63        23.4890   21.1840  -27.8250 C.3       1 SSS502      0.0000 
     19 C64        23.6460   20.1490  -28.9240 C.2       1 SSS502      0.0000 
     20 O65        24.2810   23.2000  -25.5590 O.co2     1 SSS502      0.0000 
     21 O66        24.3860   21.1890  -24.6750 O.co2     1 SSS502      0.0000 
     22 O67        24.3610   20.4070  -29.9190 O.co2     1 SSS502      0.0000 
     23 O68        23.0730   19.0530  -28.7800 O.co2     1 SSS502      0.0000 
     24 C5         27.0580   18.9980  -25.5240 C.2       1 SSS502      0.0000 
     25 N7         26.5100   17.7710  -25.5000 N.2       1 SSS502      0.0000 
     26 C8         26.9840   17.1200  -24.3980 C.2       1 SSS502      0.0000 
     27 C2'        28.0420   16.4740  -21.5840 C.3       1 SSS502      0.0000 
     28 O2'        27.0610   15.5590  -22.0730 O.3       1 SSS502      0.0000 
     29 C3'        29.2800   15.7310  -21.2750 C.3       1 SSS502      0.0000 
     30 O3'        29.2610   15.6530  -19.8570 O.3       1 SSS502      0.0000 
@<TRIPOS>BOND
     1    1    2 ar   
     2    1    3 ar   
     3    1    4 ar   
     4    1    5 1    
     5    5    6 1    
     6    6    7 1    
     7    7    8 1    
     8    7   29 1    
     9    8    9 1    
    10    9   10 1    
    11    9   27 1    
    12   10   11 1    
    13   10   26 1    
    14   11   13 1    
    15   11   24 2    
    16   12   14 2    
    17   14   15 am   
    18   14   24 1    
    19   15   16 1    
    20   16   17 1    
    21   16   18 1    
    22   17   20 ar   
    23   17   21 ar   
    24   18   19 1    
    25   19   22 ar   
    26   19   23 ar   
    27   24   25 1    
    28   25   26 2    
    29   27   28 1    
    30   27   29 1    
    31   29   30 1    
@<TRIPOS>SUBSTRUCTURE
     1 SSS502      1 GROUP   
@<TRIPOS>SET

