#    Name: 5nxa_7_SSS
#    Modification time : Fri May 22 19:18:34 2020

@<TRIPOS>MOLECULE
5nxa_7_SSS
   30    31     1     0     0
SMALL
NO_CHARGES


@<TRIPOS>ATOM
      1 PA         62.5130   11.0780  -14.0240 P.3       1 SSS502      0.0000 
      2 O1A        61.6500   12.2030  -13.5320 O.co2     1 SSS502      0.0000 
      3 O2A        61.8210    9.7430  -14.1950 O.co2     1 SSS502      0.0000 
      4 O3A        63.5040   11.4740  -15.0840 O.co2     1 SSS502      0.0000 
      5 O5'        63.3680   10.7830  -12.7440 O.3       1 SSS502      0.0000 
      6 C5'        64.5580   10.0500  -12.7940 C.3       1 SSS502      0.0000 
      7 C4'        64.7060    9.4670  -11.4110 C.3       1 SSS502      0.0000 
      8 O4'        65.4350    8.2850  -11.6210 O.3       1 SSS502      0.0000 
      9 C1'        66.5480    8.2820  -10.7770 C.3       1 SSS502      0.0000 
     10 N9         67.7020    7.6870  -11.4530 N.pl3     1 SSS502      0.0000 
     11 C4         67.8730    6.4010  -11.6090 C.2       1 SSS502      0.0000 
     12 O6         68.9920    3.7730  -12.8920 O.2       1 SSS502      0.0000 
     13 N3         66.9830    5.4640  -11.2190 N.pl3     1 SSS502      0.0000 
     14 C6         69.6900    4.7540  -12.5580 C.2       1 SSS502      0.0000 
     15 N6         70.9870    4.7190  -12.1420 N.am      1 SSS502      0.0000 
     16 C61        71.6550    3.5260  -11.6240 C.3       1 SSS502      0.0000 
     17 C62        71.2890    3.3520  -10.1590 C.2       1 SSS502      0.0000 
     18 C63        73.1820    3.5730  -11.7540 C.3       1 SSS502      0.0000 
     19 C64        73.6140    4.2660  -13.0190 C.2       1 SSS502      0.0000 
     20 O65        71.3520    2.2200   -9.6390 O.co2     1 SSS502      0.0000 
     21 O66        70.9030    4.3460   -9.5110 O.co2     1 SSS502      0.0000 
     22 O67        73.3640    3.7140  -14.1390 O.co2     1 SSS502      0.0000 
     23 O68        74.2000    5.3760  -12.8670 O.co2     1 SSS502      0.0000 
     24 C5         69.1240    6.1100  -12.3080 C.2       1 SSS502      0.0000 
     25 N7         69.6790    7.3200  -12.4560 N.2       1 SSS502      0.0000 
     26 C8         68.8180    8.2560  -11.9720 C.2       1 SSS502      0.0000 
     27 C2'        66.7590    9.6710  -10.2050 C.3       1 SSS502      0.0000 
     28 O2'        67.8230   10.4470  -10.7440 O.3       1 SSS502      0.0000 
     29 C3'        65.4660   10.3820  -10.4410 C.3       1 SSS502      0.0000 
     30 O3'        64.8260   10.5520   -9.1730 O.3       1 SSS502      0.0000 
@<TRIPOS>BOND
     1    1    2 ar   
     2    1    3 ar   
     3    1    4 ar   
     4    1    5 1    
     5    5    6 1    
     6    6    7 1    
     7    7    8 1    
     8    7   29 1    
     9    8    9 1    
    10    9   10 1    
    11    9   27 1    
    12   10   11 1    
    13   10   26 1    
    14   11   13 1    
    15   11   24 2    
    16   12   14 2    
    17   14   15 am   
    18   14   24 1    
    19   15   16 1    
    20   16   17 1    
    21   16   18 1    
    22   17   20 ar   
    23   17   21 ar   
    24   18   19 1    
    25   19   22 ar   
    26   19   23 ar   
    27   24   25 1    
    28   25   26 2    
    29   27   28 1    
    30   27   29 1    
    31   29   30 1    
@<TRIPOS>SUBSTRUCTURE
     1 SSS502      1 GROUP   
@<TRIPOS>SET

