#    Name: 5nxa_1_SSS
#    Modification time : Fri May 22 19:18:02 2020

@<TRIPOS>MOLECULE
5nxa_1_SSS
   30    31     1     0     0
SMALL
NO_CHARGES


@<TRIPOS>ATOM
      1 PA         49.8620  -24.0290   26.9290 P.3       1 SSS501      0.0000 
      2 O1A        49.3670  -24.9830   27.9710 O.co2     1 SSS501      0.0000 
      3 O2A        50.8400  -23.0520   27.4790 O.co2     1 SSS501      0.0000 
      4 O3A        48.8530  -23.4020   25.9840 O.co2     1 SSS501      0.0000 
      5 O5'        50.7870  -25.0000   26.0800 O.3       1 SSS501      0.0000 
      6 C5'        50.2250  -25.5520   24.9210 C.3       1 SSS501      0.0000 
      7 C4'        51.2330  -26.4800   24.3070 C.3       1 SSS501      0.0000 
      8 O4'        50.4350  -27.3680   23.5500 O.3       1 SSS501      0.0000 
      9 C1'        51.0350  -27.5290   22.2760 C.3       1 SSS501      0.0000 
     10 N9         50.0570  -27.8200   21.1850 N.pl3     1 SSS501      0.0000 
     11 C4         49.4950  -28.9950   20.9850 C.2       1 SSS501      0.0000 
     12 O6         47.3510  -30.8990   20.0260 O.2       1 SSS501      0.0000 
     13 N3         49.6430  -30.0880   21.7810 N.pl3     1 SSS501      0.0000 
     14 C6         47.9330  -30.1050   19.3000 C.2       1 SSS501      0.0000 
     15 N6         48.3090  -30.2290   18.0060 N.am      1 SSS501      0.0000 
     16 C61        48.2520  -31.4200   17.1830 C.3       1 SSS501      0.0000 
     17 C62        49.6030  -32.1170   17.0580 C.2       1 SSS501      0.0000 
     18 C63        47.7160  -31.0270   15.8010 C.3       1 SSS501      0.0000 
     19 C64        46.6200  -29.9880   15.9170 C.2       1 SSS501      0.0000 
     20 O65        50.6150  -31.4910   16.6390 O.co2     1 SSS501      0.0000 
     21 O66        49.6680  -33.3240   17.3820 O.co2     1 SSS501      0.0000 
     22 O67        46.5550  -29.0690   15.0890 O.co2     1 SSS501      0.0000 
     23 O68        45.8290  -30.0730   16.8540 O.co2     1 SSS501      0.0000 
     24 C5         48.5960  -28.9340   19.8440 C.2       1 SSS501      0.0000 
     25 N7         48.7490  -27.7150   19.3250 N.2       1 SSS501      0.0000 
     26 C8         49.6060  -27.0320   20.1520 C.2       1 SSS501      0.0000 
     27 C2'        52.0280  -26.3760   22.0150 C.3       1 SSS501      0.0000 
     28 O2'        51.6890  -25.3500   21.0700 O.3       1 SSS501      0.0000 
     29 C3'        52.2500  -25.7690   23.3760 C.3       1 SSS501      0.0000 
     30 O3'        53.6540  -25.9340   23.7310 O.3       1 SSS501      0.0000 
@<TRIPOS>BOND
     1    1    2 ar   
     2    1    3 ar   
     3    1    4 ar   
     4    1    5 1    
     5    5    6 1    
     6    6    7 1    
     7    7    8 1    
     8    7   29 1    
     9    8    9 1    
    10    9   10 1    
    11    9   27 1    
    12   10   11 1    
    13   10   26 1    
    14   11   13 1    
    15   11   24 2    
    16   12   14 2    
    17   14   15 am   
    18   14   24 1    
    19   15   16 1    
    20   16   17 1    
    21   16   18 1    
    22   17   20 ar   
    23   17   21 ar   
    24   18   19 1    
    25   19   22 ar   
    26   19   23 ar   
    27   24   25 1    
    28   25   26 2    
    29   27   28 1    
    30   27   29 1    
    31   29   30 1    
@<TRIPOS>SUBSTRUCTURE
     1 SSS501      1 GROUP   
@<TRIPOS>SET

