#    Name: 5nxa_5_SSS_CAVITY_N1_4
#    Modification time : Fri May 22 19:18:19 2020

@<TRIPOS>MOLECULE
5nxa_5_SSS_CAVITY_N1_4
  110     0     7     0     0
SMALL
NO_CHARGES


@<TRIPOS>ATOM
      1 OG         47.7800  -19.9200   58.3200 O.3       1 SER1        0.0000 
      2 OG         49.2000  -19.8200   57.8600 O.3       1 SER1        0.0000 
      3 OG         47.9900  -18.1000   59.3800 O.3       1 SER1        0.0000 
      4 OG         49.4200  -18.0000   58.9300 O.3       1 SER1        0.0000 
      5 OG         47.7900  -16.6500   59.0600 O.3       1 SER1        0.0000 
      6 OG         49.2200  -16.5500   58.6000 O.3       1 SER1        0.0000 
      7 OG         49.6500  -19.8900   64.2100 O.3       1 SER1        0.0000 
      8 OG         51.0800  -19.7900   63.7600 O.3       1 SER1        0.0000 
      9 OG         50.6700  -16.8900   63.1100 O.3       1 SER1        0.0000 
     10 OG         48.6400  -19.6100   66.0600 O.3       1 SER1        0.0000 
     11 OG         46.6100  -15.3600   65.5300 O.3       1 SER1        0.0000 
     12 OG         48.0300  -15.2600   65.0800 O.3       1 SER1        0.0000 
     13 OG         49.4600  -15.1600   64.6200 O.3       1 SER1        0.0000 
     14 OG         49.0600  -19.2400   67.4500 O.3       1 SER1        0.0000 
     15 OG         47.2300  -16.4400   67.2500 O.3       1 SER1        0.0000 
     16 OG         45.6000  -15.0800   67.3800 O.3       1 SER1        0.0000 
     17 OG         47.0200  -14.9900   66.9200 O.3       1 SER1        0.0000 
     18 OG         48.2500  -13.4400   66.1400 O.3       1 SER1        0.0000 
     19 OG         50.2900  -14.4200   67.4100 O.3       1 SER1        0.0000 
     20 OG         48.6700  -13.0700   67.5400 O.3       1 SER1        0.0000 
     21 OG         50.0900  -12.9700   67.0800 O.3       1 SER1        0.0000 
     22 OG         49.0800  -12.7000   68.9300 O.3       1 SER1        0.0000 
     23 N          49.2300  -13.2800   59.3400 N.am      2 ALA2        0.0000 
     24 N          50.6600  -20.1600   62.3600 N.am      2 ALA2        0.0000 
     25 O          52.0900  -20.0600   61.9100 O.2       2 ALA2        0.0000 
     26 O          49.6500  -12.9100   60.7400 O.2       2 ALA2        0.0000 
     27 N          51.0700  -12.8100   60.2800 N.am      2 ALA2        0.0000 
     28 N          49.8500  -21.3400   64.5400 N.am      2 ALA2        0.0000 
     29 N          50.4700  -22.4200   66.2500 N.am      2 ALA2        0.0000 
     30 N          50.2700  -20.9700   65.9300 N.am      2 ALA2        0.0000 
     31 O          47.2100  -19.7100   66.5100 O.2       2 ALA2        0.0000 
     32 N          47.8300  -13.8100   64.7500 N.am      2 ALA2        0.0000 
     33 O          46.8200  -13.5400   66.6000 O.2       2 ALA2        0.0000 
     34 O          46.2200  -16.1600   69.1000 O.2       2 ALA2        0.0000 
     35 O          47.6400  -16.0700   68.6400 O.2       2 ALA2        0.0000 
     36 O          45.8100  -13.2600   68.4400 O.2       2 ALA2        0.0000 
     37 O          47.2400  -13.1700   67.9900 O.2       2 ALA2        0.0000 
     38 O          48.2600  -17.1500   70.3600 O.2       2 ALA2        0.0000 
     39 OD1        47.5600  -21.7400   57.2500 O.co2     3 ASP3        0.0000 
     40 OD1        47.9800  -21.3700   58.6400 O.co2     3 ASP3        0.0000 
     41 OD1        49.4100  -21.2700   58.1900 O.co2     3 ASP3        0.0000 
     42 OD1        49.8200  -20.9000   59.5800 O.co2     3 ASP3        0.0000 
     43 OD1        49.6200  -19.4500   59.2500 O.co2     3 ASP3        0.0000 
     44 OD1        48.0100  -14.8300   60.1200 O.co2     3 ASP3        0.0000 
     45 OD1        47.8000  -13.3800   59.8000 O.co2     3 ASP3        0.0000 
     46 OD1        48.4200  -14.4600   61.5100 O.co2     3 ASP3        0.0000 
     47 OD1        48.2200  -13.0100   61.1900 O.co2     3 ASP3        0.0000 
     48 OD1        47.4100  -14.1800   63.3600 O.co2     3 ASP3        0.0000 
     49 OD1        46.0100  -14.7100   68.7700 O.co2     3 ASP3        0.0000 
     50 NZ         51.6700  -20.4300   60.5200 N.4       4 LYS4        0.0000 
     51 NZ         50.0400  -19.0800   60.6500 N.4       4 LYS4        0.0000 
     52 NZ         49.8400  -17.6300   60.3200 N.4       4 LYS4        0.0000 
     53 NZ         51.0600  -16.0800   59.5400 N.4       4 LYS4        0.0000 
     54 NZ         50.4600  -18.7100   62.0400 N.4       4 LYS4        0.0000 
     55 NZ         50.2500  -17.2600   61.7100 N.4       4 LYS4        0.0000 
     56 NZ         50.0500  -15.8100   61.3900 N.4       4 LYS4        0.0000 
     57 NZ         51.4800  -15.7100   60.9300 N.4       4 LYS4        0.0000 
     58 CZ         48.0200  -18.5300   64.3400 C.ar      5 PHE5        0.0000 
     59 CZ         49.4500  -18.4400   63.8800 C.ar      5 PHE5        0.0000 
     60 CZ         50.8700  -18.3400   63.4300 C.ar      5 PHE5        0.0000 
     61 CZ         49.2400  -16.9900   63.5600 C.ar      5 PHE5        0.0000 
     62 CZ         47.0100  -18.2600   66.1800 C.ar      5 PHE5        0.0000 
     63 CZ         48.4400  -18.1600   65.7300 C.ar      5 PHE5        0.0000 
     64 CZ         48.2400  -16.7100   65.4000 C.ar      5 PHE5        0.0000 
     65 CZ         48.8500  -17.7900   67.1200 C.ar      5 PHE5        0.0000 
     66 CZ         48.6500  -16.3400   66.8000 C.ar      5 PHE5        0.0000 
     67 CZ         48.4500  -14.8900   66.4700 C.ar      5 PHE5        0.0000 
     68 CZ         49.2700  -17.4200   68.5100 C.ar      5 PHE5        0.0000 
     69 CZ         49.0700  -15.9700   68.1900 C.ar      5 PHE5        0.0000 
     70 CA         48.4000  -21.0000   60.0300 C.3       6 GLY6        0.0000 
     71 CA         48.2000  -19.5500   59.7100 C.3       6 GLY6        0.0000 
     72 CA         50.4400  -21.9800   61.3000 C.3       6 GLY6        0.0000 
     73 CA         48.8100  -20.6300   61.4300 C.3       6 GLY6        0.0000 
     74 CA         48.6100  -19.1800   61.1000 C.3       6 GLY6        0.0000 
     75 CA         48.4100  -17.7300   60.7700 C.3       6 GLY6        0.0000 
     76 CA         48.2100  -16.2800   60.4500 C.3       6 GLY6        0.0000 
     77 CA         47.8100  -20.3500   63.2700 C.3       6 GLY6        0.0000 
     78 CA         49.2300  -20.2600   62.8200 C.3       6 GLY6        0.0000 
     79 CA         49.0300  -18.8100   62.4900 C.3       6 GLY6        0.0000 
     80 CA         48.8300  -17.3600   62.1700 C.3       6 GLY6        0.0000 
     81 CA         48.6300  -15.9100   61.8400 C.3       6 GLY6        0.0000 
     82 CA         51.2800  -14.2600   60.6100 C.3       6 GLY6        0.0000 
     83 CA         48.4200  -21.4300   64.9900 C.3       6 GLY6        0.0000 
     84 CA         48.2200  -19.9800   64.6600 C.3       6 GLY6        0.0000 
     85 CA         47.8200  -17.0800   64.0100 C.3       6 GLY6        0.0000 
     86 CA         47.6200  -15.6300   63.6900 C.3       6 GLY6        0.0000 
     87 CA         49.0400  -15.5400   63.2300 C.3       6 GLY6        0.0000 
     88 CA         50.4700  -15.4400   62.7800 C.3       6 GLY6        0.0000 
     89 CA         48.8400  -14.0900   62.9100 C.3       6 GLY6        0.0000 
     90 CA         48.8400  -21.0600   66.3800 C.3       6 GLY6        0.0000 
     91 CA         46.6300  -15.7900   70.4900 C.3       6 GLY6        0.0000 
     92 CA         48.0600  -15.7000   70.0300 C.3       6 GLY6        0.0000 
     93 CA         46.4300  -14.3400   70.1600 C.3       6 GLY6        0.0000 
     94 CA         46.2300  -12.8900   69.8400 C.3       6 GLY6        0.0000 
     95 CA         47.6600  -12.8000   69.3800 C.3       6 GLY6        0.0000 
     96 CA         48.4800  -15.3200   71.4300 C.3       6 GLY6        0.0000 
     97 CA         46.8500  -13.9700   71.5500 C.3       6 GLY6        0.0000 
     98 CA         48.0700  -12.4200   70.7700 C.3       6 GLY6        0.0000 
     99 DU         50.2400  -20.5300   60.9700 H         7 CUB7        0.0000 
    100 DU         49.6300  -16.1800   59.9900 H         7 CUB7        0.0000 
    101 DU         49.4300  -14.7300   59.6700 H         7 CUB7        0.0000 
    102 DU         50.8600  -14.6300   59.2200 H         7 CUB7        0.0000 
    103 DU         47.4400  -14.6200   68.3200 H         7 CUB7        0.0000 
    104 DU         48.8700  -14.5200   67.8600 H         7 CUB7        0.0000 
    105 DU         49.4900  -15.6000   69.5800 H         7 CUB7        0.0000 
    106 DU         47.8600  -14.2500   69.7100 H         7 CUB7        0.0000 
    107 DU         49.2800  -14.1500   69.2500 H         7 CUB7        0.0000 
    108 DU         50.7100  -14.0500   68.8000 H         7 CUB7        0.0000 
    109 DU         48.2800  -13.8700   71.1000 H         7 CUB7        0.0000 
    110 DU         49.5000  -12.3300   70.3200 H         7 CUB7        0.0000 
@<TRIPOS>BOND
@<TRIPOS>SUBSTRUCTURE
     1 SER1        1 GROUP   
     2 ALA2       23 GROUP   
     3 ASP3       39 GROUP   
     4 LYS4       50 GROUP   
     5 PHE5       58 GROUP   
     6 GLY6       70 GROUP   
     7 CUB7       99 GROUP   
@<TRIPOS>SET

