#    Name: 6hh3_1_A1R
#    Modification time : Fri May 22 19:38:26 2020

@<TRIPOS>MOLECULE
6hh3_1_A1R
   35    38     1     0     0
SMALL
NO_CHARGES


@<TRIPOS>ATOM
      1 N1        -11.5720   -7.9720   -1.3860 N.ar      1 A1R403      0.0000 
      2 C2        -10.2350   -8.0540   -1.4160 C.ar      1 A1R403      0.0000 
      3 N3         -9.4760   -7.2650   -2.1930 N.ar      1 A1R403      0.0000 
      4 C4        -10.0200   -6.3210   -2.9880 C.ar      1 A1R403      0.0000 
      5 C5        -11.4630   -6.1600   -3.0050 C.ar      1 A1R403      0.0000 
      6 C6        -12.2380   -7.0700   -2.1450 C.ar      1 A1R403      0.0000 
      7 N6        -13.5770   -6.9970   -2.1060 N.pl3     1 A1R403      0.0000 
      8 N7        -11.7250   -5.1590   -3.8460 N.2       1 A1R403      0.0000 
      9 C8        -10.5300   -4.7360   -4.3530 C.2       1 A1R403      0.0000 
     10 N9         -9.5260   -5.4380   -3.8250 N.pl3     1 A1R403      0.0000 
     11 C1'        -8.0810   -5.2600   -4.0550 C.3       1 A1R403      0.0000 
     12 C2'        -7.4980   -6.3740   -4.9020 C.3       1 A1R403      0.0000 
     13 O2'        -6.1610   -6.5700   -4.4320 O.3       1 A1R403      0.0000 
     14 C3'        -7.5570   -5.7860   -6.3020 C.3       1 A1R403      0.0000 
     15 O3'        -6.6500   -6.4000   -7.2310 O.3       1 A1R403      0.0000 
     16 O4'        -7.8570   -4.0570   -4.7570 O.3       1 A1R403      0.0000 
     17 C4'        -7.2310   -4.3540   -6.0050 C.3       1 A1R403      0.0000 
     18 C5'        -7.6820   -3.4100   -7.1020 C.3       1 A1R403      0.0000 
     19 O5'        -9.0600   -3.5400   -7.3370 O.3       1 A1R403      0.0000 
     20 PA         -9.6380   -3.7360   -8.8040 P.3       1 A1R403      0.0000 
     21 O1A       -11.1320   -3.6460   -8.7740 O.co2     1 A1R403      0.0000 
     22 O2A        -8.8630   -4.8320   -9.5040 O.co2     1 A1R403      0.0000 
     23 O3A        -8.9060   -2.5050   -9.5630 O.3       1 A1R403      0.0000 
     24 PB         -9.2330   -0.9530   -9.5870 P.3       1 A1R403      0.0000 
     25 O1B        -9.9230   -0.4610   -8.3430 O.co2     1 A1R403      0.0000 
     26 O2B        -9.6860   -0.4650  -10.9580 O.co2     1 A1R403      0.0000 
     27 O5N        -7.7760   -0.4430   -9.3470 O.3       1 A1R403      0.0000 
     28 C5N        -7.5190    0.8920   -9.6480 C.3       1 A1R403      0.0000 
     29 N4N        -5.2350    0.1790  -10.0480 N.4       1 A1R403      0.0000 
     30 C1N        -4.4000    0.9770  -10.9280 C.3       1 A1R403      0.0000 
     31 O2N        -4.1950    3.3690  -11.0420 O.3       1 A1R403      0.0000 
     32 C2N        -5.0770    2.3120  -10.7700 C.3       1 A1R403      0.0000 
     33 O3N        -4.6260    2.4730   -8.2660 O.3       1 A1R403      0.0000 
     34 C3N        -5.6060    2.3430   -9.3290 C.3       1 A1R403      0.0000 
     35 C4N        -6.0970    0.9590   -9.1730 C.3       1 A1R403      0.0000 
@<TRIPOS>BOND
     1    1    2 ar   
     2    1    6 ar   
     3    2    3 ar   
     4    3    4 ar   
     5    4    5 ar   
     6    4   10 1    
     7    5    6 ar   
     8    5    8 1    
     9    6    7 1    
    10    8    9 2    
    11    9   10 1    
    12   10   11 1    
    13   11   12 1    
    14   11   16 1    
    15   12   13 1    
    16   12   14 1    
    17   14   15 1    
    18   14   17 1    
    19   16   17 1    
    20   17   18 1    
    21   18   19 1    
    22   19   20 1    
    23   20   21 ar   
    24   20   22 ar   
    25   20   23 1    
    26   23   24 1    
    27   24   25 ar   
    28   24   26 ar   
    29   24   27 1    
    30   27   28 1    
    31   28   35 1    
    32   29   30 1    
    33   29   35 1    
    34   30   32 1    
    35   31   32 1    
    36   32   34 1    
    37   33   34 1    
    38   34   35 1    
@<TRIPOS>SUBSTRUCTURE
     1 A1R403      1 GROUP   
@<TRIPOS>SET

