#    Name: 6hh3_2_A1R
#    Modification time : Fri May 22 19:38:32 2020

@<TRIPOS>MOLECULE
6hh3_2_A1R
   35    38     1     0     0
SMALL
NO_CHARGES


@<TRIPOS>ATOM
      1 N1         17.1990    8.3800   -3.5810 N.ar      1 A1R403      0.0000 
      2 C2         15.8500    8.5210   -3.6790 C.ar      1 A1R403      0.0000 
      3 N3         15.0700    7.6500   -4.3400 N.ar      1 A1R403      0.0000 
      4 C4         15.6310    6.5610   -4.9320 C.ar      1 A1R403      0.0000 
      5 C5         17.0850    6.3480   -4.8570 C.ar      1 A1R403      0.0000 
      6 C6         17.8680    7.3450   -4.1220 C.ar      1 A1R403      0.0000 
      7 N6         19.1990    7.1670   -4.0340 N.pl3     1 A1R403      0.0000 
      8 N7         17.3860    5.2130   -5.5070 N.2       1 A1R403      0.0000 
      9 C8         16.2320    4.7300   -5.9920 C.2       1 A1R403      0.0000 
     10 N9         15.1890    5.5370   -5.6420 N.pl3     1 A1R403      0.0000 
     11 C1'        13.7870    5.3160   -6.0030 C.3       1 A1R403      0.0000 
     12 C2'        13.3740    6.3250   -7.0630 C.3       1 A1R403      0.0000 
     13 O2'        12.0080    6.6840   -6.8770 O.3       1 A1R403      0.0000 
     14 C3'        13.5280    5.5950   -8.3740 C.3       1 A1R403      0.0000 
     15 O3'        12.6810    6.1240   -9.4290 O.3       1 A1R403      0.0000 
     16 O4'        13.7050    4.0370   -6.6000 O.3       1 A1R403      0.0000 
     17 C4'        13.1840    4.1810   -7.9230 C.3       1 A1R403      0.0000 
     18 C5'        13.7160    3.0690   -8.8240 C.3       1 A1R403      0.0000 
     19 O5'        15.0790    3.2840   -9.1430 O.3       1 A1R403      0.0000 
     20 PA         15.5270    3.2990  -10.6730 P.3       1 A1R403      0.0000 
     21 O1A        17.0210    3.2220  -10.7000 O.co2     1 A1R403      0.0000 
     22 O2A        14.8000    4.4150  -11.3730 O.co2     1 A1R403      0.0000 
     23 O3A        14.8410    2.0170  -11.3540 O.3       1 A1R403      0.0000 
     24 PB         15.2320    0.4700  -11.1110 P.3       1 A1R403      0.0000 
     25 O1B        15.9270    0.2380   -9.7790 O.co2     1 A1R403      0.0000 
     26 O2B        15.6930    0.0180  -12.4810 O.co2     1 A1R403      0.0000 
     27 O5N        13.7740   -0.0860  -10.9990 O.3       1 A1R403      0.0000 
     28 C5N        13.5080   -1.4470  -10.9550 C.3       1 A1R403      0.0000 
     29 N4N        11.2360   -0.5980  -11.2780 N.4       1 A1R403      0.0000 
     30 C1N        10.4780   -1.3240  -12.2810 C.3       1 A1R403      0.0000 
     31 O2N        10.0130   -3.7050  -12.4530 O.3       1 A1R403      0.0000 
     32 C2N        10.9950   -2.7180  -12.0540 C.3       1 A1R403      0.0000 
     33 O3N        10.2820   -2.5470   -9.6840 O.3       1 A1R403      0.0000 
     34 C3N        11.4050   -2.6980  -10.5610 C.3       1 A1R403      0.0000 
     35 C4N        12.0860   -1.3950  -10.4260 C.3       1 A1R403      0.0000 
@<TRIPOS>BOND
     1    1    2 ar   
     2    1    6 ar   
     3    2    3 ar   
     4    3    4 ar   
     5    4    5 ar   
     6    4   10 1    
     7    5    6 ar   
     8    5    8 1    
     9    6    7 1    
    10    8    9 2    
    11    9   10 1    
    12   10   11 1    
    13   11   12 1    
    14   11   16 1    
    15   12   13 1    
    16   12   14 1    
    17   14   15 1    
    18   14   17 1    
    19   16   17 1    
    20   17   18 1    
    21   18   19 1    
    22   19   20 1    
    23   20   21 ar   
    24   20   22 ar   
    25   20   23 1    
    26   23   24 1    
    27   24   25 ar   
    28   24   26 ar   
    29   24   27 1    
    30   27   28 1    
    31   28   35 1    
    32   29   30 1    
    33   29   35 1    
    34   30   32 1    
    35   31   32 1    
    36   32   34 1    
    37   33   34 1    
    38   34   35 1    
@<TRIPOS>SUBSTRUCTURE
     1 A1R403      1 GROUP   
@<TRIPOS>SET

