#    Name: 5zdb_2_AR6
#    Modification time : Fri May 22 19:26:07 2020

@<TRIPOS>MOLECULE
5zdb_2_AR6
   36    39     1     0     0
SMALL
NO_CHARGES


@<TRIPOS>ATOM
      1 N1          8.8330  -40.5040   32.5140 N.ar      1 AR6301      0.0000 
      2 C2          9.3320  -40.3690   31.2600 C.ar      1 AR6301      0.0000 
      3 N3          8.7620  -39.5070   30.3880 N.ar      1 AR6301      0.0000 
      4 C4          7.6830  -38.7980   30.7780 C.ar      1 AR6301      0.0000 
      5 C5          7.1840  -38.9290   32.0130 C.ar      1 AR6301      0.0000 
      6 C6          7.7820  -39.8000   32.8920 C.ar      1 AR6301      0.0000 
      7 N6          7.5260  -40.1930   34.2700 N.pl3     1 AR6301      0.0000 
      8 N7          6.1230  -38.1090   32.1470 N.2       1 AR6301      0.0000 
      9 C8          5.9620  -37.4740   30.9790 C.2       1 AR6301      0.0000 
     10 N9          6.9280  -37.8970   30.1320 N.pl3     1 AR6301      0.0000 
     11 PA          7.0570  -32.8320   30.9440 P.3       1 AR6301      0.0000 
     12 PB          8.5540  -30.4100   30.2550 P.3       1 AR6301      0.0000 
     13 C1'         7.0840  -37.4890   28.7800 C.3       1 AR6301      0.0000 
     14 O1A         5.8840  -32.1050   30.3420 O.co2     1 AR6301      0.0000 
     15 O1B         7.9170  -30.3340   28.8890 O.co2     1 AR6301      0.0000 
     16 C1D         6.5450  -29.8160   35.0520 C.3       1 AR6301      0.0000 
     17 O1D         5.5370  -29.3580   35.6590 O.3       1 AR6301      0.0000 
     18 C2'         5.9150  -37.1140   28.2260 C.3       1 AR6301      0.0000 
     19 O2'         5.8970  -37.5230   26.8050 O.3       1 AR6301      0.0000 
     20 O2A         6.8720  -33.1760   32.4120 O.co2     1 AR6301      0.0000 
     21 O2B        10.0370  -30.1110   30.2510 O.co2     1 AR6301      0.0000 
     22 C2D         7.8360  -29.1340   35.5300 C.3       1 AR6301      0.0000 
     23 O2D         7.7460  -28.7850   36.9560 O.3       1 AR6301      0.0000 
     24 C3'         5.9160  -35.5690   28.2670 C.3       1 AR6301      0.0000 
     25 O3'         5.1600  -35.0580   27.2870 O.3       1 AR6301      0.0000 
     26 O3A         8.4410  -31.9490   30.8260 O.3       1 AR6301      0.0000 
     27 C3D         7.9350  -28.0230   34.7870 C.3       1 AR6301      0.0000 
     28 O3D         7.2050  -26.9050   35.3230 O.3       1 AR6301      0.0000 
     29 C4'         7.4530  -35.2410   28.0430 C.3       1 AR6301      0.0000 
     30 O4'         8.0930  -36.2140   28.6370 O.3       1 AR6301      0.0000 
     31 C4D         7.3210  -28.4590   33.3480 C.3       1 AR6301      0.0000 
     32 O4D         6.4180  -29.3830   33.5440 O.3       1 AR6301      0.0000 
     33 C5'         7.8620  -33.9690   28.7730 C.3       1 AR6301      0.0000 
     34 O5'         7.3730  -34.1750   30.0680 O.3       1 AR6301      0.0000 
     35 C5D         8.4270  -29.0230   32.4850 C.3       1 AR6301      0.0000 
     36 O5D         7.7780  -29.3680   31.2740 O.3       1 AR6301      0.0000 
@<TRIPOS>BOND
     1    1    2 ar   
     2    1    6 ar   
     3    2    3 ar   
     4    3    4 ar   
     5    4    5 ar   
     6    4   10 1    
     7    5    6 ar   
     8    5    8 1    
     9    6    7 1    
    10    8    9 2    
    11    9   10 1    
    12   10   13 1    
    13   11   14 ar   
    14   11   20 ar   
    15   11   26 1    
    16   11   34 1    
    17   12   15 ar   
    18   12   21 ar   
    19   12   26 1    
    20   12   36 1    
    21   13   18 1    
    22   13   30 1    
    23   16   17 1    
    24   16   22 1    
    25   16   32 1    
    26   18   19 1    
    27   18   24 1    
    28   22   23 1    
    29   22   27 1    
    30   24   25 1    
    31   24   29 1    
    32   27   28 1    
    33   27   31 1    
    34   29   30 1    
    35   29   33 1    
    36   31   32 1    
    37   31   35 1    
    38   33   34 1    
    39   35   36 1    
@<TRIPOS>SUBSTRUCTURE
     1 AR6301      1 GROUP   
@<TRIPOS>SET

