#    Name: 5zdb_1_AR6
#    Modification time : Fri May 22 19:26:02 2020

@<TRIPOS>MOLECULE
5zdb_1_AR6
   36    39     1     0     0
SMALL
NO_CHARGES


@<TRIPOS>ATOM
      1 N1          7.6880  -11.4650    2.9200 N.ar      1 AR6301      0.0000 
      2 C2          7.3550  -11.5660    1.5960 C.ar      1 AR6301      0.0000 
      3 N3          8.0920  -12.3590    0.7710 N.ar      1 AR6301      0.0000 
      4 C4          9.1410  -13.0450    1.2850 C.ar      1 AR6301      0.0000 
      5 C5          9.4580  -12.9410    2.5820 C.ar      1 AR6301      0.0000 
      6 C6          8.7150  -12.1410    3.4160 C.ar      1 AR6301      0.0000 
      7 N6          8.7900  -11.8090    4.8330 N.pl3     1 AR6301      0.0000 
      8 N7         10.5370  -13.7050    2.8250 N.2       1 AR6301      0.0000 
      9 C8         10.8800  -14.2830    1.6770 C.2       1 AR6301      0.0000 
     10 N9         10.0330  -13.8760    0.7220 N.pl3     1 AR6301      0.0000 
     11 PA          9.9470  -18.9550    1.3700 P.3       1 AR6301      0.0000 
     12 PB          8.6430  -21.4200    0.4550 P.3       1 AR6301      0.0000 
     13 C1'        10.1010  -14.2450   -0.6480 C.3       1 AR6301      0.0000 
     14 O1A        11.2130  -19.6090    0.8670 O.co2     1 AR6301      0.0000 
     15 O1B         9.4450  -21.5170   -0.8200 O.co2     1 AR6301      0.0000 
     16 C1D        10.0990  -21.9710    5.5660 C.3       1 AR6301      0.0000 
     17 O1D        11.0570  -22.4870    6.2080 O.3       1 AR6301      0.0000 
     18 C2'        11.3430  -14.6030   -1.0750 C.3       1 AR6301      0.0000 
     19 O2'        11.5280  -14.2160   -2.4930 O.3       1 AR6301      0.0000 
     20 O2A         9.9200  -18.6220    2.8520 O.co2     1 AR6301      0.0000 
     21 O2B         7.1970  -21.7900    0.3450 O.co2     1 AR6301      0.0000 
     22 C2D         8.7800  -22.6870    5.8770 C.3       1 AR6301      0.0000 
     23 O2D         8.7390  -23.0720    7.2890 O.3       1 AR6301      0.0000 
     24 C3'        11.3150  -16.1350   -1.0680 C.3       1 AR6301      0.0000 
     25 O3'        12.1610  -16.6160   -1.9800 O.3       1 AR6301      0.0000 
     26 O3A         8.6320  -19.8960    1.0730 O.3       1 AR6301      0.0000 
     27 C3D         8.7540  -23.7630    5.0720 C.3       1 AR6301      0.0000 
     28 O3D         9.4370  -24.9240    5.5910 O.3       1 AR6301      0.0000 
     29 C4'         9.8280  -16.4380   -1.5190 C.3       1 AR6301      0.0000 
     30 O4'         9.1150  -15.5050   -0.9320 O.3       1 AR6301      0.0000 
     31 C4D         9.5080  -23.2340    3.7260 C.3       1 AR6301      0.0000 
     32 O4D        10.3440  -22.2700    4.0380 O.3       1 AR6301      0.0000 
     33 C5'         9.4440  -17.7650   -0.8850 C.3       1 AR6301      0.0000 
     34 O5'         9.6670  -17.5990    0.4960 O.3       1 AR6301      0.0000 
     35 C5D         8.4890  -22.7120    2.7310 C.3       1 AR6301      0.0000 
     36 O5D         9.2660  -22.4600    1.5920 O.3       1 AR6301      0.0000 
@<TRIPOS>BOND
     1    1    2 ar   
     2    1    6 ar   
     3    2    3 ar   
     4    3    4 ar   
     5    4    5 ar   
     6    4   10 1    
     7    5    6 ar   
     8    5    8 1    
     9    6    7 1    
    10    8    9 2    
    11    9   10 1    
    12   10   13 1    
    13   11   14 ar   
    14   11   20 ar   
    15   11   26 1    
    16   11   34 1    
    17   12   15 ar   
    18   12   21 ar   
    19   12   26 1    
    20   12   36 1    
    21   13   18 1    
    22   13   30 1    
    23   16   17 1    
    24   16   22 1    
    25   16   32 1    
    26   18   19 1    
    27   18   24 1    
    28   22   23 1    
    29   22   27 1    
    30   24   25 1    
    31   24   29 1    
    32   27   28 1    
    33   27   31 1    
    34   29   30 1    
    35   29   33 1    
    36   31   32 1    
    37   31   35 1    
    38   33   34 1    
    39   35   36 1    
@<TRIPOS>SUBSTRUCTURE
     1 AR6301      1 GROUP   
@<TRIPOS>SET

