#    Name: 6edk_1_1YA_CAVITY_N1_4
#    Modification time : Fri May 22 19:29:46 2020

@<TRIPOS>MOLECULE
6edk_1_1YA_CAVITY_N1_4
   84     0     5     0     0
SMALL
NO_CHARGES


@<TRIPOS>ATOM
      1 OG         28.6300   14.2100    8.0400 O.3       1 SER1        0.0000 
      2 OG         24.9800   22.6700   11.4800 O.3       1 SER1        0.0000 
      3 OG         23.8600   23.3000   10.7100 O.3       1 SER1        0.0000 
      4 OG         24.3300   24.6600   11.1400 O.3       1 SER1        0.0000 
      5 O          26.8700   14.0600   10.4600 O.2       2 ALA2        0.0000 
      6 N          26.6300   14.7600    8.4700 N.am      2 ALA2        0.0000 
      7 N          27.5100   14.8400    7.2600 N.am      2 ALA2        0.0000 
      8 N          28.4600   14.7800   11.6600 N.am      2 ALA2        0.0000 
      9 N          30.2200   14.9400    9.2400 N.am      2 ALA2        0.0000 
     10 N          29.1000   15.5700    8.4600 N.am      2 ALA2        0.0000 
     11 N          27.1000   16.1200    8.9000 N.am      2 ALA2        0.0000 
     12 N          27.9800   16.2000    7.6900 N.am      2 ALA2        0.0000 
     13 N          28.8600   16.2700    6.4800 N.am      2 ALA2        0.0000 
     14 O          29.5700   16.9300    8.8900 O.2       2 ALA2        0.0000 
     15 N          30.4500   17.0000    7.6800 N.am      2 ALA2        0.0000 
     16 N          28.4500   17.5600    8.1200 N.am      2 ALA2        0.0000 
     17 N          29.3300   17.6300    6.9100 N.am      2 ALA2        0.0000 
     18 N          26.4500   18.1100    8.5500 N.am      2 ALA2        0.0000 
     19 N          27.3300   18.1900    7.3400 N.am      2 ALA2        0.0000 
     20 N          26.2100   18.8200    6.5700 N.am      2 ALA2        0.0000 
     21 N          29.8000   18.9900    7.3300 N.am      2 ALA2        0.0000 
     22 N          27.8000   19.5500    7.7700 N.am      2 ALA2        0.0000 
     23 N          28.6800   19.6200    6.5600 N.am      2 ALA2        0.0000 
     24 N          26.6800   20.1800    7.0000 N.am      2 ALA2        0.0000 
     25 N          27.5600   20.2500    5.7800 N.am      2 ALA2        0.0000 
     26 N          24.6800   20.7300    7.4300 N.am      2 ALA2        0.0000 
     27 N          25.5600   20.8100    6.2200 N.am      2 ALA2        0.0000 
     28 N          25.3200   21.5100    4.2400 N.am      2 ALA2        0.0000 
     29 O          26.3300   24.1000   10.7000 O.2       2 ALA2        0.0000 
     30 O          27.2100   24.1800    9.4900 O.2       2 ALA2        0.0000 
     31 O          23.2100   25.2900   10.3600 O.2       2 ALA2        0.0000 
     32 O          24.0900   25.3600    9.1500 O.2       2 ALA2        0.0000 
     33 NZ         29.8100   16.2200   10.8800 N.4       3 LYS4        0.0000 
     34 NZ         28.6900   16.8500   10.1000 N.4       3 LYS4        0.0000 
     35 NZ         28.0400   18.8400    9.7600 N.4       3 LYS4        0.0000 
     36 NZ         28.9200   18.9200    8.5400 N.4       3 LYS4        0.0000 
     37 CA         27.9900   13.4300   11.2300 C.3       4 GLY6        0.0000 
     38 CA         28.8700   13.5000   10.0200 C.3       4 GLY6        0.0000 
     39 CA         27.7500   14.1300    9.2500 C.3       4 GLY6        0.0000 
     40 CA         29.3400   14.8600   10.4500 C.3       4 GLY6        0.0000 
     41 CA         27.3400   15.4100   10.8900 C.3       4 GLY6        0.0000 
     42 CA         26.2200   16.0500   10.1100 C.3       4 GLY6        0.0000 
     43 CA         27.8100   16.7700   11.3100 C.3       4 GLY6        0.0000 
     44 CA         26.6900   17.4000   10.5400 C.3       4 GLY6        0.0000 
     45 CA         25.5700   18.0300    9.7700 C.3       4 GLY6        0.0000 
     46 CA         24.4500   18.6700    8.9900 C.3       4 GLY6        0.0000 
     47 CA         25.3300   18.7400    7.7800 C.3       4 GLY6        0.0000 
     48 CA         23.3300   19.3000    8.2200 C.3       4 GLY6        0.0000 
     49 CA         27.1600   18.7600   10.9700 C.3       4 GLY6        0.0000 
     50 CA         26.0400   19.3900   10.1900 C.3       4 GLY6        0.0000 
     51 CA         24.9200   20.0200    9.4200 C.3       4 GLY6        0.0000 
     52 CA         23.8000   20.6500    8.6400 C.3       4 GLY6        0.0000 
     53 CA         26.4400   20.8800    5.0100 C.3       4 GLY6        0.0000 
     54 CA         26.5100   20.7500   10.6200 C.3       4 GLY6        0.0000 
     55 CA         25.3900   21.3800    9.8500 C.3       4 GLY6        0.0000 
     56 CA         25.8600   22.7400   10.2700 C.3       4 GLY6        0.0000 
     57 CA         26.7400   22.8200    9.0600 C.3       4 GLY6        0.0000 
     58 CA         25.2100   24.7300    9.9300 C.3       4 GLY6        0.0000 
     59 CA         26.0900   24.8100    8.7100 C.3       4 GLY6        0.0000 
     60 CA         26.9700   24.8800    7.5000 C.3       4 GLY6        0.0000 
     61 CA         24.9700   25.4400    7.9400 C.3       4 GLY6        0.0000 
     62 CA         25.8500   25.5100    6.7300 C.3       4 GLY6        0.0000 
     63 CA         22.9700   25.9900    8.3800 C.3       4 GLY6        0.0000 
     64 DU         28.2200   15.4900    9.6800 H         5 CUB7        0.0000 
     65 DU         27.5700   17.4800    9.3300 H         5 CUB7        0.0000 
     66 DU         26.9200   19.4700    8.9800 H         5 CUB7        0.0000 
     67 DU         25.8000   20.1000    8.2100 H         5 CUB7        0.0000 
     68 DU         29.1500   20.9800    6.9900 H         5 CUB7        0.0000 
     69 DU         26.2700   21.4600    8.6300 H         5 CUB7        0.0000 
     70 DU         27.1500   21.5400    7.4200 H         5 CUB7        0.0000 
     71 DU         28.0300   21.6100    6.2100 H         5 CUB7        0.0000 
     72 DU         28.9100   21.6900    5.0000 H         5 CUB7        0.0000 
     73 DU         24.2700   22.0100    9.0700 H         5 CUB7        0.0000 
     74 DU         25.1500   22.0900    7.8600 H         5 CUB7        0.0000 
     75 DU         26.0300   22.1700    6.6500 H         5 CUB7        0.0000 
     76 DU         26.9100   22.2400    5.4400 H         5 CUB7        0.0000 
     77 DU         24.0300   22.7200    7.0900 H         5 CUB7        0.0000 
     78 DU         27.6200   22.8900    7.8500 H         5 CUB7        0.0000 
     79 DU         24.7400   23.3700    9.5000 H         5 CUB7        0.0000 
     80 DU         25.6200   23.4500    8.2900 H         5 CUB7        0.0000 
     81 DU         26.5000   23.5300    7.0800 H         5 CUB7        0.0000 
     82 DU         23.6200   24.0000    8.7200 H         5 CUB7        0.0000 
     83 DU         24.5000   24.0800    7.5100 H         5 CUB7        0.0000 
     84 DU         25.3800   24.1600    6.3000 H         5 CUB7        0.0000 
@<TRIPOS>BOND
@<TRIPOS>SUBSTRUCTURE
     1 SER1        1 GROUP   
     2 ALA2        5 GROUP   
     3 LYS4       33 GROUP   
     4 GLY6       37 GROUP   
     5 CUB7       64 GROUP   
@<TRIPOS>SET

