#    Name: 6edk_1_1YA
#    Modification time : Fri May 22 19:29:44 2020

@<TRIPOS>MOLECULE
6edk_1_1YA
   55    57     1     0     0
SMALL
NO_CHARGES


@<TRIPOS>ATOM
      1 N1         26.3380   14.2360   10.3480 N.2       1 1YA303      0.0000 
      2 C2         26.5980   13.8430   11.7500 C.2       1 1YA303      0.0000 
      3 NA2        25.6090   13.0830   12.4940 N.pl3     1 1YA303      0.0000 
      4 N3         27.8890   14.1620   12.4650 N.am      1 1YA303      0.0000 
      5 C4         28.9370   14.9520   11.8030 C.2       1 1YA303      0.0000 
      6 O4         29.9450   15.1890   12.4370 O.2       1 1YA303      0.0000 
      7 C4A        28.6640   15.3560   10.3940 C.2       1 1YA303      0.0000 
      8 N5         29.6440   16.0290    9.7060 N.3       1 1YA303      0.0000 
      9 C6         29.1200   16.8120    8.4730 C.3       1 1YA303      0.0000 
     10 C7         28.2530   16.1250    7.6700 C.3       1 1YA303      0.0000 
     11 N8         27.1110   15.3220    8.3800 N.pl3     1 1YA303      0.0000 
     12 C8A        27.3650   14.9670    9.6440 C.2       1 1YA303      0.0000 
     13 C9         28.4610   18.0750    9.0710 C.3       1 1YA303      0.0000 
     14 N10        28.0010   19.0270    8.0410 N.am      1 1YA303      0.0000 
     15 C11        24.2710   20.9490    8.6020 C.ar      1 1YA303      0.0000 
     16 C12        24.4520   20.1710    7.4720 C.ar      1 1YA303      0.0000 
     17 C13        25.6670   19.5200    7.2850 C.ar      1 1YA303      0.0000 
     18 C14        26.6730   19.6830    8.2210 C.ar      1 1YA303      0.0000 
     19 C15        26.4890   20.4720    9.3410 C.ar      1 1YA303      0.0000 
     20 C16        25.2760   21.1120    9.5310 C.ar      1 1YA303      0.0000 
     21 C17        22.9410   21.7080    8.8440 C.2       1 1YA303      0.0000 
     22 N          23.1200   23.1260    9.2450 N.am      1 1YA303      0.0000 
     23 CA         21.9980   24.0590    9.5240 C.3       1 1YA303      0.0000 
     24 CB         21.2600   23.6290   10.8170 C.3       1 1YA303      0.0000 
     25 CG         22.1150   22.7280   11.7230 C.3       1 1YA303      0.0000 
     26 CD         21.5470   22.6260   13.1510 C.2       1 1YA303      0.0000 
     27 OE1        22.2340   22.1040   14.0720 O.co2     1 1YA303      0.0000 
     28 OE2        20.3940   23.0650   13.3990 O.co2     1 1YA303      0.0000 
     29 CT         22.5630   25.4990    9.6380 C.2       1 1YA303      0.0000 
     30 O2         23.8060   25.7380    9.5590 O.co2     1 1YA303      0.0000 
     31 O1         21.7830   26.4670    9.8080 O.co2     1 1YA303      0.0000 
     32 C18        28.8140   19.4100    6.8960 C.2       1 1YA303      0.0000 
     33 O5         29.8830   18.9270    6.7260 O.2       1 1YA303      0.0000 
     34 O          21.8940   21.1880    8.6910 O.2       1 1YA303      0.0000 
     35 H1         24.8600   12.8750   12.1260 H         1 1YA303      0.0000 
     36 H2         25.7720   12.8400   13.3030 H         1 1YA303      0.0000 
     37 H3         28.0130   13.8790   13.2670 H         1 1YA303      0.0000 
     38 H5         30.4730   16.0170    9.9370 H         1 1YA303      0.0000 
     39 H7         29.8480   17.0440    7.8760 H         1 1YA303      0.0000 
     40 H8         28.7730   15.4960    7.1460 H         1 1YA303      0.0000 
     41 H9         27.8340   16.7660    7.0740 H         1 1YA303      0.0000 
     42 H10        29.1080   18.5220    9.6390 H         1 1YA303      0.0000 
     43 H11        27.6990   17.8030    9.6060 H         1 1YA303      0.0000 
     44 H12        23.7700   20.0830    6.8460 H         1 1YA303      0.0000 
     45 H13        25.8020   18.9830    6.5390 H         1 1YA303      0.0000 
     46 H14        27.1740   20.5710    9.9620 H         1 1YA303      0.0000 
     47 H15        25.1410   21.6470   10.2780 H         1 1YA303      0.0000 
     48 H16        23.9300   23.4290    9.3210 H         1 1YA303      0.0000 
     49 H17        21.3880   24.0190    8.8110 H         1 1YA303      0.0000 
     50 H18        21.0120   24.4250   11.3140 H         1 1YA303      0.0000 
     51 H19        20.4540   23.1490   10.5710 H         1 1YA303      0.0000 
     52 H20        23.0130   23.0900   11.7680 H         1 1YA303      0.0000 
     53 H21        22.1530   21.8400   11.3360 H         1 1YA303      0.0000 
     54 H24        28.4910   20.0400    6.2930 H         1 1YA303      0.0000 
     55 H4         26.3730   15.1230    7.9850 H         1 1YA303      0.0000 
@<TRIPOS>BOND
     1    1    2 2    
     2    1   12 1    
     3    2    3 1    
     4    2    4 1    
     5    4    5 am   
     6    3   35 1    
     7    3   36 1    
     8    5    6 2    
     9    4   37 1    
    10    5    7 1    
    11    7    8 1    
    12    7   12 2    
    13    8    9 1    
    14    9   10 1    
    15    8   38 1    
    16    9   13 1    
    17    9   39 1    
    18   10   11 1    
    19   10   40 1    
    20   10   41 1    
    21   11   12 1    
    22   13   14 1    
    23   11   55 1    
    24   13   42 1    
    25   13   43 1    
    26   14   18 1    
    27   14   32 am   
    28   15   16 ar   
    29   15   20 ar   
    30   15   21 1    
    31   16   17 ar   
    32   17   18 ar   
    33   16   44 1    
    34   18   19 ar   
    35   17   45 1    
    36   19   20 ar   
    37   21   22 am   
    38   19   46 1    
    39   20   47 1    
    40   21   34 2    
    41   22   23 1    
    42   23   24 1    
    43   22   48 1    
    44   23   29 1    
    45   24   25 1    
    46   23   49 1    
    47   24   50 1    
    48   24   51 1    
    49   25   26 1    
    50   25   52 1    
    51   25   53 1    
    52   26   27 ar   
    53   26   28 ar   
    54   29   30 ar   
    55   29   31 ar   
    56   32   33 2    
    57   32   54 1    
@<TRIPOS>SUBSTRUCTURE
     1 1YA303      1 GROUP   
@<TRIPOS>SET

