#    Name: 6mtu_2_PRO_HIS_THR_ASN_GLU_THR_LEU_SEP
#    Modification time : Fri May 22 19:30:35 2020

@<TRIPOS>MOLECULE
6mtu_2_PRO_HIS_THR_ASN_GLU_THR_LEU_SEP
  122   123     8     0     0
SMALL
NO_CHARGES


@<TRIPOS>ATOM
      1 N          30.6870  -13.3410   22.6840 N.am      1 PRO822      0.0000 
      2 CA         29.5560  -12.8870   21.8680 C.3       1 PRO822      0.0000 
      3 C          28.3640  -13.8360   21.8890 C.2       1 PRO822      0.0000 
      4 O          28.4070  -14.8650   22.5590 O.2       1 PRO822      0.0000 
      5 CB         30.1670  -12.7940   20.4710 C.3       1 PRO822      0.0000 
      6 CG         31.5820  -12.3620   20.7420 C.3       1 PRO822      0.0000 
      7 CD         31.9820  -13.0050   22.0600 C.3       1 PRO822      0.0000 
      8 HA         29.2540  -12.0110   22.1570 H         1 PRO822      0.0000 
      9 HB2        30.1400  -13.6590   20.0330 H         1 PRO822      0.0000 
     10 HB3        29.6930  -12.1370   19.9380 H         1 PRO822      0.0000 
     11 HG2        32.1590  -12.6670   20.0250 H         1 PRO822      0.0000 
     12 HG3        31.6190  -11.3950   20.8090 H         1 PRO822      0.0000 
     13 HD2        32.5090  -13.8050   21.9070 H         1 PRO822      0.0000 
     14 HD3        32.4790  -12.3810   22.6120 H         1 PRO822      0.0000 
     15 N          27.3230  -13.4880   21.1370 N.am      2 HIS823      0.0000 
     16 CA         25.9940  -14.0680   21.3180 C.3       2 HIS823      0.0000 
     17 C          25.8990  -15.4080   20.5990 C.2       2 HIS823      0.0000 
     18 O          25.7220  -15.4670   19.3800 O.2       2 HIS823      0.0000 
     19 CB         24.9310  -13.0950   20.8120 C.3       2 HIS823      0.0000 
     20 CG         25.2620  -11.6550   21.0610 C.2       2 HIS823      0.0000 
     21 ND1        25.2070  -10.6950   20.0720 N.pl3     2 HIS823      0.0000 
     22 CD2        25.6570  -11.0110   22.1850 C.2       2 HIS823      0.0000 
     23 CE1        25.5520   -9.5240   20.5770 C.2       2 HIS823      0.0000 
     24 NE2        25.8290   -9.6880   21.8580 N.2       2 HIS823      0.0000 
     25 H          27.3610  -12.9080   20.5030 H         2 HIS823      0.0000 
     26 HA         25.8550  -14.2400   22.2630 H         2 HIS823      0.0000 
     27 HB2        24.8310  -13.2150   19.8540 H         2 HIS823      0.0000 
     28 HB3        24.0930  -13.2880   21.2600 H         2 HIS823      0.0000 
     29 HD2        25.7870  -11.3940   23.0230 H         2 HIS823      0.0000 
     30 HE1        25.5920   -8.7210   20.1090 H         2 HIS823      0.0000 
     31 HE2        26.0770   -9.0680   22.3990 H         2 HIS823      0.0000 
     32 N          26.0100  -16.4950   21.3640 N.am      3 THR824      0.0000 
     33 CA         25.7330  -17.8460   20.8800 C.3       3 THR824      0.0000 
     34 C          24.5970  -18.4170   21.7200 C.2       3 THR824      0.0000 
     35 O          24.7690  -18.6570   22.9200 O.2       3 THR824      0.0000 
     36 CB         26.9650  -18.7420   20.9640 C.3       3 THR824      0.0000 
     37 OG1        27.9280  -18.3350   19.9860 O.3       3 THR824      0.0000 
     38 CG2        26.5780  -20.1970   20.7210 C.3       3 THR824      0.0000 
     39 H          26.2500  -16.4700   22.1900 H         3 THR824      0.0000 
     40 HA         25.4570  -17.8000   19.9510 H         3 THR824      0.0000 
     41 HB         27.3580  -18.6720   21.8480 H         3 THR824      0.0000 
     42 HG1        28.1470  -17.5340   20.1150 H         3 THR824      0.0000 
     43 HG21       27.3620  -20.7110   20.4700 H         3 THR824      0.0000 
     44 HG22       26.1970  -20.5780   21.5270 H         3 THR824      0.0000 
     45 HG23       25.9240  -20.2520   20.0070 H         3 THR824      0.0000 
     46 N          23.4480  -18.6440   21.0890 N.am      4 ASN825      0.0000 
     47 CA         22.2450  -19.0940   21.7720 C.3       4 ASN825      0.0000 
     48 C          21.9840  -20.5670   21.4870 C.2       4 ASN825      0.0000 
     49 O          22.2880  -21.0730   20.4030 O.2       4 ASN825      0.0000 
     50 CB         21.0270  -18.2720   21.3380 C.3       4 ASN825      0.0000 
     51 CG         20.8560  -17.0070   22.1510 C.2       4 ASN825      0.0000 
     52 OD1        20.8940  -17.0350   23.3800 O.2       4 ASN825      0.0000 
     53 ND2        20.6640  -15.8860   21.4670 N.am      4 ASN825      0.0000 
     54 H          23.3420  -18.5390   20.2420 H         4 ASN825      0.0000 
     55 HA         22.3700  -18.9900   22.7280 H         4 ASN825      0.0000 
     56 HB2        21.1310  -18.0190   20.4080 H         4 ASN825      0.0000 
     57 HB3        20.2270  -18.8100   21.4480 H         4 ASN825      0.0000 
     58 HD21       20.5610  -15.1400   21.8830 H         4 ASN825      0.0000 
     59 HD22       20.6430  -15.9050   20.6070 H         4 ASN825      0.0000 
     60 N          21.3980  -21.2470   22.4700 N.am      5 GLU826      0.0000 
     61 CA         21.0610  -22.6580   22.3250 C.3       5 GLU826      0.0000 
     62 C          20.0440  -23.0130   23.3970 C.2       5 GLU826      0.0000 
     63 O          20.2250  -22.6560   24.5650 O.2       5 GLU826      0.0000 
     64 CB         22.3110  -23.5350   22.4440 C.3       5 GLU826      0.0000 
     65 CG         22.1910  -24.8970   21.7780 C.3       5 GLU826      0.0000 
     66 CD         23.5450  -25.5170   21.4870 C.2       5 GLU826      0.0000 
     67 OE1        24.3390  -24.8930   20.7510 O.co2     5 GLU826      0.0000 
     68 OE2        23.8200  -26.6210   22.0020 O.co2     5 GLU826      0.0000 
     69 H          21.1860  -20.9120   23.2330 H         5 GLU826      0.0000 
     70 HA         20.6630  -22.8210   21.4560 H         5 GLU826      0.0000 
     71 HB2        23.0550  -23.0710   22.0290 H         5 GLU826      0.0000 
     72 HB3        22.4960  -23.6840   23.3850 H         5 GLU826      0.0000 
     73 HG2        21.7050  -25.4970   22.3660 H         5 GLU826      0.0000 
     74 HG3        21.7170  -24.8000   20.9380 H         5 GLU826      0.0000 
     75 N          18.9830  -23.7060   22.9990 N.am      6 THR827      0.0000 
     76 CA         17.9040  -24.0350   23.9190 C.3       6 THR827      0.0000 
     77 C          17.3160  -25.4120   23.6370 C.2       6 THR827      0.0000 
     78 O          16.8160  -25.6660   22.5440 O.2       6 THR827      0.0000 
     79 CB         16.7780  -22.9860   23.8350 C.3       6 THR827      0.0000 
     80 OG1        17.3310  -21.6760   24.0100 O.3       6 THR827      0.0000 
     81 CG2        15.7220  -23.2390   24.8960 C.3       6 THR827      0.0000 
     82 H          18.8650  -23.9970   22.1980 H         6 THR827      0.0000 
     83 HA         18.2560  -24.0520   24.8220 H         6 THR827      0.0000 
     84 HB         16.3490  -23.0430   22.9670 H         6 THR827      0.0000 
     85 HG1        17.7410  -21.6320   24.7430 H         6 THR827      0.0000 
     86 HG21       15.1370  -22.4690   24.9720 H         6 THR827      0.0000 
     87 HG22       15.1910  -24.0150   24.6580 H         6 THR827      0.0000 
     88 HG23       16.1450  -23.3980   25.7540 H         6 THR827      0.0000 
     89 N          14.5120  -28.3500   23.8360 N.am      7 LEU829      0.0000 
     90 CA         13.0630  -28.2510   23.6930 C.3       7 LEU829      0.0000 
     91 C          12.4080  -29.6240   23.7560 C.2       7 LEU829      0.0000 
     92 O          13.0580  -30.6520   23.5670 O.2       7 LEU829      0.0000 
     93 CB         12.7030  -27.5600   22.3760 C.3       7 LEU829      0.0000 
     94 CG         12.9810  -26.0580   22.3020 C.3       7 LEU829      0.0000 
     95 CD1        13.1120  -25.6090   20.8580 C.3       7 LEU829      0.0000 
     96 CD2        11.8840  -25.2730   23.0020 C.3       7 LEU829      0.0000 
     97 OXT        11.2060  -29.7370   23.9960 O.3       7 LEU829      0.0000 
     98 H          14.8500  -29.0700   23.5080 H         7 LEU829      0.0000 
     99 HA         12.7120  -27.7170   24.4230 H         7 LEU829      0.0000 
    100 HB2        13.2110  -27.9800   21.6660 H         7 LEU829      0.0000 
    101 HB3        11.7530  -27.6820   22.2220 H         7 LEU829      0.0000 
    102 HG         13.8200  -25.8740   22.7540 H         7 LEU829      0.0000 
    103 HD11       13.1370  -24.6400   20.8290 H         7 LEU829      0.0000 
    104 HD12       13.9320  -25.9720   20.4880 H         7 LEU829      0.0000 
    105 HD13       12.3500  -25.9360   20.3560 H         7 LEU829      0.0000 
    106 HD21       12.0960  -24.3270   22.9590 H         7 LEU829      0.0000 
    107 HD22       11.0400  -25.4430   22.5560 H         7 LEU829      0.0000 
    108 HD23       11.8320  -25.5580   23.9280 H         7 LEU829      0.0000 
    109 N          17.3800  -26.3010   24.6230 N.am      8 SEP828      0.0000 
    110 CA         16.7200  -27.5980   24.5150 C.3       8 SEP828      0.0000 
    111 CB         17.0560  -28.4910   25.7050 C.3       8 SEP828      0.0000 
    112 OG         18.2170  -29.2580   25.4490 O.3       8 SEP828      0.0000 
    113 C          15.2150  -27.3920   24.4270 C.2       8 SEP828      0.0000 
    114 O          14.7010  -26.3790   24.8920 O.2       8 SEP828      0.0000 
    115 P          18.3150  -30.4570   26.5180 P.3       8 SEP828      0.0000 
    116 O1P        18.2670  -31.8670   25.7440 O.co2     8 SEP828      0.0000 
    117 O2P        17.0890  -30.3830   27.5600 O.co2     8 SEP828      0.0000 
    118 O3P        19.6990  -30.3270   27.3290 O.co2     8 SEP828      0.0000 
    119 H          17.8000  -26.1780   25.3640 H         8 SEP828      0.0000 
    120 HA         17.0350  -28.0630   23.7120 H         8 SEP828      0.0000 
    121 HB2        16.3120  -29.0910   25.8690 H         8 SEP828      0.0000 
    122 HB3        17.2120  -27.9340   26.4830 H         8 SEP828      0.0000 
@<TRIPOS>BOND
     1  109  110 1    
     2  110  111 1    
     3  109  119 1    
     4  110  113 1    
     5  110  120 1    
     6  111  112 1    
     7  111  121 1    
     8  111  122 1    
     9  112  115 1    
    10  113  114 2    
    11  115  116 ar   
    12  115  117 ar   
    13  115  118 ar   
    14    1    2 1    
    15    1    7 1    
    16    2    3 1    
    17    2    5 1    
    18    2    8 1    
    19    3    4 2    
    20    3   15 am   
    21    5    6 1    
    22    5    9 1    
    23    5   10 1    
    24    6    7 1    
    25    6   11 1    
    26    6   12 1    
    27    7   13 1    
    28    7   14 1    
    29   15   16 1    
    30   16   17 1    
    31   15   25 1    
    32   16   19 1    
    33   16   26 1    
    34   17   18 2    
    35   17   32 am   
    36   19   20 1    
    37   19   27 1    
    38   19   28 1    
    39   20   21 1    
    40   20   22 2    
    41   21   23 1    
    42   22   24 1    
    43   23   24 2    
    44   22   29 1    
    45   32   33 1    
    46   23   30 1    
    47   24   31 1    
    48   33   34 1    
    49   32   39 1    
    50   33   36 1    
    51   33   40 1    
    52   34   35 2    
    53   34   46 am   
    54   36   37 1    
    55   36   38 1    
    56   36   41 1    
    57   37   42 1    
    58   38   43 1    
    59   38   44 1    
    60   38   45 1    
    61   46   47 1    
    62   47   48 1    
    63   46   54 1    
    64   47   50 1    
    65   47   55 1    
    66   48   49 2    
    67   48   60 am   
    68   50   51 1    
    69   50   56 1    
    70   50   57 1    
    71   51   52 2    
    72   51   53 am   
    73   60   61 1    
    74   53   58 1    
    75   53   59 1    
    76   61   62 1    
    77   60   69 1    
    78   61   64 1    
    79   61   70 1    
    80   62   63 2    
    81   62   75 am   
    82   64   65 1    
    83   64   71 1    
    84   64   72 1    
    85   65   66 1    
    86   65   73 1    
    87   65   74 1    
    88   66   67 ar   
    89   66   68 ar   
    90   75   76 1    
    91   76   77 1    
    92   75   82 1    
    93   76   79 1    
    94   76   83 1    
    95   77   78 2    
    96   77  109 du   
    97   79   80 1    
    98   79   81 1    
    99   79   84 1    
   100   80   85 1    
   101   81   86 1    
   102   81   87 1    
   103   81   88 1    
   104   89   90 1    
   105   90   91 1    
   106   89   98 1    
   107   89  113 am   
   108   90   93 1    
   109   90   99 1    
   110   91   92 2    
   111   91   97 1    
   112   93   94 1    
   113   93  100 1    
   114   93  101 1    
   115   94   95 1    
   116   94   96 1    
   117   94  102 1    
   118   95  103 1    
   119   95  104 1    
   120   95  105 1    
   121   96  106 1    
   122   96  107 1    
   123   96  108 1    
@<TRIPOS>SUBSTRUCTURE
     1 PRO822      1 RESIDUE 
     2 HIS823     15 RESIDUE 
     3 THR824     32 RESIDUE 
     4 ASN825     46 RESIDUE 
     5 GLU826     60 RESIDUE 
     6 THR827     75 RESIDUE 
     7 LEU829     89 RESIDUE 
     8 SEP828    109 RESIDUE 
@<TRIPOS>SET

