#    Name: 6mtu_1_PRO_HIS_THR_ASN_GLU_THR_LEU_SEP
#    Modification time : Fri May 22 19:30:30 2020

@<TRIPOS>MOLECULE
6mtu_1_PRO_HIS_THR_ASN_GLU_THR_LEU_SEP
  122   123     8     0     0
SMALL
NO_CHARGES


@<TRIPOS>ATOM
      1 N          12.1930  -28.4940   31.7810 N.am      1 PRO822      0.0000 
      2 CA         11.5380  -27.7390   30.7080 C.3       1 PRO822      0.0000 
      3 C          12.4500  -27.5110   29.4970 C.2       1 PRO822      0.0000 
      4 O          12.4900  -28.3800   28.6270 O.2       1 PRO822      0.0000 
      5 CB         11.1560  -26.4320   31.4080 C.3       1 PRO822      0.0000 
      6 CG         10.9450  -26.8440   32.8840 C.3       1 PRO822      0.0000 
      7 CD         11.5560  -28.2250   33.0810 C.3       1 PRO822      0.0000 
      8 HA         10.7320  -28.1800   30.3970 H         1 PRO822      0.0000 
      9 HB2        11.8740  -25.7850   31.3240 H         1 PRO822      0.0000 
     10 HB3        10.3410  -26.0730   31.0250 H         1 PRO822      0.0000 
     11 HG2        11.3840  -26.1980   33.4600 H         1 PRO822      0.0000 
     12 HG3         9.9950  -26.8670   33.0750 H         1 PRO822      0.0000 
     13 HD2        12.2140  -28.2150   33.7940 H         1 PRO822      0.0000 
     14 HD3        10.8700  -28.8830   33.2730 H         1 PRO822      0.0000 
     15 N          13.1640  -26.3870   29.4330 N.am      2 HIS823      0.0000 
     16 CA         14.0260  -26.0860   28.2870 C.3       2 HIS823      0.0000 
     17 C          15.2860  -25.3940   28.7960 C.2       2 HIS823      0.0000 
     18 O          15.2530  -24.2150   29.1630 O.2       2 HIS823      0.0000 
     19 CB         13.2960  -25.2300   27.2540 C.3       2 HIS823      0.0000 
     20 CG         12.8210  -23.9100   27.7790 C.2       2 HIS823      0.0000 
     21 ND1        13.6000  -22.7730   27.7480 N.pl3     2 HIS823      0.0000 
     22 CD2        11.6460  -23.5450   28.3430 C.2       2 HIS823      0.0000 
     23 CE1        12.9250  -21.7650   28.2710 C.2       2 HIS823      0.0000 
     24 NE2        11.7360  -22.2070   28.6410 N.2       2 HIS823      0.0000 
     25 H          13.1670  -25.7810   30.0430 H         2 HIS823      0.0000 
     26 HA         14.2920  -26.9200   27.8680 H         2 HIS823      0.0000 
     27 HB2        13.8990  -25.0540   26.5150 H         2 HIS823      0.0000 
     28 HB3        12.5190  -25.7190   26.9390 H         2 HIS823      0.0000 
     29 HD2        10.9140  -24.0970   28.5000 H         2 HIS823      0.0000 
     30 HE1        13.2340  -20.8930   28.3630 H         2 HIS823      0.0000 
     31 HE2        11.1190  -21.7340   29.0080 H         2 HIS823      0.0000 
     32 N          16.3910  -26.1340   28.8240 N.am      3 THR824      0.0000 
     33 CA         17.6800  -25.5430   29.1530 C.3       3 THR824      0.0000 
     34 C          17.9700  -24.3890   28.2030 C.2       3 THR824      0.0000 
     35 O          17.9770  -24.5690   26.9830 O.2       3 THR824      0.0000 
     36 CB         18.7820  -26.5990   29.0610 C.3       3 THR824      0.0000 
     37 OG1        18.6100  -27.5670   30.1040 O.3       3 THR824      0.0000 
     38 CG2        20.1580  -25.9530   29.1770 C.3       3 THR824      0.0000 
     39 H          16.4200  -26.9770   28.6580 H         3 THR824      0.0000 
     40 HA         17.6630  -25.2080   30.0630 H         3 THR824      0.0000 
     41 HB         18.7320  -27.0450   28.2010 H         3 THR824      0.0000 
     42 HG1        19.2090  -28.1540   30.0520 H         3 THR824      0.0000 
     43 HG21       20.8210  -26.6230   29.4020 H         3 THR824      0.0000 
     44 HG22       20.4020  -25.5380   28.3340 H         3 THR824      0.0000 
     45 HG23       20.1480  -25.2740   29.8700 H         3 THR824      0.0000 
     46 N          18.1950  -23.2040   28.7620 N.am      4 ASN825      0.0000 
     47 CA         18.5270  -22.0130   27.9900 C.3       4 ASN825      0.0000 
     48 C          19.9560  -21.6010   28.3120 C.2       4 ASN825      0.0000 
     49 O          20.3150  -21.4640   29.4860 O.2       4 ASN825      0.0000 
     50 CB         17.5610  -20.8660   28.3010 C.3       4 ASN825      0.0000 
     51 CG         16.6820  -20.4980   27.1140 C.2       4 ASN825      0.0000 
     52 OD1        17.0730  -20.6660   25.9590 O.2       4 ASN825      0.0000 
     53 ND2        15.4910  -19.9840   27.3980 N.am      4 ASN825      0.0000 
     54 H          18.1600  -23.0640   29.6100 H         4 ASN825      0.0000 
     55 HA         18.4640  -22.2090   27.0420 H         4 ASN825      0.0000 
     56 HB2        16.9810  -21.1310   29.0320 H         4 ASN825      0.0000 
     57 HB3        18.0720  -20.0810   28.5500 H         4 ASN825      0.0000 
     58 HD21       14.9570  -19.7600   26.7630 H         4 ASN825      0.0000 
     59 HD22       15.2540  -19.8760   28.2180 H         4 ASN825      0.0000 
     60 N          20.7690  -21.4140   27.2740 N.am      5 GLU826      0.0000 
     61 CA         22.1610  -21.0150   27.4440 C.3       5 GLU826      0.0000 
     62 C          22.5100  -19.9650   26.4040 C.2       5 GLU826      0.0000 
     63 O          22.1900  -20.1270   25.2220 O.2       5 GLU826      0.0000 
     64 CB         23.1060  -22.2170   27.3160 C.3       5 GLU826      0.0000 
     65 CG         24.5850  -21.8750   27.4960 C.3       5 GLU826      0.0000 
     66 CD         25.2120  -22.5490   28.7080 C.2       5 GLU826      0.0000 
     67 OE1        24.4630  -23.0540   29.5710 O.co2     5 GLU826      0.0000 
     68 OE2        26.4580  -22.5730   28.7990 O.co2     5 GLU826      0.0000 
     69 H          20.5330  -21.5140   26.4530 H         5 GLU826      0.0000 
     70 HA         22.2770  -20.6260   28.3250 H         5 GLU826      0.0000 
     71 HB2        22.8710  -22.8700   27.9940 H         5 GLU826      0.0000 
     72 HB3        22.9990  -22.6030   26.4330 H         5 GLU826      0.0000 
     73 HG2        25.0730  -22.1630   26.7090 H         5 GLU826      0.0000 
     74 HG3        24.6750  -20.9160   27.6090 H         5 GLU826      0.0000 
     75 N          23.1690  -18.8980   26.8440 N.am      6 THR827      0.0000 
     76 CA         23.6010  -17.8380   25.9420 C.3       6 THR827      0.0000 
     77 C          24.9890  -17.3390   26.3240 C.2       6 THR827      0.0000 
     78 O          25.1920  -16.8360   27.4270 O.2       6 THR827      0.0000 
     79 CB         22.6170  -16.6540   25.9540 C.3       6 THR827      0.0000 
     80 OG1        21.3190  -17.1070   25.5510 O.3       6 THR827      0.0000 
     81 CG2        23.0890  -15.5490   25.0160 C.3       6 THR827      0.0000 
     82 H          23.3790  -18.7640   27.6670 H         6 THR827      0.0000 
     83 HA         23.6420  -18.1850   25.0370 H         6 THR827      0.0000 
     84 HB         22.5660  -16.2850   26.8490 H         6 THR827      0.0000 
     85 HG1        21.3790  -17.5690   24.8530 H         6 THR827      0.0000 
     86 HG21       22.3630  -14.9290   24.8430 H         6 THR827      0.0000 
     87 HG22       23.8270  -15.0650   25.4180 H         6 THR827      0.0000 
     88 HG23       23.3840  -15.9320   24.1750 H         6 THR827      0.0000 
     89 N          28.1060  -14.7120   26.0220 N.am      7 LEU829      0.0000 
     90 CA         28.1930  -13.2710   25.8120 C.3       7 LEU829      0.0000 
     91 C          29.6180  -12.7750   26.0290 C.2       7 LEU829      0.0000 
     92 O          30.5240  -13.5580   26.3100 O.2       7 LEU829      0.0000 
     93 CB         27.2370  -12.5320   26.7510 C.3       7 LEU829      0.0000 
     94 CG         25.7430  -12.7240   26.4910 C.3       7 LEU829      0.0000 
     95 CD1        25.0290  -13.1320   27.7650 C.3       7 LEU829      0.0000 
     96 CD2        25.1370  -11.4500   25.9270 C.3       7 LEU829      0.0000 
     97 OXT        29.8970  -11.5790   25.9320 O.3       7 LEU829      0.0000 
     98 H          28.6020  -15.0000   26.6630 H         7 LEU829      0.0000 
     99 HA         27.9350  -13.0700   24.8980 H         7 LEU829      0.0000 
    100 HB2        27.4100  -12.8360   27.6550 H         7 LEU829      0.0000 
    101 HB3        27.4200  -11.5820   26.6790 H         7 LEU829      0.0000 
    102 HG         25.6240  -13.4310   25.8380 H         7 LEU829      0.0000 
    103 HD11       24.0800  -13.2120   27.5830 H         7 LEU829      0.0000 
    104 HD12       25.3820  -13.9840   28.0650 H         7 LEU829      0.0000 
    105 HD13       25.1800  -12.4550   28.4420 H         7 LEU829      0.0000 
    106 HD21       24.2040  -11.6120   25.7150 H         7 LEU829      0.0000 
    107 HD22       25.2080  -10.7460   26.5910 H         7 LEU829      0.0000 
    108 HD23       25.6200  -11.1980   25.1250 H         7 LEU829      0.0000 
    109 N          25.9440  -17.4820   25.4120 N.am      8 SEP828      0.0000 
    110 CA         27.2870  -16.9660   25.6430 C.3       8 SEP828      0.0000 
    111 CB         28.3190  -17.7380   24.8330 C.3       8 SEP828      0.0000 
    112 OG         28.3620  -17.2650   23.5040 O.3       8 SEP828      0.0000 
    113 C          27.3250  -15.4870   25.2760 C.2       8 SEP828      0.0000 
    114 O          26.6560  -15.0600   24.3370 O.2       8 SEP828      0.0000 
    115 P          29.8390  -17.5060   22.9250 P.3       8 SEP828      0.0000 
    116 O1P        29.8730  -17.0720   21.3750 O.co2     8 SEP828      0.0000 
    117 O2P        30.2040  -19.0670   23.0710 O.co2     8 SEP828      0.0000 
    118 O3P        30.8970  -16.6240   23.7600 O.co2     8 SEP828      0.0000 
    119 H          25.8390  -17.8730   24.6540 H         8 SEP828      0.0000 
    120 HA         27.5290  -17.0750   26.5870 H         8 SEP828      0.0000 
    121 HB2        28.0780  -18.6780   24.8270 H         8 SEP828      0.0000 
    122 HB3        29.1920  -17.6220   25.2390 H         8 SEP828      0.0000 
@<TRIPOS>BOND
     1  109  110 1    
     2  110  111 1    
     3  109  119 1    
     4  110  113 1    
     5  110  120 1    
     6  111  112 1    
     7  111  121 1    
     8  111  122 1    
     9  112  115 1    
    10  113  114 2    
    11  115  116 ar   
    12  115  117 ar   
    13  115  118 ar   
    14    1    2 1    
    15    1    7 1    
    16    2    3 1    
    17    2    5 1    
    18    2    8 1    
    19    3    4 2    
    20    3   15 am   
    21    5    6 1    
    22    5    9 1    
    23    5   10 1    
    24    6    7 1    
    25    6   11 1    
    26    6   12 1    
    27    7   13 1    
    28    7   14 1    
    29   15   16 1    
    30   16   17 1    
    31   15   25 1    
    32   16   19 1    
    33   16   26 1    
    34   17   18 2    
    35   17   32 am   
    36   19   20 1    
    37   19   27 1    
    38   19   28 1    
    39   20   21 1    
    40   20   22 2    
    41   21   23 1    
    42   22   24 1    
    43   23   24 2    
    44   22   29 1    
    45   32   33 1    
    46   23   30 1    
    47   24   31 1    
    48   33   34 1    
    49   32   39 1    
    50   33   36 1    
    51   33   40 1    
    52   34   35 2    
    53   34   46 am   
    54   36   37 1    
    55   36   38 1    
    56   36   41 1    
    57   37   42 1    
    58   38   43 1    
    59   38   44 1    
    60   38   45 1    
    61   46   47 1    
    62   47   48 1    
    63   46   54 1    
    64   47   50 1    
    65   47   55 1    
    66   48   49 2    
    67   48   60 am   
    68   50   51 1    
    69   50   56 1    
    70   50   57 1    
    71   51   52 2    
    72   51   53 am   
    73   60   61 1    
    74   53   58 1    
    75   53   59 1    
    76   61   62 1    
    77   60   69 1    
    78   61   64 1    
    79   61   70 1    
    80   62   63 2    
    81   62   75 am   
    82   64   65 1    
    83   64   71 1    
    84   64   72 1    
    85   65   66 1    
    86   65   73 1    
    87   65   74 1    
    88   66   67 ar   
    89   66   68 ar   
    90   75   76 1    
    91   76   77 1    
    92   75   82 1    
    93   76   79 1    
    94   76   83 1    
    95   77   78 2    
    96   77  109 du   
    97   79   80 1    
    98   79   81 1    
    99   79   84 1    
   100   80   85 1    
   101   81   86 1    
   102   81   87 1    
   103   81   88 1    
   104   89   90 1    
   105   90   91 1    
   106   89   98 1    
   107   89  113 am   
   108   90   93 1    
   109   90   99 1    
   110   91   92 2    
   111   91   97 1    
   112   93   94 1    
   113   93  100 1    
   114   93  101 1    
   115   94   95 1    
   116   94   96 1    
   117   94  102 1    
   118   95  103 1    
   119   95  104 1    
   120   95  105 1    
   121   96  106 1    
   122   96  107 1    
   123   96  108 1    
@<TRIPOS>SUBSTRUCTURE
     1 PRO822      1 RESIDUE 
     2 HIS823     15 RESIDUE 
     3 THR824     32 RESIDUE 
     4 ASN825     46 RESIDUE 
     5 GLU826     60 RESIDUE 
     6 THR827     75 RESIDUE 
     7 LEU829     89 RESIDUE 
     8 SEP828    109 RESIDUE 
@<TRIPOS>SET

