#    Name: 6mtu_2_PRO_HIS_THR_ASN_GLU_THR_LEU_SEP_CAVITY_N1_6
#    Modification time : Fri May 22 19:30:37 2020

@<TRIPOS>MOLECULE
6mtu_2_PRO_HIS_THR_ASN_GLU_THR_LEU_SEP_CAVITY_N1_6
   76     0     6     0     0
SMALL
NO_CHARGES


@<TRIPOS>ATOM
      1 OG         21.3300  -18.1400   21.2000 O.3       1 SER1        0.0000 
      2 OG         21.2200  -16.7400   20.6700 O.3       1 SER1        0.0000 
      3 OG         17.4200  -22.1100   24.2700 O.3       1 SER1        0.0000 
      4 OG         23.1200  -16.2800   21.4800 O.3       1 SER1        0.0000 
      5 OG         23.0100  -14.8800   20.9500 O.3       1 SER1        0.0000 
      6 OG         21.7100  -16.2100   21.9800 O.3       1 SER1        0.0000 
      7 OG         21.6000  -14.8100   21.4500 O.3       1 SER1        0.0000 
      8 OG         20.5200  -18.9300   23.5400 O.3       1 SER1        0.0000 
      9 OG         20.3000  -16.1300   22.4800 O.3       1 SER1        0.0000 
     10 OG         19.2200  -20.2500   24.5600 O.3       1 SER1        0.0000 
     11 OG         17.8000  -20.1800   25.0600 O.3       1 SER1        0.0000 
     12 OG         15.2000  -22.8200   27.1100 O.3       1 SER1        0.0000 
     13 OG         13.7900  -22.7500   27.6100 O.3       1 SER1        0.0000 
     14 OG         21.0100  -18.3900   24.8500 O.3       1 SER1        0.0000 
     15 OG         20.9000  -16.9900   24.3200 O.3       1 SER1        0.0000 
     16 OG         19.7100  -19.7200   25.8700 O.3       1 SER1        0.0000 
     17 OG         19.5900  -18.3200   25.3500 O.3       1 SER1        0.0000 
     18 OG         19.4800  -16.9200   24.8200 O.3       1 SER1        0.0000 
     19 OG         18.4000  -21.0400   26.9000 O.3       1 SER1        0.0000 
     20 OG         17.1000  -22.3600   27.9300 O.3       1 SER1        0.0000 
     21 OG         16.9900  -20.9600   27.4000 O.3       1 SER1        0.0000 
     22 OG         15.6900  -22.2900   28.4200 O.3       1 SER1        0.0000 
     23 OG         15.5800  -20.8900   27.8900 O.3       1 SER1        0.0000 
     24 OG         15.4700  -19.4900   27.3600 O.3       1 SER1        0.0000 
     25 OG         14.0500  -19.4200   27.8600 O.3       1 SER1        0.0000 
     26 OG         21.3900  -16.4600   25.6300 O.3       1 SER1        0.0000 
     27 O          15.2400  -16.6900   26.3100 O.2       2 ALA2        0.0000 
     28 OD1        20.1800  -14.7300   21.9500 O.co2     3 ASP3        0.0000 
     29 OD1        18.7700  -14.6600   22.4500 O.co2     3 ASP3        0.0000 
     30 OD1        22.0900  -14.2700   22.7600 O.co2     3 ASP3        0.0000 
     31 OD1        20.6700  -14.2000   23.2600 O.co2     3 ASP3        0.0000 
     32 CZ         20.4100  -17.5300   23.0100 C.ar      4 PHE5        0.0000 
     33 CZ         19.1000  -18.8500   24.0300 C.ar      4 PHE5        0.0000 
     34 CZ         18.9900  -17.4500   23.5000 C.ar      4 PHE5        0.0000 
     35 CZ         17.6900  -18.7800   24.5300 C.ar      4 PHE5        0.0000 
     36 CZ         17.5800  -17.3800   24.0000 C.ar      4 PHE5        0.0000 
     37 CZ         17.4700  -15.9800   23.4700 C.ar      4 PHE5        0.0000 
     38 CZ         16.2800  -18.7000   25.0300 C.ar      4 PHE5        0.0000 
     39 CZ         16.1700  -17.3000   24.5000 C.ar      4 PHE5        0.0000 
     40 CZ         18.2900  -19.6400   26.3700 C.ar      4 PHE5        0.0000 
     41 CZ         18.0700  -16.8400   25.3100 C.ar      4 PHE5        0.0000 
     42 CZ         16.8800  -19.5700   26.8700 C.ar      4 PHE5        0.0000 
     43 CZ         16.7700  -18.1700   26.3400 C.ar      4 PHE5        0.0000 
     44 CZ         16.6600  -16.7700   25.8100 C.ar      4 PHE5        0.0000 
     45 CA         19.8100  -16.6700   21.1600 C.3       5 GLY6        0.0000 
     46 CA         16.0100  -22.0400   24.7700 C.3       5 GLY6        0.0000 
     47 CA         14.7100  -23.3600   25.8000 C.3       5 GLY6        0.0000 
     48 CA         13.3000  -23.2800   26.2900 C.3       5 GLY6        0.0000 
     49 CA         18.8800  -16.0500   22.9700 C.3       5 GLY6        0.0000 
     50 CA         17.3600  -14.5800   22.9400 C.3       5 GLY6        0.0000 
     51 CA         16.3900  -20.1000   25.5500 C.3       5 GLY6        0.0000 
     52 CA         16.0600  -15.9000   23.9700 C.3       5 GLY6        0.0000 
     53 CA         15.0900  -21.4300   26.5800 C.3       5 GLY6        0.0000 
     54 CA         14.9800  -20.0300   26.0500 C.3       5 GLY6        0.0000 
     55 CA         14.8600  -18.6300   25.5200 C.3       5 GLY6        0.0000 
     56 CA         14.7500  -17.2300   24.9900 C.3       5 GLY6        0.0000 
     57 CA         13.6700  -21.3500   27.0800 C.3       5 GLY6        0.0000 
     58 CA         13.4500  -18.5500   26.0200 C.3       5 GLY6        0.0000 
     59 CA         20.7900  -15.5900   23.7900 C.3       5 GLY6        0.0000 
     60 CA         19.3700  -15.5200   24.2900 C.3       5 GLY6        0.0000 
     61 CA         19.2600  -14.1200   23.7600 C.3       5 GLY6        0.0000 
     62 CA         17.9600  -15.4400   24.7800 C.3       5 GLY6        0.0000 
     63 CA         17.8500  -14.0400   24.2500 C.3       5 GLY6        0.0000 
     64 CA         15.3500  -18.0900   26.8400 C.3       5 GLY6        0.0000 
     65 CA         13.9400  -18.0200   27.3300 C.3       5 GLY6        0.0000 
     66 CA         17.7000  -23.2300   29.7700 C.3       5 GLY6        0.0000 
     67 CA         17.5900  -21.8300   29.2400 C.3       5 GLY6        0.0000 
     68 DU         16.1200  -23.4300   25.3000 H         6 CUB7        0.0000 
     69 DU         21.8200  -17.6000   22.5100 H         6 CUB7        0.0000 
     70 DU         17.9100  -21.5800   25.5900 H         6 CUB7        0.0000 
     71 DU         16.6100  -22.9000   26.6100 H         6 CUB7        0.0000 
     72 DU         16.5000  -21.5000   26.0800 H         6 CUB7        0.0000 
     73 DU         23.6100  -15.7500   22.8000 H         6 CUB7        0.0000 
     74 DU         22.3100  -17.0700   23.8200 H         6 CUB7        0.0000 
     75 DU         22.2000  -15.6700   23.2900 H         6 CUB7        0.0000 
     76 DU         18.5200  -22.4400   27.4300 H         6 CUB7        0.0000 
@<TRIPOS>BOND
@<TRIPOS>SUBSTRUCTURE
     1 SER1        1 GROUP   
     2 ALA2       27 GROUP   
     3 ASP3       28 GROUP   
     4 PHE5       32 GROUP   
     5 GLY6       45 GROUP   
     6 CUB7       68 GROUP   
@<TRIPOS>SET

