#    Name: 6pfd_6_NDP
#    Modification time : Fri May 22 19:34:29 2020

@<TRIPOS>MOLECULE
6pfd_6_NDP
   48    52     1     0     1
SMALL
NO_CHARGES


@<TRIPOS>ATOM
      1 PA        255.3960   48.1710  313.6820 P.3       1 NDP601      0.0000 
      2 O1A       254.2290   48.3210  312.7290 O.co2     1 NDP601      0.0000 
      3 O2A       256.3650   49.3010  313.4760 O.co2     1 NDP601      0.0000 
      4 O5B       254.8820   48.2390  315.1240 O.3       1 NDP601      0.0000 
      5 C5B       253.8740   47.3650  315.5560 C.3       1 NDP601      0.0000 
      6 C4B       253.2710   47.6450  316.8670 C.3       1 NDP601      0.0000 
      7 O4B       252.5050   48.8290  316.8160 O.3       1 NDP601      0.0000 
      8 C3B       252.3150   46.6200  317.2910 C.3       1 NDP601      0.0000 
      9 O3B       252.9480   45.5150  317.8340 O.3       1 NDP601      0.0000 
     10 C2B       251.5600   47.3410  318.2830 C.3       1 NDP601      0.0000 
     11 O2B       252.3250   47.5450  319.4390 O.3       1 NDP601      0.0000 
     12 C1B       251.3790   48.6370  317.6570 C.3       1 NDP601      0.0000 
     13 N9A       250.1710   48.7050  316.9060 N.pl3     1 NDP601      0.0000 
     14 C8A       250.0550   48.5770  315.5600 C.2       1 NDP601      0.0000 
     15 N7A       248.7610   48.7110  315.2050 N.2       1 NDP601      0.0000 
     16 C5A       248.0240   48.9380  316.3430 C.ar      1 NDP601      0.0000 
     17 C6A       246.6480   49.1540  316.6110 C.ar      1 NDP601      0.0000 
     18 N6A       245.6730   49.1600  315.4920 N.pl3     1 NDP601      0.0000 
     19 N1A       246.2240   49.3550  317.8880 N.ar      1 NDP601      0.0000 
     20 C2A       247.1330   49.3440  318.8990 C.ar      1 NDP601      0.0000 
     21 N3A       248.4400   49.1470  318.6990 N.ar      1 NDP601      0.0000 
     22 C4A       248.9200   48.9380  317.4180 C.ar      1 NDP601      0.0000 
     23 O3        256.1390   46.7730  313.4640 O.3       1 NDP601      0.0000 
     24 PN        256.5420   46.1990  312.0330 P.3       1 NDP601      0.0000 
     25 O1N       257.1170   44.7820  312.1760 O.co2     1 NDP601      0.0000 
     26 O2N       255.3160   46.1370  311.1460 O.co2     1 NDP601      0.0000 
     27 O5D       257.6690   47.1610  311.3730 O.3       1 NDP601      0.0000 
     28 C5D       259.0080   47.0720  311.7920 C.3       1 NDP601      0.0000 
     29 C4D       260.0190   46.7770  310.7880 C.3       1 NDP601      0.0000 
     30 O4D       259.7830   47.5680  309.6240 O.3       1 NDP601      0.0000 
     31 C3D       261.3630   47.1290  311.2650 C.3       1 NDP601      0.0000 
     32 O3D       262.3040   46.2530  310.7340 O.3       1 NDP601      0.0000 
     33 C2D       261.5900   48.4330  310.7430 C.3       1 NDP601      0.0000 
     34 O2D       262.9590   48.6570  310.5900 O.3       1 NDP601      0.0000 
     35 C1D       260.8850   48.3950  309.4410 C.3       1 NDP601      0.0000 
     36 N1N       260.4920   49.7100  309.0310 N.pl3     1 NDP601      0.0000 
     37 C2N       260.7600   50.1000  307.7710 C.2       1 NDP601      0.0000 
     38 C3N       260.3950   51.3790  307.3220 C.2       1 NDP601      0.0000 
     39 C7N       260.7160   51.7850  305.8960 C.2       1 NDP601      0.0000 
     40 O7N       260.2560   52.8490  305.4520 O.2       1 NDP601      0.0000 
     41 N7N       261.5380   50.9590  305.0560 N.am      1 NDP601      0.0000 
     42 C4N       259.7370   52.2660  308.1930 C.3       1 NDP601      0.0000 
     43 C5N       259.4730   51.8260  309.4950 C.2       1 NDP601      0.0000 
     44 C6N       259.8520   50.5490  309.9050 C.2       1 NDP601      0.0000 
     45 P2B       252.0540   46.7580  320.7600 P.3       1 NDP601      0.0000 
     46 O1X       252.2520   45.2540  320.4900 O.co2     1 NDP601      0.0000 
     47 O2X       252.9950   47.2140  321.7960 O.co2     1 NDP601      0.0000 
     48 O3X       250.6650   47.0120  321.2490 O.co2     1 NDP601      0.0000 
@<TRIPOS>BOND
     1    1    2 ar   
     2    1    3 ar   
     3    1    4 1    
     4    1   23 1    
     5    4    5 1    
     6    5    6 1    
     7    6    7 1    
     8    6    8 1    
     9    7   12 1    
    10    8    9 1    
    11    8   10 1    
    12   10   11 1    
    13   10   12 1    
    14   11   45 1    
    15   12   13 1    
    16   13   14 1    
    17   13   22 1    
    18   14   15 2    
    19   15   16 1    
    20   16   17 ar   
    21   16   22 ar   
    22   17   18 1    
    23   17   19 ar   
    24   19   20 ar   
    25   20   21 ar   
    26   21   22 ar   
    27   23   24 1    
    28   24   25 ar   
    29   24   26 ar   
    30   24   27 1    
    31   27   28 1    
    32   28   29 1    
    33   29   30 1    
    34   29   31 1    
    35   30   35 1    
    36   31   32 1    
    37   31   33 1    
    38   33   34 1    
    39   33   35 1    
    40   35   36 1    
    41   36   37 1    
    42   36   44 1    
    43   37   38 2    
    44   38   39 1    
    45   38   42 1    
    46   39   40 2    
    47   39   41 am   
    48   42   43 1    
    49   43   44 2    
    50   45   46 ar   
    51   45   47 ar   
    52   45   48 ar   
@<TRIPOS>SUBSTRUCTURE
     1 NDP601      1 GROUP   
@<TRIPOS>SET
ATOM$ORANGE STATIC     ATOMS   COLORGROUP SYSTEM 
42 5 5 6 6 8 8 10 10 12 12 14 14 16 16 17 17 20 \
20 22 22 28 28 29 29 31 31 33 33 35 35 37 37 38 38 39 \
39 42 42 43 43 44 44 

