#    Name: 6pfd_4_MTX
#    Modification time : Fri May 22 19:34:06 2020

@<TRIPOS>MOLECULE
6pfd_4_MTX
   33    35     1     0     0
SMALL
NO_CHARGES


@<TRIPOS>ATOM
      1 N1        243.9460   93.7510  263.6570 N.ar      1 MTX604      0.0000 
      2 C2        244.1720   93.5810  264.9710 C.ar      1 MTX604      0.0000 
      3 NA2       245.1530   92.6110  265.3900 N.pl3     1 MTX604      0.0000 
      4 N3        243.5140   94.2850  265.9060 N.ar      1 MTX604      0.0000 
      5 C4        242.5880   95.2010  265.5470 C.ar      1 MTX604      0.0000 
      6 NA4       241.8800   95.9590  266.5280 N.pl3     1 MTX604      0.0000 
      7 C4A       242.3160   95.4140  264.1750 C.ar      1 MTX604      0.0000 
      8 N5        241.3900   96.3320  263.7680 N.ar      1 MTX604      0.0000 
      9 C6        241.1650   96.4980  262.4480 C.ar      1 MTX604      0.0000 
     10 C7        241.8610   95.7570  261.4860 C.ar      1 MTX604      0.0000 
     11 N8        242.7760   94.8540  261.9040 N.ar      1 MTX604      0.0000 
     12 C8A       243.0160   94.6700  263.2440 C.ar      1 MTX604      0.0000 
     13 C9        240.1360   97.5150  262.0180 C.3       1 MTX604      0.0000 
     14 N10       239.4450   97.2550  260.7690 N.pl3     1 MTX604      0.0000 
     15 CM        239.4920   98.2350  259.7120 C.3       1 MTX604      0.0000 
     16 C11       237.3510   93.6100  260.1420 C.ar      1 MTX604      0.0000 
     17 C12       237.8150   94.3650  259.0680 C.ar      1 MTX604      0.0000 
     18 C13       238.5020   95.5540  259.2860 C.ar      1 MTX604      0.0000 
     19 C14       238.7180   96.0040  260.5810 C.ar      1 MTX604      0.0000 
     20 C15       238.2580   95.2480  261.6620 C.ar      1 MTX604      0.0000 
     21 C16       237.5740   94.0510  261.4410 C.ar      1 MTX604      0.0000 
     22 C         236.6190   92.3190  259.8700 C.2       1 MTX604      0.0000 
     23 O         235.9590   92.2050  258.8520 O.2       1 MTX604      0.0000 
     24 N         236.6790   91.2050  260.7860 N.am      1 MTX604      0.0000 
     25 CA        235.9750   89.9920  260.4710 C.3       1 MTX604      0.0000 
     26 CT        235.4270   89.4490  261.7290 C.2       1 MTX604      0.0000 
     27 O1        234.8050   88.3560  261.7200 O.co2     1 MTX604      0.0000 
     28 O2        235.5910   90.0870  262.8130 O.co2     1 MTX604      0.0000 
     29 CB        236.9750   89.0190  259.9480 C.3       1 MTX604      0.0000 
     30 CG        236.8650   88.4800  258.5520 C.3       1 MTX604      0.0000 
     31 CD        238.0680   87.7540  258.0290 C.2       1 MTX604      0.0000 
     32 OE1       238.0130   86.5080  257.9100 O.co2     1 MTX604      0.0000 
     33 OE2       238.8940   88.3840  257.3160 O.co2     1 MTX604      0.0000 
@<TRIPOS>BOND
     1    1    2 ar   
     2    1   12 ar   
     3    2    3 1    
     4    2    4 ar   
     5    4    5 ar   
     6    5    6 1    
     7    5    7 ar   
     8    7    8 ar   
     9    7   12 ar   
    10    8    9 ar   
    11    9   10 ar   
    12    9   13 1    
    13   10   11 ar   
    14   11   12 ar   
    15   13   14 1    
    16   14   15 1    
    17   14   19 1    
    18   16   17 ar   
    19   16   21 ar   
    20   16   22 1    
    21   17   18 ar   
    22   18   19 ar   
    23   19   20 ar   
    24   20   21 ar   
    25   22   23 2    
    26   22   24 am   
    27   24   25 1    
    28   25   26 1    
    29   25   29 1    
    30   26   27 ar   
    31   26   28 ar   
    32   29   30 1    
    33   30   31 1    
    34   31   32 ar   
    35   31   33 ar   
@<TRIPOS>SUBSTRUCTURE
     1 MTX604      1 GROUP   
@<TRIPOS>SET

