#    Name: 6pfd_2_MTX
#    Modification time : Fri May 22 19:33:52 2020

@<TRIPOS>MOLECULE
6pfd_2_MTX
   33    35     1     0     0
SMALL
NO_CHARGES


@<TRIPOS>ATOM
      1 N1        187.7920   89.3780  235.0840 N.ar      1 MTX604      0.0000 
      2 C2        188.5850   88.7080  235.9370 C.ar      1 MTX604      0.0000 
      3 NA2       190.0010   88.9740  235.9290 N.pl3     1 MTX604      0.0000 
      4 N3        188.1000   87.8000  236.7970 N.ar      1 MTX604      0.0000 
      5 C4        186.7810   87.5270  236.8300 C.ar      1 MTX604      0.0000 
      6 NA4       186.2610   86.5610  237.7420 N.pl3     1 MTX604      0.0000 
      7 C4A       185.9050   88.2070  235.9500 C.ar      1 MTX604      0.0000 
      8 N5        184.5610   87.9640  235.9460 N.ar      1 MTX604      0.0000 
      9 C6        183.7770   88.6430  235.0820 C.ar      1 MTX604      0.0000 
     10 C7        184.3030   89.5890  234.1940 C.ar      1 MTX604      0.0000 
     11 N8        185.6320   89.8180  234.2090 N.ar      1 MTX604      0.0000 
     12 C8A       186.4450   89.1350  235.0800 C.ar      1 MTX604      0.0000 
     13 C9        182.2950   88.3740  235.0790 C.3       1 MTX604      0.0000 
     14 N10       181.6380   88.5810  233.8040 N.pl3     1 MTX604      0.0000 
     15 CM        180.5520   89.5280  233.7140 C.3       1 MTX604      0.0000 
     16 C11       182.8840   86.5590  230.2790 C.ar      1 MTX604      0.0000 
     17 C12       182.2080   87.7730  230.2120 C.ar      1 MTX604      0.0000 
     18 C13       181.8100   88.4210  231.3750 C.ar      1 MTX604      0.0000 
     19 C14       182.0790   87.8600  232.6150 C.ar      1 MTX604      0.0000 
     20 C15       182.7570   86.6410  232.6930 C.ar      1 MTX604      0.0000 
     21 C16       183.1580   85.9930  231.5220 C.ar      1 MTX604      0.0000 
     22 C         183.3020   85.8850  228.9930 C.2       1 MTX604      0.0000 
     23 O         182.6240   86.0560  227.9920 O.2       1 MTX604      0.0000 
     24 N         184.4780   85.0510  228.9020 N.am      1 MTX604      0.0000 
     25 CA        184.8170   84.4430  227.6410 C.3       1 MTX604      0.0000 
     26 CT        185.1940   83.0400  227.9020 C.2       1 MTX604      0.0000 
     27 O1        185.1550   82.6030  229.0820 O.co2     1 MTX604      0.0000 
     28 O2        185.5580   82.2880  226.9460 O.co2     1 MTX604      0.0000 
     29 CB        186.0030   85.1380  227.0600 C.3       1 MTX604      0.0000 
     30 CG        186.0560   85.4190  225.5870 C.3       1 MTX604      0.0000 
     31 CD        187.1240   86.3600  225.1180 C.2       1 MTX604      0.0000 
     32 OE1       188.1000   85.9070  224.4740 O.co2     1 MTX604      0.0000 
     33 OE2       186.9000   87.5990  225.1040 O.co2     1 MTX604      0.0000 
@<TRIPOS>BOND
     1    1    2 ar   
     2    1   12 ar   
     3    2    3 1    
     4    2    4 ar   
     5    4    5 ar   
     6    5    6 1    
     7    5    7 ar   
     8    7    8 ar   
     9    7   12 ar   
    10    8    9 ar   
    11    9   10 ar   
    12    9   13 1    
    13   10   11 ar   
    14   11   12 ar   
    15   13   14 1    
    16   14   15 1    
    17   14   19 1    
    18   16   17 ar   
    19   16   21 ar   
    20   16   22 1    
    21   17   18 ar   
    22   18   19 ar   
    23   19   20 ar   
    24   20   21 ar   
    25   22   23 2    
    26   22   24 am   
    27   24   25 1    
    28   25   26 1    
    29   25   29 1    
    30   26   27 ar   
    31   26   28 ar   
    32   29   30 1    
    33   30   31 1    
    34   31   32 ar   
    35   31   33 ar   
@<TRIPOS>SUBSTRUCTURE
     1 MTX604      1 GROUP   
@<TRIPOS>SET

