#    Name: 6pfd_5_MTX
#    Modification time : Fri May 22 19:34:18 2020

@<TRIPOS>MOLECULE
6pfd_5_MTX
   33    35     1     0     0
SMALL
NO_CHARGES


@<TRIPOS>ATOM
      1 N1        290.6630   72.4560  300.2840 N.ar      1 MTX604      0.0000 
      2 C2        291.1640   73.0860  301.3620 C.ar      1 MTX604      0.0000 
      3 NA2       291.2130   72.3840  302.6190 N.pl3     1 MTX604      0.0000 
      4 N3        291.6210   74.3470  301.3040 N.ar      1 MTX604      0.0000 
      5 C4        291.5890   75.0320  300.1400 C.ar      1 MTX604      0.0000 
      6 NA4       292.0700   76.3750  300.0580 N.pl3     1 MTX604      0.0000 
      7 C4A       291.0700   74.4120  298.9790 C.ar      1 MTX604      0.0000 
      8 N5        291.0210   75.0690  297.7820 N.ar      1 MTX604      0.0000 
      9 C6        290.5190   74.4350  296.7000 C.ar      1 MTX604      0.0000 
     10 C7        290.0460   73.1180  296.7790 C.ar      1 MTX604      0.0000 
     11 N8        290.1010   72.4820  297.9710 N.ar      1 MTX604      0.0000 
     12 C8A       290.6100   73.1120  299.0810 C.ar      1 MTX604      0.0000 
     13 C9        290.4680   75.1810  295.3840 C.3       1 MTX604      0.0000 
     14 N10       289.4090   74.7950  294.4700 N.pl3     1 MTX604      0.0000 
     15 CM        289.7390   74.3650  293.1340 C.3       1 MTX604      0.0000 
     16 C11       285.3530   74.8670  295.7350 C.ar      1 MTX604      0.0000 
     17 C12       285.7590   74.0370  294.6940 C.ar      1 MTX604      0.0000 
     18 C13       287.0890   74.0210  294.2850 C.ar      1 MTX604      0.0000 
     19 C14       288.0190   74.8380  294.9120 C.ar      1 MTX604      0.0000 
     20 C15       287.6150   75.6670  295.9580 C.ar      1 MTX604      0.0000 
     21 C16       286.2820   75.6810  296.3680 C.ar      1 MTX604      0.0000 
     22 C         283.9110   74.8750  296.1810 C.2       1 MTX604      0.0000 
     23 O         283.0250   74.6350  295.3770 O.2       1 MTX604      0.0000 
     24 N         283.5570   75.1550  297.5530 N.am      1 MTX604      0.0000 
     25 CA        282.1750   75.1500  297.9490 C.3       1 MTX604      0.0000 
     26 CT        282.0190   76.1420  299.0320 C.2       1 MTX604      0.0000 
     27 O1        283.0430   76.6940  299.5080 O.co2     1 MTX604      0.0000 
     28 O2        280.8680   76.4340  299.4820 O.co2     1 MTX604      0.0000 
     29 CB        281.8410   73.8050  298.4990 C.3       1 MTX604      0.0000 
     30 CG        281.0470   72.8420  297.6670 C.3       1 MTX604      0.0000 
     31 CD        280.9930   71.4280  298.1530 C.2       1 MTX604      0.0000 
     32 OE1       279.9180   71.0060  298.6390 O.co2     1 MTX604      0.0000 
     33 OE2       281.8060   70.5900  297.6820 O.co2     1 MTX604      0.0000 
@<TRIPOS>BOND
     1    1    2 ar   
     2    1   12 ar   
     3    2    3 1    
     4    2    4 ar   
     5    4    5 ar   
     6    5    6 1    
     7    5    7 ar   
     8    7    8 ar   
     9    7   12 ar   
    10    8    9 ar   
    11    9   10 ar   
    12    9   13 1    
    13   10   11 ar   
    14   11   12 ar   
    15   13   14 1    
    16   14   15 1    
    17   14   19 1    
    18   16   17 ar   
    19   16   21 ar   
    20   16   22 1    
    21   17   18 ar   
    22   18   19 ar   
    23   19   20 ar   
    24   20   21 ar   
    25   22   23 2    
    26   22   24 am   
    27   24   25 1    
    28   25   26 1    
    29   25   29 1    
    30   26   27 ar   
    31   26   28 ar   
    32   29   30 1    
    33   30   31 1    
    34   31   32 ar   
    35   31   33 ar   
@<TRIPOS>SUBSTRUCTURE
     1 MTX604      1 GROUP   
@<TRIPOS>SET

