#    Name: 6pfd_3_MTX
#    Modification time : Fri May 22 19:33:59 2020

@<TRIPOS>MOLECULE
6pfd_3_MTX
   33    35     1     0     0
SMALL
NO_CHARGES


@<TRIPOS>ATOM
      1 N1        263.2440   55.6270  305.0570 N.ar      1 MTX604      0.0000 
      2 C2        262.1660   56.2420  304.5370 C.ar      1 MTX604      0.0000 
      3 NA2       262.2500   56.7880  303.2070 N.pl3     1 MTX604      0.0000 
      4 N3        261.0150   56.3610  305.2170 N.ar      1 MTX604      0.0000 
      5 C4        260.9080   55.8580  306.4660 C.ar      1 MTX604      0.0000 
      6 NA4       259.6940   55.9750  307.2050 N.pl3     1 MTX604      0.0000 
      7 C4A       262.0140   55.2030  307.0560 C.ar      1 MTX604      0.0000 
      8 N5        261.9440   54.6800  308.3170 N.ar      1 MTX604      0.0000 
      9 C6        263.0290   54.0670  308.8340 C.ar      1 MTX604      0.0000 
     10 C7        264.2220   53.9500  308.1080 C.ar      1 MTX604      0.0000 
     11 N8        264.2730   54.4720  306.8630 N.ar      1 MTX604      0.0000 
     12 C8A       263.1800   55.1010  306.3210 C.ar      1 MTX604      0.0000 
     13 C9        262.9380   53.4950  310.2300 C.3       1 MTX604      0.0000 
     14 N10       264.1810   53.4640  310.9760 N.pl3     1 MTX604      0.0000 
     15 CM        264.6700   52.2110  311.5010 C.3       1 MTX604      0.0000 
     16 C11       266.4020   57.0340  311.5950 C.ar      1 MTX604      0.0000 
     17 C12       267.0290   55.7900  311.6070 C.ar      1 MTX604      0.0000 
     18 C13       266.2930   54.6260  311.4100 C.ar      1 MTX604      0.0000 
     19 C14       264.9260   54.7000  311.1870 C.ar      1 MTX604      0.0000 
     20 C15       264.2950   55.9450  311.1660 C.ar      1 MTX604      0.0000 
     21 C16       265.0330   57.1120  311.3670 C.ar      1 MTX604      0.0000 
     22 C         267.2250   58.2820  311.8050 C.2       1 MTX604      0.0000 
     23 O         268.2430   58.2210  312.4760 O.2       1 MTX604      0.0000 
     24 N         266.8500   59.5460  311.2120 N.am      1 MTX604      0.0000 
     25 CA        267.6710   60.7100  311.4200 C.3       1 MTX604      0.0000 
     26 CT        266.8100   61.9100  311.3610 C.2       1 MTX604      0.0000 
     27 O1        267.2960   63.0440  311.6110 O.co2     1 MTX604      0.0000 
     28 O2        265.5850   61.7920  311.0520 O.co2     1 MTX604      0.0000 
     29 CB        268.6300   60.7720  310.2810 C.3       1 MTX604      0.0000 
     30 CG        269.8870   61.5840  310.3640 C.3       1 MTX604      0.0000 
     31 CD        270.8850   61.3250  309.2800 C.2       1 MTX604      0.0000 
     32 OE1       271.0730   62.1790  308.3830 O.co2     1 MTX604      0.0000 
     33 OE2       271.6110   60.2980  309.3310 O.co2     1 MTX604      0.0000 
@<TRIPOS>BOND
     1    1    2 ar   
     2    1   12 ar   
     3    2    3 1    
     4    2    4 ar   
     5    4    5 ar   
     6    5    6 1    
     7    5    7 ar   
     8    7    8 ar   
     9    7   12 ar   
    10    8    9 ar   
    11    9   10 ar   
    12    9   13 1    
    13   10   11 ar   
    14   11   12 ar   
    15   13   14 1    
    16   14   15 1    
    17   14   19 1    
    18   16   17 ar   
    19   16   21 ar   
    20   16   22 1    
    21   17   18 ar   
    22   18   19 ar   
    23   19   20 ar   
    24   20   21 ar   
    25   22   23 2    
    26   22   24 am   
    27   24   25 1    
    28   25   26 1    
    29   25   29 1    
    30   26   27 ar   
    31   26   28 ar   
    32   29   30 1    
    33   30   31 1    
    34   31   32 ar   
    35   31   33 ar   
@<TRIPOS>SUBSTRUCTURE
     1 MTX604      1 GROUP   
@<TRIPOS>SET

