#    Name: 6u2h_2_29L
#    Modification time : Fri May 22 19:32:22 2020

@<TRIPOS>MOLECULE
6u2h_2_29L
   25    28     1     0     0
SMALL
NO_CHARGES


@<TRIPOS>ATOM
      1 C1         69.3770  131.7040  -38.7480           1 29L801      0.0000 
      2 C2         69.5490  130.9980  -39.9110           1 29L801      0.0000 
      3 C3         68.5960  130.0460  -40.2970           1 29L801      0.0000 
      4 C4         67.4780  129.8240  -39.4940           1 29L801      0.0000 
      5 C5         67.3130  130.5360  -38.3230           1 29L801      0.0000 
      6 C6         68.2650  131.4790  -37.9360           1 29L801      0.0000 
      7 C7         68.1420  132.3010  -36.7060           1 29L801      0.0000 
      8 C8         68.5240  133.6090  -36.6930           1 29L801      0.0000 
      9 N9         68.2990  134.1060  -35.4660           1 29L801      0.0000 
     10 N10        67.7560  133.0910  -34.6740           1 29L801      0.0000 
     11 C11        67.6500  131.9970  -35.3980           1 29L801      0.0000 
     12 C12        67.1060  130.7280  -34.8540           1 29L801      0.0000 
     13 C13        67.5960  129.4690  -35.2200           1 29L801      0.0000 
     14 C14        67.0290  128.3450  -34.6470           1 29L801      0.0000 
     15 N15        66.0480  128.4450  -33.7640           1 29L801      0.0000 
     16 C16        65.5620  129.6130  -33.3850           1 29L801      0.0000 
     17 C17        66.0720  130.7810  -33.9100           1 29L801      0.0000 
     18 C18        68.5810  135.4800  -35.0480           1 29L801      0.0000 
     19 C19        69.7660  135.4700  -34.0840           1 29L801      0.0000 
     20 O20        70.7930  136.3260  -34.5920           1 29L801      0.0000 
     21 C21        66.6120  128.7620  -40.1290           1 29L801      0.0000 
     22 C22        67.2260  128.4850  -41.5110           1 29L801      0.0000 
     23 C23        68.5660  129.1780  -41.4880           1 29L801      0.0000 
     24 N24        69.5690  128.9400  -42.2680           1 29L801      0.0000 
     25 O25        69.3650  128.3300  -43.5290           1 29L801      0.0000 
@<TRIPOS>BOND
     1    1    2 du   
     2    1    6 du   
     3    2    3 du   
     4    3    4 du   
     5    3   23 du   
     6    4    5 du   
     7    4   21 du   
     8    5    6 du   
     9    6    7 du   
    10    7    8 du   
    11    7   11 du   
    12    8    9 du   
    13    9   10 du   
    14    9   18 du   
    15   10   11 du   
    16   11   12 du   
    17   12   13 du   
    18   12   17 du   
    19   13   14 du   
    20   14   15 du   
    21   15   16 du   
    22   16   17 du   
    23   18   19 du   
    24   19   20 du   
    25   21   22 du   
    26   22   23 du   
    27   23   24 du   
    28   24   25 du   
@<TRIPOS>SUBSTRUCTURE
     1 29L801      1 GROUP   
@<TRIPOS>SET

