#    Name: 6u2h_1_29L
#    Modification time : Fri May 22 19:32:19 2020

@<TRIPOS>MOLECULE
6u2h_1_29L
   25    28     1     0     0
SMALL
NO_CHARGES


@<TRIPOS>ATOM
      1 C1         66.9960  101.0050  -30.1630           1 29L801      0.0000 
      2 C2         66.8140  100.9870  -31.5250           1 29L801      0.0000 
      3 C3         67.7080  101.6760  -32.3600           1 29L801      0.0000 
      4 C4         68.7760  102.3760  -31.7970           1 29L801      0.0000 
      5 C5         68.9520  102.3900  -30.4260           1 29L801      0.0000 
      6 C6         68.0580  101.7160  -29.5950           1 29L801      0.0000 
      7 C7         68.2250  101.6910  -28.1200           1 29L801      0.0000 
      8 C8         67.8890  100.5990  -27.3810           1 29L801      0.0000 
      9 N9         68.1640  100.8610  -26.0940           1 29L801      0.0000 
     10 N10        68.6870  102.1540  -26.0060           1 29L801      0.0000 
     11 C11        68.7350  102.6740  -27.2130           1 29L801      0.0000 
     12 C12        69.2420  104.0450  -27.4810           1 29L801      0.0000 
     13 C13        68.6310  104.9060  -28.4030           1 29L801      0.0000 
     14 C14        69.1590  106.1690  -28.5940           1 29L801      0.0000 
     15 N15        70.2180  106.5670  -27.9090           1 29L801      0.0000 
     16 C16        70.8170  105.7910  -27.0220           1 29L801      0.0000 
     17 C17        70.3590  104.5160  -26.7780           1 29L801      0.0000 
     18 C18        67.9320   99.9490  -24.9730           1 29L801      0.0000 
     19 C19        66.9350  100.6240  -24.0360           1 29L801      0.0000 
     20 O20        65.6900  100.7760  -24.7150           1 29L801      0.0000 
     21 C21        69.5960  103.0270  -32.8880           1 29L801      0.0000 
     22 C22        69.0580  102.4480  -34.2030           1 29L801      0.0000 
     23 C23        67.7400  101.8130  -33.8330           1 29L801      0.0000 
     24 N24        66.7510  101.5900  -34.6410           1 29L801      0.0000 
     25 O25        66.9530  101.6250  -36.0430           1 29L801      0.0000 
@<TRIPOS>BOND
     1    1    2 du   
     2    1    6 du   
     3    2    3 du   
     4    3    4 du   
     5    3   23 du   
     6    4    5 du   
     7    4   21 du   
     8    5    6 du   
     9    6    7 du   
    10    7    8 du   
    11    7   11 du   
    12    8    9 du   
    13    9   10 du   
    14    9   18 du   
    15   10   11 du   
    16   11   12 du   
    17   12   13 du   
    18   12   17 du   
    19   13   14 du   
    20   14   15 du   
    21   15   16 du   
    22   16   17 du   
    23   18   19 du   
    24   19   20 du   
    25   21   22 du   
    26   22   23 du   
    27   23   24 du   
    28   24   25 du   
@<TRIPOS>SUBSTRUCTURE
     1 29L801      1 GROUP   
@<TRIPOS>SET

