#    Name: 6auq_2_H4B_CAVITY_N1_4
#    Modification time : Fri May 22 19:34:57 2020

@<TRIPOS>MOLECULE
6auq_2_H4B_CAVITY_N1_4
    4     0     2     0     0
SMALL
NO_CHARGES


@<TRIPOS>ATOM
      1 CZ         14.1200    2.8100   53.3900 C.ar      1 PHE5        0.0000 
      2 CZ         12.7400    3.3700   53.5300 C.ar      1 PHE5        0.0000 
      3 DU         13.3000    0.9600   52.7600 H         2 CUB7        0.0000 
      4 DU         11.9200    1.5200   52.9000 H         2 CUB7        0.0000 
@<TRIPOS>BOND
@<TRIPOS>SUBSTRUCTURE
     1 PHE5        1 GROUP   
     2 CUB7        3 GROUP   
@<TRIPOS>SET

