#    Name: 6auq_1_H4B_CAVITY_N1_8
#    Modification time : Fri May 22 19:34:47 2020

@<TRIPOS>MOLECULE
6auq_1_H4B_CAVITY_N1_8
   84     0     7     0     0
SMALL
NO_CHARGES


@<TRIPOS>ATOM
      1 OG          1.2900   -3.2700   30.8700 O.3       1 SER1        0.0000 
      2 OG          0.2800   -2.1100   32.3300 O.3       1 SER1        0.0000 
      3 OG          2.0400   -2.0700   33.5200 O.3       1 SER1        0.0000 
      4 OG          2.8600   -0.2200   34.1500 O.3       1 SER1        0.0000 
      5 OG          3.2300    0.3800   35.4800 O.3       1 SER1        0.0000 
      6 N           0.7300   -0.8500   31.6400 N.am      2 ALA2        0.0000 
      7 N           0.6600   -1.5100   33.6500 N.am      2 ALA2        0.0000 
      8 N           4.0500    2.2300   36.1100 N.am      2 ALA2        0.0000 
      9 N           2.6700    2.7900   36.2400 N.am      2 ALA2        0.0000 
     10 O           5.7600    6.5900   35.3600 O.2       2 ALA2        0.0000 
     11 O           6.6900    4.7700   35.9100 O.2       2 ALA2        0.0000 
     12 N           5.3100    5.3400   36.0500 N.am      2 ALA2        0.0000 
     13 N           3.9300    5.9000   36.1900 N.am      2 ALA2        0.0000 
     14 N           6.2500    3.5200   36.6100 N.am      2 ALA2        0.0000 
     15 N           4.8700    4.0800   36.7400 N.am      2 ALA2        0.0000 
     16 N           3.4800    4.6500   36.8800 N.am      2 ALA2        0.0000 
     17 N           5.6900    5.9300   37.3700 N.am      2 ALA2        0.0000 
     18 O           5.2400    4.6800   38.0700 O.2       2 ALA2        0.0000 
     19 N           3.8600    5.2400   38.2000 N.am      2 ALA2        0.0000 
     20 OD1         1.8800   -0.7000   26.1500 O.co2     3 ASP3        0.0000 
     21 OD1         2.8200   -2.5100   26.7000 O.co2     3 ASP3        0.0000 
     22 OD1         3.1900   -1.9200   28.0300 O.co2     3 ASP3        0.0000 
     23 OD1         3.9400   -0.7200   30.6800 O.co2     3 ASP3        0.0000 
     24 OD1         2.5600   -0.1600   30.8100 O.co2     3 ASP3        0.0000 
     25 OD1         2.1100   -1.4100   31.5000 O.co2     3 ASP3        0.0000 
     26 OD1         4.7600    1.1300   31.3100 O.co2     3 ASP3        0.0000 
     27 OD1         4.3100   -0.1300   32.0000 O.co2     3 ASP3        0.0000 
     28 OD1         2.9300    0.4400   32.1400 O.co2     3 ASP3        0.0000 
     29 OD1         2.4900   -0.8200   32.8300 O.co2     3 ASP3        0.0000 
     30 OD1         6.5100    1.1600   32.5000 O.co2     3 ASP3        0.0000 
     31 OD1         4.6900    0.4700   33.3200 O.co2     3 ASP3        0.0000 
     32 OD1         8.2700    1.2000   33.6900 O.co2     3 ASP3        0.0000 
     33 OD1         6.8900    1.7600   33.8200 O.co2     3 ASP3        0.0000 
     34 NZ          1.6700   -2.6700   32.1900 N.4       4 LYS4        0.0000 
     35 CZ         -0.5800    0.3700   29.7600 C.ar      5 PHE5        0.0000 
     36 CZ         -0.2100    0.9700   31.0800 C.ar      5 PHE5        0.0000 
     37 CZ          5.2000    2.3800   30.6200 C.ar      5 PHE5        0.0000 
     38 CZ          8.3400    1.8500   31.6700 C.ar      5 PHE5        0.0000 
     39 CZ          6.9600    2.4200   31.8100 C.ar      5 PHE5        0.0000 
     40 CZ          5.5700    2.9800   31.9400 C.ar      5 PHE5        0.0000 
     41 CZ         10.1000    1.8900   32.8600 C.ar      5 PHE5        0.0000 
     42 CZ          8.7100    2.4500   32.9900 C.ar      5 PHE5        0.0000 
     43 CZ          7.3300    3.0100   33.1300 C.ar      5 PHE5        0.0000 
     44 CZ          5.9500    3.5800   33.2700 C.ar      5 PHE5        0.0000 
     45 CZ          5.0600    1.0700   34.6500 C.ar      5 PHE5        0.0000 
     46 CZ          9.0900    3.0500   34.3200 C.ar      5 PHE5        0.0000 
     47 CZ          7.7000    3.6100   34.4500 C.ar      5 PHE5        0.0000 
     48 CZ          6.3200    4.1800   34.5900 C.ar      5 PHE5        0.0000 
     49 CZ          8.6400    1.7900   35.0100 C.ar      5 PHE5        0.0000 
     50 CZ          7.2600    2.3600   35.1500 C.ar      5 PHE5        0.0000 
     51 CZ          5.8800    2.9200   35.2800 C.ar      5 PHE5        0.0000 
     52 CZ          5.4300    1.6700   35.9700 C.ar      5 PHE5        0.0000 
     53 CZ          7.6300    2.9500   36.4700 C.ar      5 PHE5        0.0000 
     54 CA          1.4300   -1.9500   26.8400 C.3       6 GLY6        0.0000 
     55 CA          1.3600   -2.6100   28.8500 C.3       6 GLY6        0.0000 
     56 CA          1.6200    1.6600   30.2600 C.3       6 GLY6        0.0000 
     57 CA          1.1700    0.4000   30.9500 C.3       6 GLY6        0.0000 
     58 CA          3.8200    2.9500   30.7500 C.3       6 GLY6        0.0000 
     59 CA          3.3700    1.6900   31.4400 C.3       6 GLY6        0.0000 
     60 CA          1.5500    1.0000   32.2700 C.3       6 GLY6        0.0000 
     61 CA          1.1000   -0.2500   32.9600 C.3       6 GLY6        0.0000 
     62 CA          5.1300    1.7300   32.6300 C.3       6 GLY6        0.0000 
     63 CA          3.3000    1.0400   33.4600 C.3       6 GLY6        0.0000 
     64 CA          5.5000    2.3200   33.9600 C.3       6 GLY6        0.0000 
     65 CA          4.1200    2.8900   34.0900 C.3       6 GLY6        0.0000 
     66 CA          3.6800    1.6300   34.7800 C.3       6 GLY6        0.0000 
     67 CA          2.2900    2.2000   34.9200 C.3       6 GLY6        0.0000 
     68 CA          4.9400    4.7400   34.7300 C.3       6 GLY6        0.0000 
     69 CA          3.5500    5.3000   34.8600 C.3       6 GLY6        0.0000 
     70 CA          4.4900    3.4800   35.4200 C.3       6 GLY6        0.0000 
     71 CA          3.1100    4.0500   35.5500 C.3       6 GLY6        0.0000 
     72 CA          8.0800    4.2100   35.7800 C.3       6 GLY6        0.0000 
     73 CA          3.0400    3.3900   37.5700 C.3       6 GLY6        0.0000 
     74 DU          3.6400   -0.6600   27.3400 H         7 CUB7        0.0000 
     75 DU          2.2500   -0.1000   27.4700 H         7 CUB7        0.0000 
     76 DU          1.8100   -1.3500   28.1600 H         7 CUB7        0.0000 
     77 DU          0.4300   -0.7900   28.3000 H         7 CUB7        0.0000 
     78 DU          1.2400    1.0600   28.9300 H         7 CUB7        0.0000 
     79 DU          2.1800   -0.7600   29.4900 H         7 CUB7        0.0000 
     80 DU          0.8000   -0.1900   29.6200 H         7 CUB7        0.0000 
     81 DU          1.7400   -2.0100   30.1800 H         7 CUB7        0.0000 
     82 DU          0.3500   -1.4500   30.3100 H         7 CUB7        0.0000 
     83 DU          4.3800    0.5300   29.9800 H         7 CUB7        0.0000 
     84 DU          3.0000    1.1000   30.1200 H         7 CUB7        0.0000 
@<TRIPOS>BOND
@<TRIPOS>SUBSTRUCTURE
     1 SER1        1 GROUP   
     2 ALA2        6 GROUP   
     3 ASP3       20 GROUP   
     4 LYS4       34 GROUP   
     5 PHE5       35 GROUP   
     6 GLY6       54 GROUP   
     7 CUB7       74 GROUP   
@<TRIPOS>SET

