#    Name: 6auq_2_H4B
#    Modification time : Fri May 22 19:34:56 2020

@<TRIPOS>MOLECULE
6auq_2_H4B
   17    18     1     0     1
SMALL
NO_CHARGES


@<TRIPOS>ATOM
      1 N1         14.4450    3.3460   48.2950 N.2       1 H4B802      0.0000 
      2 C2         14.5120    2.8110   49.5460 C.2       1 H4B802      0.0000 
      3 N2         13.4600    2.1130   50.0570 N.pl3     1 H4B802      0.0000 
      4 N3         15.6270    2.9840   50.2950 N.am      1 H4B802      0.0000 
      5 C4         16.6910    3.6880   49.8210 C.2       1 H4B802      0.0000 
      6 O4         17.7180    3.8380   50.5280 O.2       1 H4B802      0.0000 
      7 C4A        16.6360    4.2440   48.5490 C.2       1 H4B802      0.0000 
      8 C8A        15.4910    4.0540   47.7860 C.2       1 H4B802      0.0000 
      9 N5         17.6730    4.9640   48.0460 N.3       1 H4B802      0.0000 
     10 N8         15.4130    4.5950   46.5380 N.pl3     1 H4B802      0.0000 
     11 C6         17.3620    5.9400   47.0040 C.3       1 H4B802      0.0000 
     12 C7         16.5500    5.2720   45.9010 C.3       1 H4B802      0.0000 
     13 C9         18.6160    6.5900   46.4320 C.3       1 H4B802      0.0000 
     14 O9         19.5790    5.5830   46.1040 O.3       1 H4B802      0.0000 
     15 C10        18.2840    7.4180   45.1930 C.3       1 H4B802      0.0000 
     16 C11        19.4440    8.3200   44.7840 C.3       1 H4B802      0.0000 
     17 O10        17.1470    8.2450   45.4650 O.3       1 H4B802      0.0000 
@<TRIPOS>BOND
     1    1    2 2    
     2    1    8 1    
     3    2    3 1    
     4    2    4 1    
     5    4    5 am   
     6    5    6 2    
     7    5    7 1    
     8    7    8 2    
     9    7    9 1    
    10    8   10 1    
    11    9   11 1    
    12   10   12 1    
    13   11   12 1    
    14   11   13 1    
    15   13   14 1    
    16   13   15 1    
    17   15   16 1    
    18   15   17 1    
@<TRIPOS>SUBSTRUCTURE
     1 H4B802      1 GROUP   
@<TRIPOS>SET
ATOM$ORANGE STATIC     ATOMS   COLORGROUP SYSTEM 
18 2 2 5 5 7 7 8 8 11 11 12 12 13 13 15 15 16 \
16 

