#    Name: 6auq_2_H4B_CAVITY_N1_8
#    Modification time : Fri May 22 19:34:57 2020

@<TRIPOS>MOLECULE
6auq_2_H4B_CAVITY_N1_8
   34     0     6     0     0
SMALL
NO_CHARGES


@<TRIPOS>ATOM
      1 OG         12.9900    7.6400   54.9300 O.3       1 SER1        0.0000 
      2 N          11.3500    3.9400   53.6700 N.am      2 ALA2        0.0000 
      3 N          10.9100    2.6800   54.3600 N.am      2 ALA2        0.0000 
      4 N           9.5300    3.2500   54.4900 N.am      2 ALA2        0.0000 
      5 N           9.0800    1.9900   55.1800 N.am      2 ALA2        0.0000 
      6 N           8.6400    0.7400   55.8800 N.am      2 ALA2        0.0000 
      7 N          11.7300    4.5400   54.9900 N.am      2 ALA2        0.0000 
      8 N          10.3400    5.1000   55.1300 N.am      2 ALA2        0.0000 
      9 N           9.4600    2.5900   56.5100 N.am      2 ALA2        0.0000 
     10 NZ         11.4700    0.2700   53.5900 N.4       3 LYS4        0.0000 
     11 NZ         13.6800    1.5600   54.0900 N.4       3 LYS4        0.0000 
     12 NZ         11.8500    0.8600   54.9100 N.4       3 LYS4        0.0000 
     13 NZ         10.0200    0.1700   55.7400 N.4       3 LYS4        0.0000 
     14 CZ         14.1200    2.8100   53.3900 C.ar      4 PHE5        0.0000 
     15 CZ         12.7400    3.3700   53.5300 C.ar      4 PHE5        0.0000 
     16 CZ         12.6100    7.0500   53.6100 C.ar      4 PHE5        0.0000 
     17 CZ         12.1700    5.7900   54.3000 C.ar      4 PHE5        0.0000 
     18 CZ         13.1100    3.9700   54.8500 C.ar      4 PHE5        0.0000 
     19 CA         12.8600   -0.3000   53.4500 C.3       5 GLY6        0.0000 
     20 CA          9.6500   -0.4200   54.4200 C.3       5 GLY6        0.0000 
     21 CA         10.7900    6.3500   54.4300 C.3       5 GLY6        0.0000 
     22 CA          8.9600    5.6600   55.2600 C.3       5 GLY6        0.0000 
     23 CA          9.9000    3.8400   55.8200 C.3       5 GLY6        0.0000 
     24 CA         11.1600    6.9500   55.7600 C.3       5 GLY6        0.0000 
     25 DU         13.3000    0.9600   52.7600 H         6 CUB7        0.0000 
     26 DU         11.9200    1.5200   52.9000 H         6 CUB7        0.0000 
     27 DU         12.2900    2.1200   54.2200 H         6 CUB7        0.0000 
     28 DU         10.4700    1.4300   55.0500 H         6 CUB7        0.0000 
     29 DU         12.6700    2.7200   55.5500 H         6 CUB7        0.0000 
     30 DU         11.2800    3.2800   55.6800 H         6 CUB7        0.0000 
     31 DU         10.8400    2.0300   56.3700 H         6 CUB7        0.0000 
     32 DU         10.4000    0.7700   57.0600 H         6 CUB7        0.0000 
     33 DU         12.5400    6.3900   55.6200 H         6 CUB7        0.0000 
     34 DU         10.7200    5.7000   56.4500 H         6 CUB7        0.0000 
@<TRIPOS>BOND
@<TRIPOS>SUBSTRUCTURE
     1 SER1        1 GROUP   
     2 ALA2        2 GROUP   
     3 LYS4       10 GROUP   
     4 PHE5       14 GROUP   
     5 GLY6       19 GROUP   
     6 CUB7       25 GROUP   
@<TRIPOS>SET

