#    Name: 6auq_1_H4B
#    Modification time : Fri May 22 19:34:46 2020

@<TRIPOS>MOLECULE
6auq_1_H4B
   17    18     1     0     1
SMALL
NO_CHARGES


@<TRIPOS>ATOM
      1 N1          9.8110    2.4410   33.9100 N.2       1 H4B802      0.0000 
      2 C2          9.9940    1.9480   32.6620 C.2       1 H4B802      0.0000 
      3 N2         11.2550    1.7560   32.1780 N.pl3     1 H4B802      0.0000 
      4 N3          8.9190    1.6390   31.9040 N.am      1 H4B802      0.0000 
      5 C4          7.6560    1.8160   32.3670 C.2       1 H4B802      0.0000 
      6 O4          6.6950    1.5170   31.6210 O.2       1 H4B802      0.0000 
      7 C4A         7.4540    2.3400   33.6480 C.2       1 H4B802      0.0000 
      8 C8A         8.5710    2.6430   34.4140 C.2       1 H4B802      0.0000 
      9 N5          6.2150    2.5460   34.1670 N.3       1 H4B802      0.0000 
     10 N8          8.4430    3.1490   35.6680 N.pl3     1 H4B802      0.0000 
     11 C6          6.0880    3.5040   35.2620 C.3       1 H4B802      0.0000 
     12 C7          7.1510    3.2600   36.3210 C.3       1 H4B802      0.0000 
     13 C9          4.7280    3.4730   35.9420 C.3       1 H4B802      0.0000 
     14 O9          4.5170    2.1780   36.4920 O.3       1 H4B802      0.0000 
     15 C10         4.6850    4.4510   37.1090 C.3       1 H4B802      0.0000 
     16 C11         3.2440    4.6350   37.5540 C.3       1 H4B802      0.0000 
     17 O10         5.1980    5.7090   36.6840 O.3       1 H4B802      0.0000 
@<TRIPOS>BOND
     1    1    2 2    
     2    1    8 1    
     3    2    3 1    
     4    2    4 1    
     5    4    5 am   
     6    5    6 2    
     7    5    7 1    
     8    7    8 2    
     9    7    9 1    
    10    8   10 1    
    11    9   11 1    
    12   10   12 1    
    13   11   12 1    
    14   11   13 1    
    15   13   14 1    
    16   13   15 1    
    17   15   16 1    
    18   15   17 1    
@<TRIPOS>SUBSTRUCTURE
     1 H4B802      1 GROUP   
@<TRIPOS>SET
ATOM$ORANGE STATIC     ATOMS   COLORGROUP SYSTEM 
18 2 2 5 5 7 7 8 8 11 11 12 12 13 13 15 15 16 \
16 

