#    Name: 6auq_2_H4B_CAVITY_N1_ALL
#    Modification time : Fri May 22 19:34:57 2020

@<TRIPOS>MOLECULE
6auq_2_H4B_CAVITY_N1_ALL
   72     0     6     0     0
SMALL
NO_CHARGES


@<TRIPOS>ATOM
      1 OG         12.9900    7.6400   54.9300 O.3       1 SER1        0.0000 
      2 N          11.3500    3.9400   53.6700 N.am      2 ALA2        0.0000 
      3 N          10.9100    2.6800   54.3600 N.am      2 ALA2        0.0000 
      4 N           9.5300    3.2500   54.4900 N.am      2 ALA2        0.0000 
      5 N           9.0800    1.9900   55.1800 N.am      2 ALA2        0.0000 
      6 N           8.6400    0.7400   55.8800 N.am      2 ALA2        0.0000 
      7 N          11.7300    4.5400   54.9900 N.am      2 ALA2        0.0000 
      8 N          10.3400    5.1000   55.1300 N.am      2 ALA2        0.0000 
      9 N           9.4600    2.5900   56.5100 N.am      2 ALA2        0.0000 
     10 N           9.0100    1.3300   57.2000 N.am      2 ALA2        0.0000 
     11 N           9.8300    3.1900   57.8300 N.am      2 ALA2        0.0000 
     12 N           8.4500    3.7500   57.9700 N.am      2 ALA2        0.0000 
     13 N           9.3900    1.9300   58.5200 N.am      2 ALA2        0.0000 
     14 O           8.3800    3.0900   59.9800 O.2       2 ALA2        0.0000 
     15 O           7.3700    4.2500   61.4400 O.2       2 ALA2        0.0000 
     16 NZ         11.4700    0.2700   53.5900 N.4       3 LYS4        0.0000 
     17 NZ         13.6800    1.5600   54.0900 N.4       3 LYS4        0.0000 
     18 NZ         11.8500    0.8600   54.9100 N.4       3 LYS4        0.0000 
     19 NZ         10.0200    0.1700   55.7400 N.4       3 LYS4        0.0000 
     20 CZ         14.1200    2.8100   53.3900 C.ar      4 PHE5        0.0000 
     21 CZ         12.7400    3.3700   53.5300 C.ar      4 PHE5        0.0000 
     22 CZ         12.6100    7.0500   53.6100 C.ar      4 PHE5        0.0000 
     23 CZ         12.1700    5.7900   54.3000 C.ar      4 PHE5        0.0000 
     24 CZ         13.1100    3.9700   54.8500 C.ar      4 PHE5        0.0000 
     25 CZ          9.2600    5.6000   58.6000 C.ar      4 PHE5        0.0000 
     26 CZ         10.2000    3.7800   59.1600 C.ar      4 PHE5        0.0000 
     27 CZ          8.8200    4.3500   59.2900 C.ar      4 PHE5        0.0000 
     28 CZ          7.4400    4.9100   59.4300 C.ar      4 PHE5        0.0000 
     29 CZ          9.7600    2.5300   59.8500 C.ar      4 PHE5        0.0000 
     30 CZ          7.9300    1.8400   60.6800 C.ar      4 PHE5        0.0000 
     31 CZ         10.0800    7.4500   59.2300 C.ar      4 PHE5        0.0000 
     32 CZ          8.7000    8.0200   59.3700 C.ar      4 PHE5        0.0000 
     33 CZ          9.6400    6.2000   59.9300 C.ar      4 PHE5        0.0000 
     34 CZ          8.2500    6.7600   60.0600 C.ar      4 PHE5        0.0000 
     35 CZ          7.8100    5.5100   60.7500 C.ar      4 PHE5        0.0000 
     36 CZ          8.7500    3.6900   61.3100 C.ar      4 PHE5        0.0000 
     37 CZ          8.3100    2.4300   62.0000 C.ar      4 PHE5        0.0000 
     38 CZ          6.9200    3.0000   62.1400 C.ar      4 PHE5        0.0000 
     39 CZ          8.1800    6.1100   62.0800 C.ar      4 PHE5        0.0000 
     40 CZ          7.7400    4.8500   62.7700 C.ar      4 PHE5        0.0000 
     41 CA         12.8600   -0.3000   53.4500 C.3       5 GLY6        0.0000 
     42 CA          9.6500   -0.4200   54.4200 C.3       5 GLY6        0.0000 
     43 CA         10.7900    6.3500   54.4300 C.3       5 GLY6        0.0000 
     44 CA          8.9600    5.6600   55.2600 C.3       5 GLY6        0.0000 
     45 CA          9.9000    3.8400   55.8200 C.3       5 GLY6        0.0000 
     46 CA         11.6000    8.2100   55.0700 C.3       5 GLY6        0.0000 
     47 CA         11.1600    6.9500   55.7600 C.3       5 GLY6        0.0000 
     48 CA          9.7800    7.5200   55.9000 C.3       5 GLY6        0.0000 
     49 CA          9.3300    6.2600   56.5900 C.3       5 GLY6        0.0000 
     50 CA         10.2700    4.4400   57.1400 C.3       5 GLY6        0.0000 
     51 CA          8.8900    5.0100   57.2800 C.3       5 GLY6        0.0000 
     52 CA         11.9800    8.8000   56.3900 C.3       5 GLY6        0.0000 
     53 CA         10.5900    9.3700   56.5300 C.3       5 GLY6        0.0000 
     54 CA         11.5300    7.5500   57.0800 C.3       5 GLY6        0.0000 
     55 CA         10.1500    8.1100   57.2200 C.3       5 GLY6        0.0000 
     56 CA          8.7700    8.6800   57.3600 C.3       5 GLY6        0.0000 
     57 CA          9.7100    6.8600   57.9100 C.3       5 GLY6        0.0000 
     58 CA          8.3200    7.4200   58.0500 C.3       5 GLY6        0.0000 
     59 CA          7.8800    6.1700   58.7400 C.3       5 GLY6        0.0000 
     60 CA         10.5200    8.7100   58.5400 C.3       5 GLY6        0.0000 
     61 CA          9.1400    9.2700   58.6800 C.3       5 GLY6        0.0000 
     62 CA          6.8700    7.3300   60.2000 C.3       5 GLY6        0.0000 
     63 DU         13.3000    0.9600   52.7600 H         6 CUB7        0.0000 
     64 DU         11.9200    1.5200   52.9000 H         6 CUB7        0.0000 
     65 DU         12.2900    2.1200   54.2200 H         6 CUB7        0.0000 
     66 DU         10.4700    1.4300   55.0500 H         6 CUB7        0.0000 
     67 DU         12.6700    2.7200   55.5500 H         6 CUB7        0.0000 
     68 DU         11.2800    3.2800   55.6800 H         6 CUB7        0.0000 
     69 DU         10.8400    2.0300   56.3700 H         6 CUB7        0.0000 
     70 DU         10.4000    0.7700   57.0600 H         6 CUB7        0.0000 
     71 DU         12.5400    6.3900   55.6200 H         6 CUB7        0.0000 
     72 DU         10.7200    5.7000   56.4500 H         6 CUB7        0.0000 
@<TRIPOS>BOND
@<TRIPOS>SUBSTRUCTURE
     1 SER1        1 GROUP   
     2 ALA2        2 GROUP   
     3 LYS4       16 GROUP   
     4 PHE5       20 GROUP   
     5 GLY6       41 GROUP   
     6 CUB7       63 GROUP   
@<TRIPOS>SET

