#    Name: 6r51_1_SER_LEU_ARG_PRO_ALA_PRO_ACE_LPD
#    Modification time : Fri May 22 19:29:43 2020

@<TRIPOS>MOLECULE
6r51_1_SER_LEU_ARG_PRO_ALA_PRO_ACE_LPD
  115   117     8     0     0
SMALL
NO_CHARGES


@<TRIPOS>ATOM
      1 N          -3.7210   39.7930   60.1340 N.am      1 SER32       0.0000 
      2 CA         -3.1790   38.4410   60.0680 C.3       1 SER32       0.0000 
      3 C          -4.2600   37.4140   60.3650 C.2       1 SER32       0.0000 
      4 O          -4.9500   37.4810   61.3830 O.2       1 SER32       0.0000 
      5 CB         -2.0180   38.2780   61.0550 C.3       1 SER32       0.0000 
      6 OG         -1.4420   36.9830   60.9760 O.3       1 SER32       0.0000 
      7 H          -3.3430   40.3050   60.7120 H         1 SER32       0.0000 
      8 HA         -2.8380   38.2790   59.1750 H         1 SER32       0.0000 
      9 HB2        -1.3370   38.9360   60.8480 H         1 SER32       0.0000 
     10 HB3        -2.3520   38.4170   61.9560 H         1 SER32       0.0000 
     11 HG         -1.8980   36.4380   61.4240 H         1 SER32       0.0000 
     12 N          -4.3770   36.4520   59.4560 N.am      2 LEU33       0.0000 
     13 CA         -5.3900   35.4100   59.5120 C.3       2 LEU33       0.0000 
     14 C          -4.7090   34.0820   59.2370 C.2       2 LEU33       0.0000 
     15 O          -4.1180   33.9050   58.1680 O.2       2 LEU33       0.0000 
     16 CB         -6.5010   35.6450   58.4900 C.3       2 LEU33       0.0000 
     17 CG         -7.8180   34.9180   58.7750 C.3       2 LEU33       0.0000 
     18 CD1        -8.5690   35.5530   59.9240 C.3       2 LEU33       0.0000 
     19 CD2        -8.6520   34.8790   57.5000 C.3       2 LEU33       0.0000 
     20 H          -3.8600   36.3810   58.7720 H         2 LEU33       0.0000 
     21 HA         -5.7890   35.3950   60.3970 H         2 LEU33       0.0000 
     22 HB2        -6.6940   36.5950   58.4630 H         2 LEU33       0.0000 
     23 HB3        -6.1870   35.3450   57.6230 H         2 LEU33       0.0000 
     24 HG         -7.6360   34.0070   59.0510 H         2 LEU33       0.0000 
     25 HD11       -9.4390   35.1310   60.0050 H         2 LEU33       0.0000 
     26 HD12       -8.0620   35.4250   60.7410 H         2 LEU33       0.0000 
     27 HD13       -8.6760   36.5000   59.7470 H         2 LEU33       0.0000 
     28 HD21       -9.4290   34.3180   57.6480 H         2 LEU33       0.0000 
     29 HD22       -8.9330   35.7810   57.2790 H         2 LEU33       0.0000 
     30 HD23       -8.1130   34.5140   56.7810 H         2 LEU33       0.0000 
     31 N          -4.7200   33.1810   60.2140 N.am      3 ARG34       0.0000 
     32 CA         -4.1340   31.8680   60.0020 C.3       3 ARG34       0.0000 
     33 C          -5.0460   30.7580   60.5160 C.2       3 ARG34       0.0000 
     34 O          -5.4490   30.7790   61.6920 O.2       3 ARG34       0.0000 
     35 CB         -2.7450   31.7440   60.6300 C.3       3 ARG34       0.0000 
     36 CG         -1.7550   32.7460   60.0890 C.3       3 ARG34       0.0000 
     37 CD         -0.3310   32.3310   60.3960 C.3       3 ARG34       0.0000 
     38 NE          0.1470   31.2090   59.5980 N.pl3     3 ARG34       0.0000 
     39 CZ          0.7670   31.3420   58.4320 C.cat     3 ARG34       0.0000 
     40 NH1         0.9740   32.5470   57.9220 N.pl3     3 ARG34       0.0000 
     41 NH2         1.1820   30.2720   57.7740 N.pl3     3 ARG34       0.0000 
     42 H          -5.0570   33.3070   60.9950 H         3 ARG34       0.0000 
     43 HA         -4.0490   31.7540   59.0420 H         3 ARG34       0.0000 
     44 HB2        -2.8200   31.8850   61.5870 H         3 ARG34       0.0000 
     45 HB3        -2.3980   30.8560   60.4520 H         3 ARG34       0.0000 
     46 HG2        -1.8550   32.8100   59.1270 H         3 ARG34       0.0000 
     47 HG3        -1.9170   33.6110   60.4980 H         3 ARG34       0.0000 
     48 HD2         0.2560   33.0840   60.2270 H         3 ARG34       0.0000 
     49 HD3        -0.2770   32.0710   61.3290 H         3 ARG34       0.0000 
     50 HE          0.0200   30.4140   59.9000 H         3 ARG34       0.0000 
     51 HH11        0.7060   33.2450   58.3460 H         3 ARG34       0.0000 
     52 HH12        1.3750   32.6310   57.1660 H         3 ARG34       0.0000 
     53 HH21        1.0500   29.4870   58.1020 H         3 ARG34       0.0000 
     54 HH22        1.5840   30.3600   57.0180 H         3 ARG34       0.0000 
     55 N          -5.3870   29.7870   59.6750 N.am      4 PRO35       0.0000 
     56 CA         -6.2020   28.6570   60.1240 C.3       4 PRO35       0.0000 
     57 C          -5.3560   27.6870   60.9390 C.2       4 PRO35       0.0000 
     58 O          -4.1250   27.7320   60.9340 O.2       4 PRO35       0.0000 
     59 CB         -6.6600   28.0160   58.8090 C.3       4 PRO35       0.0000 
     60 CG         -5.4800   28.2460   57.8960 C.3       4 PRO35       0.0000 
     61 CD         -4.9570   29.6280   58.2710 C.3       4 PRO35       0.0000 
     62 HA         -6.9750   28.9460   60.6350 H         4 PRO35       0.0000 
     63 HB2        -6.8330   27.0700   58.9350 H         4 PRO35       0.0000 
     64 HB3        -7.4570   28.4580   58.4760 H         4 PRO35       0.0000 
     65 HG2        -4.8060   27.5660   58.0510 H         4 PRO35       0.0000 
     66 HG3        -5.7690   28.2230   56.9710 H         4 PRO35       0.0000 
     67 HD2        -3.9900   29.6610   58.2000 H         4 PRO35       0.0000 
     68 HD3        -5.3550   30.3110   57.7080 H         4 PRO35       0.0000 
     69 N          -6.0470   26.8160   61.6710 N.am      5 ALA36       0.0000 
     70 CA         -5.3870   25.6860   62.3040 C.3       5 ALA36       0.0000 
     71 C          -4.7110   24.8100   61.2460 C.2       5 ALA36       0.0000 
     72 O          -5.0730   24.8500   60.0650 O.2       5 ALA36       0.0000 
     73 CB         -6.4010   24.8650   63.1010 C.3       5 ALA36       0.0000 
     74 H          -6.8940   26.8590   61.8140 H         5 ALA36       0.0000 
     75 HA         -4.7040   26.0040   62.9150 H         5 ALA36       0.0000 
     76 HB1        -5.9510   24.0970   63.4880 H         5 ALA36       0.0000 
     77 HB2        -6.7730   25.4200   63.8040 H         5 ALA36       0.0000 
     78 HB3        -7.1060   24.5690   62.5040 H         5 ALA36       0.0000 
     79 N          -3.7180   23.9950   61.6520 N.am      6 PRO37       0.0000 
     80 CA         -3.0470   23.0900   60.7060 C.3       6 PRO37       0.0000 
     81 C          -4.0200   22.0450   60.1750 C.2       6 PRO37       0.0000 
     82 O          -4.7590   21.4740   60.9700 O.2       6 PRO37       0.0000 
     83 CB         -1.9530   22.4210   61.5540 C.3       6 PRO37       0.0000 
     84 CG         -1.7890   23.2970   62.7660 C.3       6 PRO37       0.0000 
     85 CD         -3.1740   23.8630   63.0170 C.3       6 PRO37       0.0000 
     86 HA         -2.6290   23.5770   59.9790 H         6 PRO37       0.0000 
     87 HB2        -2.2350   21.5290   61.8090 H         6 PRO37       0.0000 
     88 HB3        -1.1270   22.3760   61.0470 H         6 PRO37       0.0000 
     89 HG2        -1.4880   22.7670   63.5200 H         6 PRO37       0.0000 
     90 HG3        -1.1520   24.0050   62.5810 H         6 PRO37       0.0000 
     91 HD2        -3.7090   23.2520   63.5480 H         6 PRO37       0.0000 
     92 HD3        -3.1230   24.7260   63.4560 H         6 PRO37       0.0000 
     93 C          -4.7250   40.1550   59.3370 C.2       7 ACE31       0.0000 
     94 O          -5.2350   39.3820   58.5260 O.2       7 ACE31       0.0000 
     95 CH3        -5.1960   41.5690   59.4880 C.3       7 ACE31       0.0000 
     96 H1         -5.0140   42.1140   58.5620 H         7 ACE31       0.0000 
     97 H2         -4.6540   42.0480   60.3040 H         7 ACE31       0.0000 
     98 H3         -6.2640   41.5750   59.7090 H         7 ACE31       0.0000 
     99 O          -3.4170   19.0810   59.1310 O.2       8 LPD38       0.0000 
    100 C          -4.5710   19.3880   58.9000 C.2       8 LPD38       0.0000 
    101 N2         -5.5830   18.5620   59.1630 N.am      8 LPD38       0.0000 
    102 CA         -4.8950   20.7430   58.3490 C.3       8 LPD38       0.0000 
    103 N          -4.0360   21.7910   58.8710 N.4       8 LPD38       0.0000 
    104 CD         -3.1270   22.3100   57.8570 C.3       8 LPD38       0.0000 
    105 CG         -3.6300   21.7830   56.5130 C.3       8 LPD38       0.0000 
    106 CB         -4.7580   20.7910   56.8270 C.3       8 LPD38       0.0000 
    107 HN21       -5.3910   17.6500   59.5450 H         8 LPD38       0.0000 
    108 HN22       -6.5380   18.8380   58.9800 H         8 LPD38       0.0000 
    109 HA         -5.9430   20.9170   58.6310 H         8 LPD38       0.0000 
    110 HD3        -3.1240   23.4020   57.8660 H         8 LPD38       0.0000 
    111 HD2        -2.1060   21.9700   58.0460 H         8 LPD38       0.0000 
    112 HG3        -4.0000   22.6020   55.8930 H         8 LPD38       0.0000 
    113 HG2        -2.8230   21.2880   55.9680 H         8 LPD38       0.0000 
    114 HB2        -5.6940   21.1170   56.3680 H         8 LPD38       0.0000 
    115 HB3        -4.5190   19.8010   56.4330 H         8 LPD38       0.0000 
@<TRIPOS>BOND
     1    1    2 1    
     2    2    3 1    
     3    1    7 1    
     4    1   93 du   
     5    2    5 1    
     6    2    8 1    
     7    3    4 2    
     8    3   12 am   
     9    5    6 1    
    10    5    9 1    
    11    5   10 1    
    12    6   11 1    
    13   12   13 1    
    14   13   14 1    
    15   12   20 1    
    16   13   16 1    
    17   13   21 1    
    18   14   15 2    
    19   14   31 am   
    20   16   17 1    
    21   16   22 1    
    22   16   23 1    
    23   17   18 1    
    24   17   19 1    
    25   17   24 1    
    26   18   25 1    
    27   18   26 1    
    28   18   27 1    
    29   19   28 1    
    30   19   29 1    
    31   19   30 1    
    32   31   32 1    
    33   32   33 1    
    34   31   42 1    
    35   32   35 1    
    36   32   43 1    
    37   33   34 2    
    38   33   55 am   
    39   35   36 1    
    40   35   44 1    
    41   35   45 1    
    42   36   37 1    
    43   36   46 1    
    44   36   47 1    
    45   37   38 1    
    46   37   48 1    
    47   37   49 1    
    48   38   39 ar   
    49   39   40 ar   
    50   38   50 1    
    51   39   41 ar   
    52   55   56 1    
    53   40   51 1    
    54   40   52 1    
    55   41   53 1    
    56   41   54 1    
    57   55   61 1    
    58   56   57 1    
    59   56   59 1    
    60   56   62 1    
    61   57   58 2    
    62   57   69 am   
    63   59   60 1    
    64   59   63 1    
    65   59   64 1    
    66   60   61 1    
    67   60   65 1    
    68   60   66 1    
    69   61   67 1    
    70   61   68 1    
    71   69   70 1    
    72   70   71 1    
    73   69   74 1    
    74   70   73 1    
    75   70   75 1    
    76   71   72 2    
    77   71   79 am   
    78   73   76 1    
    79   73   77 1    
    80   73   78 1    
    81   79   80 1    
    82   79   85 1    
    83   80   81 1    
    84   80   83 1    
    85   80   86 1    
    86   81   82 2    
    87   81  103 du   
    88   83   84 1    
    89   83   87 1    
    90   83   88 1    
    91   84   85 1    
    92   84   89 1    
    93   84   90 1    
    94   85   91 1    
    95   85   92 1    
    96   93   94 2    
    97   93   95 1    
    98   95   96 1    
    99   95   97 1    
   100   95   98 1    
   101   99  100 2    
   102  100  101 am   
   103  100  102 1    
   104  101  107 1    
   105  101  108 1    
   106  102  103 1    
   107  102  106 1    
   108  102  109 1    
   109  103  104 1    
   110  104  105 1    
   111  104  110 1    
   112  104  111 1    
   113  105  106 1    
   114  105  112 1    
   115  105  113 1    
   116  106  114 1    
   117  106  115 1    
@<TRIPOS>SUBSTRUCTURE
     1 SER32       1 RESIDUE 
     2 LEU33      12 RESIDUE 
     3 ARG34      31 RESIDUE 
     4 PRO35      55 RESIDUE 
     5 ALA36      69 RESIDUE 
     6 PRO37      79 RESIDUE 
     7 ACE31      93 GROUP   
     8 LPD38      99 GROUP   
@<TRIPOS>SET

