#    Name: 6r51_3_SER_LEU_ARG_PRO_ALA_PRO_ACE_LPD_CAVITY_N1_12
#    Modification time : Fri May 22 19:29:53 2020

@<TRIPOS>MOLECULE
6r51_3_SER_LEU_ARG_PRO_ALA_PRO_ACE_LPD_CAVITY_N1_12
  106     0     6     0     0
SMALL
NO_CHARGES


@<TRIPOS>ATOM
      1 OG         13.4300    6.9900   36.2300 O.3       1 SER1        0.0000 
      2 OG         13.0000    5.6000   36.6000 O.3       1 SER1        0.0000 
      3 OG         16.2000    9.9100   38.2400 O.3       1 SER1        0.0000 
      4 O          14.6500    2.3500   32.3400 O.2       2 ALA2        0.0000 
      5 N          13.3500    7.7700   32.9700 N.am      2 ALA2        0.0000 
      6 O          16.7500    3.5700   33.2700 O.2       2 ALA2        0.0000 
      7 N          19.1500    1.2300   33.3500 N.am      2 ALA2        0.0000 
      8 O          17.7400    1.7100   33.4900 O.2       2 ALA2        0.0000 
      9 O          16.3200    2.1800   33.6400 O.2       2 ALA2        0.0000 
     10 O          14.9000    2.6500   33.7800 O.2       2 ALA2        0.0000 
     11 O          13.4900    3.1300   33.9300 O.2       2 ALA2        0.0000 
     12 N          18.7200   -0.1600   33.7100 N.am      2 ALA2        0.0000 
     13 O          15.8900    0.7900   34.0100 O.2       2 ALA2        0.0000 
     14 O          14.4800    1.2600   34.1500 O.2       2 ALA2        0.0000 
     15 N          16.8800   -1.0700   34.2300 N.am      2 ALA2        0.0000 
     16 O          18.2800    8.0500   33.6100 O.2       2 ALA2        0.0000 
     17 N          15.4500    8.9900   33.9000 N.am      2 ALA2        0.0000 
     18 O          16.4400    7.1300   34.1200 O.2       2 ALA2        0.0000 
     19 N          15.0200    7.6000   34.2700 N.am      2 ALA2        0.0000 
     20 N          13.6100    8.0800   34.4200 N.am      2 ALA2        0.0000 
     21 O          16.0100    5.7400   34.4900 O.2       2 ALA2        0.0000 
     22 O          17.0000    3.8800   34.7200 O.2       2 ALA2        0.0000 
     23 O          12.3200    3.9100   35.5200 O.2       2 ALA2        0.0000 
     24 O          14.7300    1.5700   35.6000 O.2       2 ALA2        0.0000 
     25 O          13.3100    2.0400   35.7400 O.2       2 ALA2        0.0000 
     26 N          16.1300   10.6900   34.9800 N.am      2 ALA2        0.0000 
     27 O          18.5300    8.3500   35.0600 O.2       2 ALA2        0.0000 
     28 N          15.7000    9.3000   35.3500 N.am      2 ALA2        0.0000 
     29 O          18.1000    6.9600   35.4300 O.2       2 ALA2        0.0000 
     30 O          16.6900    7.4400   35.5700 O.2       2 ALA2        0.0000 
     31 N          12.1500    2.8200   37.3400 N.am      2 ALA2        0.0000 
     32 N          20.2000    8.1800   36.3600 N.am      2 ALA2        0.0000 
     33 N          18.9000   13.6100   36.9900 N.am      2 ALA2        0.0000 
     34 N          18.4700   12.2200   37.3600 N.am      2 ALA2        0.0000 
     35 N          17.0600   12.6900   37.5100 N.am      2 ALA2        0.0000 
     36 N          16.6300   11.3000   37.8700 N.am      2 ALA2        0.0000 
     37 N          19.1500   13.9100   38.4400 N.am      2 ALA2        0.0000 
     38 N          18.7200   12.5200   38.8100 N.am      2 ALA2        0.0000 
     39 N          16.8800   11.6100   39.3200 N.am      2 ALA2        0.0000 
     40 NZ         14.8500    6.5200   36.0900 N.4       3 LYS4        0.0000 
     41 NZ         18.7800    8.6600   36.5000 N.4       3 LYS4        0.0000 
     42 NZ         17.3700    9.1300   36.6500 N.4       3 LYS4        0.0000 
     43 NZ         15.9500    9.6100   36.8000 N.4       3 LYS4        0.0000 
     44 NZ         18.3600    7.2700   36.8700 N.4       3 LYS4        0.0000 
     45 NZ         16.9400    7.7400   37.0200 N.4       3 LYS4        0.0000 
     46 NZ         15.5200    8.2200   37.1600 N.4       3 LYS4        0.0000 
     47 NZ         18.0500   10.8300   37.7300 N.4       3 LYS4        0.0000 
     48 NZ         19.0300    8.9600   37.9500 N.4       3 LYS4        0.0000 
     49 NZ         17.6200    9.4400   38.1000 N.4       3 LYS4        0.0000 
     50 NZ         18.3000   11.1300   39.1700 N.4       3 LYS4        0.0000 
     51 CZ         16.2400    2.9600   30.3800 C.ar      4 PHE5        0.0000 
     52 CZ         15.0800    3.7400   31.9700 C.ar      4 PHE5        0.0000 
     53 CZ         17.4800    1.4000   32.0400 C.ar      4 PHE5        0.0000 
     54 CZ         16.0700    1.8700   32.1900 C.ar      4 PHE5        0.0000 
     55 CZ         14.7700    7.3000   32.8200 C.ar      4 PHE5        0.0000 
     56 CZ         14.3400    5.9100   33.1900 C.ar      4 PHE5        0.0000 
     57 CZ         15.3300    4.0400   33.4100 C.ar      4 PHE5        0.0000 
     58 CZ         15.5800    4.3500   34.8600 C.ar      4 PHE5        0.0000 
     59 CZ         17.9900    2.0100   34.9400 C.ar      4 PHE5        0.0000 
     60 CZ         16.5700    2.4900   35.0800 C.ar      4 PHE5        0.0000 
     61 CZ         15.1600    2.9600   35.2300 C.ar      4 PHE5        0.0000 
     62 CZ         13.7400    3.4300   35.3800 C.ar      4 PHE5        0.0000 
     63 CZ         17.5600    0.6200   35.3100 C.ar      4 PHE5        0.0000 
     64 CZ         16.1400    1.1000   35.4500 C.ar      4 PHE5        0.0000 
     65 CZ         18.9600    9.7400   34.6900 C.ar      4 PHE5        0.0000 
     66 CZ         17.5400   10.2200   34.8300 C.ar      4 PHE5        0.0000 
     67 CZ         16.2600    6.0500   35.9400 C.ar      4 PHE5        0.0000 
     68 CZ         14.4200    5.1300   36.4500 C.ar      4 PHE5        0.0000 
     69 CZ         13.9900    3.7400   36.8200 C.ar      4 PHE5        0.0000 
     70 CZ         12.5800    4.2100   36.9700 C.ar      4 PHE5        0.0000 
     71 CZ         13.5600    2.3500   37.1900 C.ar      4 PHE5        0.0000 
     72 CZ         19.2100   10.0500   36.1400 C.ar      4 PHE5        0.0000 
     73 CZ         17.7900   10.5200   36.2800 C.ar      4 PHE5        0.0000 
     74 CZ         19.8900   11.7400   37.2100 C.ar      4 PHE5        0.0000 
     75 CA         13.7200    0.3500   29.8100 C.3       5 GLY6        0.0000 
     76 CA         18.6500    0.6200   30.4500 C.3       5 GLY6        0.0000 
     77 CA         14.4000    2.0400   30.8900 C.3       5 GLY6        0.0000 
     78 CA         18.2200   -0.7700   30.8200 C.3       5 GLY6        0.0000 
     79 CA         13.9700    0.6500   31.2600 C.3       5 GLY6        0.0000 
     80 CA         13.5500   -0.7400   31.6300 C.3       5 GLY6        0.0000 
     81 CA         18.9000    0.9300   31.9000 C.3       5 GLY6        0.0000 
     82 CA         18.4700   -0.4600   32.2700 C.3       5 GLY6        0.0000 
     83 CA         14.2300    0.9600   32.7000 C.3       5 GLY6        0.0000 
     84 CA         12.9300    6.3800   33.3400 C.3       5 GLY6        0.0000 
     85 CA         11.5100    6.8500   33.4800 C.3       5 GLY6        0.0000 
     86 CA         13.9200    4.5200   33.5600 C.3       5 GLY6        0.0000 
     87 CA         12.5000    4.9900   33.7100 C.3       5 GLY6        0.0000 
     88 CA         16.8600    8.5200   33.7600 C.3       5 GLY6        0.0000 
     89 CA         12.1900    8.5500   34.5600 C.3       5 GLY6        0.0000 
     90 CA         11.7600    7.1600   34.9300 C.3       5 GLY6        0.0000 
     91 CA         12.7500    5.3000   35.1500 C.3       5 GLY6        0.0000 
     92 CA         11.9000    2.5200   35.8900 C.3       5 GLY6        0.0000 
     93 CA         16.8100   12.3900   36.0600 C.3       5 GLY6        0.0000 
     94 CA         16.3800   11.0000   36.4300 C.3       5 GLY6        0.0000 
     95 DU         15.8200    1.5700   30.7400 H         6 CUB7        0.0000 
     96 DU         16.8100   -0.3000   30.9700 H         6 CUB7        0.0000 
     97 DU         15.3900    0.1800   31.1100 H         6 CUB7        0.0000 
     98 DU         17.0600    0.0100   32.4100 H         6 CUB7        0.0000 
     99 DU         15.6400    0.4800   32.5600 H         6 CUB7        0.0000 
    100 DU         17.3100    0.3200   33.8600 H         6 CUB7        0.0000 
    101 DU         14.5900    6.2100   34.6400 H         6 CUB7        0.0000 
    102 DU         13.1800    6.6900   34.7800 H         6 CUB7        0.0000 
    103 DU         14.1700    4.8200   35.0100 H         6 CUB7        0.0000 
    104 DU         17.1200    8.8300   35.2000 H         6 CUB7        0.0000 
    105 DU         15.2700    7.9100   35.7200 H         6 CUB7        0.0000 
    106 DU         19.4600   10.3500   37.5800 H         6 CUB7        0.0000 
@<TRIPOS>BOND
@<TRIPOS>SUBSTRUCTURE
     1 SER1        1 GROUP   
     2 ALA2        4 GROUP   
     3 LYS4       40 GROUP   
     4 PHE5       51 GROUP   
     5 GLY6       75 GROUP   
     6 CUB7       95 GROUP   
@<TRIPOS>SET

