#    Name: 6r51_2_SER_LEU_ARG_PRO_ALA_PRO_ACE_LPD_CAVITY_N1_6
#    Modification time : Fri May 22 19:29:50 2020

@<TRIPOS>MOLECULE
6r51_2_SER_LEU_ARG_PRO_ALA_PRO_ACE_LPD_CAVITY_N1_6
  149     0     7     0     0
SMALL
NO_CHARGES


@<TRIPOS>ATOM
      1 OG          0.4100   12.7500   91.7100 O.3       1 SER1        0.0000 
      2 OG         -1.0100   13.2200   91.8500 O.3       1 SER1        0.0000 
      3 OG         -2.1700   14.0000   93.4500 O.3       1 SER1        0.0000 
      4 OG         -3.3400   14.7800   95.0400 O.3       1 SER1        0.0000 
      5 OG         -3.3900   18.6500   97.3400 O.3       1 SER1        0.0000 
      6 OG         -5.2400   17.7300   97.8600 O.3       1 SER1        0.0000 
      7 OG         -3.1400   18.9600   98.7900 O.3       1 SER1        0.0000 
      8 OG         -4.5600   19.4300   98.9300 O.3       1 SER1        0.0000 
      9 OG         -4.9900   18.0400   99.3000 O.3       1 SER1        0.0000 
     10 OG         -7.1400   20.6800  100.6700 O.3       1 SER1        0.0000 
     11 OG         -7.5700   19.2900  101.0400 O.3       1 SER1        0.0000 
     12 N          -0.7300   16.1700   84.9600 N.am      2 ALA2        0.0000 
     13 O           1.2500   12.4400   85.4100 O.2       2 ALA2        0.0000 
     14 O           2.3500   15.5300   86.1200 O.2       2 ALA2        0.0000 
     15 O           1.9200   14.1400   86.4900 O.2       2 ALA2        0.0000 
     16 O          -0.9100   15.0800   86.7800 O.2       2 ALA2        0.0000 
     17 O           1.5000   12.7500   86.8500 O.2       2 ALA2        0.0000 
     18 O           2.1800   14.4400   87.9300 O.2       2 ALA2        0.0000 
     19 O          -0.6600   15.3900   88.2200 O.2       2 ALA2        0.0000 
     20 O           1.7500   13.0500   88.3000 O.2       2 ALA2        0.0000 
     21 O          -1.0800   14.0000   88.5900 O.2       2 ALA2        0.0000 
     22 O           2.4300   14.7500   89.3800 O.2       2 ALA2        0.0000 
     23 O           2.0000   13.3600   89.7500 O.2       2 ALA2        0.0000 
     24 O          -2.2500   14.7800   90.1900 O.2       2 ALA2        0.0000 
     25 O          -5.0800   15.7300   90.4800 O.2       2 ALA2        0.0000 
     26 O           1.5700   11.9700   90.1200 O.2       2 ALA2        0.0000 
     27 O          -2.6700   13.3900   90.5500 O.2       2 ALA2        0.0000 
     28 O          -4.0900   13.8600   90.7000 O.2       2 ALA2        0.0000 
     29 N          -3.1000   12.0000   90.9200 N.am      2 ALA2        0.0000 
     30 N          -4.4000   17.4200   91.5600 N.am      2 ALA2        0.0000 
     31 N          -5.8200   17.9000   91.7000 N.am      2 ALA2        0.0000 
     32 O          -7.2300   18.3700   91.8500 O.2       2 ALA2        0.0000 
     33 O          -8.6500   18.8500   91.9900 O.2       2 ALA2        0.0000 
     34 N          -2.8500   12.3100   92.3700 N.am      2 ALA2        0.0000 
     35 N          -4.2700   12.7800   92.5100 N.am      2 ALA2        0.0000 
     36 N          -5.6800   13.2500   92.6600 N.am      2 ALA2        0.0000 
     37 N          -2.6000   12.6100   93.8200 N.am      2 ALA2        0.0000 
     38 N          -4.0100   13.0900   93.9600 N.am      2 ALA2        0.0000 
     39 N          -6.1700   15.7300   95.3300 N.am      2 ALA2        0.0000 
     40 N          -7.5800   16.2000   95.4800 N.am      2 ALA2        0.0000 
     41 N          -9.0000   16.6800   95.6200 N.am      2 ALA2        0.0000 
     42 N          -8.0100   14.8100   95.8500 N.am      2 ALA2        0.0000 
     43 N          -5.4900   17.4300   96.4100 N.am      2 ALA2        0.0000 
     44 N          -6.9000   17.9000   96.5600 N.am      2 ALA2        0.0000 
     45 N          -6.6500   18.2100   98.0000 N.am      2 ALA2        0.0000 
     46 O          -9.6600   18.0700  100.1100 O.2       2 ALA2        0.0000 
     47 N          -4.7300   18.3500  100.7500 N.am      2 ALA2        0.0000 
     48 OD1        -5.8000   20.9900   97.2700 O.co2     3 ASP3        0.0000 
     49 OD1        -5.5500   21.2900   98.7100 O.co2     3 ASP3        0.0000 
     50 NZ         -0.5800   14.6100   91.4900 N.4       4 LYS4        0.0000 
     51 NZ         -2.0000   15.0900   91.6300 N.4       4 LYS4        0.0000 
     52 NZ         -3.4100   15.5600   91.7800 N.4       4 LYS4        0.0000 
     53 NZ         -4.8300   16.0300   91.9200 N.4       4 LYS4        0.0000 
     54 NZ         -5.5600   18.2000   93.1500 N.4       4 LYS4        0.0000 
     55 NZ         -4.5800   16.3400   93.3700 N.4       4 LYS4        0.0000 
     56 NZ         -3.5900   14.4800   93.5900 N.4       4 LYS4        0.0000 
     57 NZ         -5.3100   18.5100   94.5900 N.4       4 LYS4        0.0000 
     58 NZ         -4.3200   16.6500   94.8200 N.4       4 LYS4        0.0000 
     59 NZ         -5.7400   17.1200   94.9600 N.4       4 LYS4        0.0000 
     60 NZ         -4.6300   20.2100   95.6700 N.4       4 LYS4        0.0000 
     61 NZ         -6.0500   20.6800   95.8200 N.4       4 LYS4        0.0000 
     62 NZ         -3.6500   18.3400   95.9000 N.4       4 LYS4        0.0000 
     63 NZ         -5.0600   18.8200   96.0400 N.4       4 LYS4        0.0000 
     64 NZ         -2.8900   19.2600  100.2400 N.4       4 LYS4        0.0000 
     65 NZ         -4.3100   19.7300  100.3800 N.4       4 LYS4        0.0000 
     66 NZ         -5.7200   20.2100  100.5300 N.4       4 LYS4        0.0000 
     67 CZ         -1.1600   14.7800   85.3300 C.ar      5 PHE5        0.0000 
     68 CZ         -0.1700   12.9100   85.5500 C.ar      5 PHE5        0.0000 
     69 CZ          0.9400   16.0000   86.2600 C.ar      5 PHE5        0.0000 
     70 CZ         -0.4800   16.4700   86.4100 C.ar      5 PHE5        0.0000 
     71 CZ          0.0800   13.2200   87.0000 C.ar      5 PHE5        0.0000 
     72 CZ         -0.3500   11.8300   87.3700 C.ar      5 PHE5        0.0000 
     73 CZ          1.1900   16.3100   87.7100 C.ar      5 PHE5        0.0000 
     74 CZ          0.7600   14.9200   88.0800 C.ar      5 PHE5        0.0000 
     75 CZ          0.3300   13.5300   88.4500 C.ar      5 PHE5        0.0000 
     76 CZ         -1.9400   11.2200   89.3300 C.ar      5 PHE5        0.0000 
     77 CZ          0.5800   13.8300   89.8900 C.ar      5 PHE5        0.0000 
     78 CZ         -0.8300   14.3100   90.0400 C.ar      5 PHE5        0.0000 
     79 CZ         -1.2600   12.9200   90.4100 C.ar      5 PHE5        0.0000 
     80 CZ          2.2500   13.6700   91.1900 C.ar      5 PHE5        0.0000 
     81 CZ          0.8400   14.1400   91.3400 C.ar      5 PHE5        0.0000 
     82 CZ         -6.2400   16.5100   92.0700 C.ar      5 PHE5        0.0000 
     83 CZ         -7.6600   16.9800   92.2200 C.ar      5 PHE5        0.0000 
     84 CZ         -5.2500   14.6400   92.2900 C.ar      5 PHE5        0.0000 
     85 CZ         -0.0200   11.3600   92.0800 C.ar      5 PHE5        0.0000 
     86 CZ         -1.4300   11.8300   92.2200 C.ar      5 PHE5        0.0000 
     87 CZ         -5.9900   16.8100   93.5200 C.ar      5 PHE5        0.0000 
     88 CZ         -7.4100   17.2900   93.6600 C.ar      5 PHE5        0.0000 
     89 CZ         -8.8200   17.7600   93.8100 C.ar      5 PHE5        0.0000 
     90 CZ         -6.4200   15.4200   93.8800 C.ar      5 PHE5        0.0000 
     91 CZ         -7.8300   15.9000   94.0300 C.ar      5 PHE5        0.0000 
     92 CZ         -6.8500   14.0300   94.2500 C.ar      5 PHE5        0.0000 
     93 CZ         -1.6100   10.7500   94.0400 C.ar      5 PHE5        0.0000 
     94 CZ         -4.7500   15.2600   95.1900 C.ar      5 PHE5        0.0000 
     95 CZ         -2.3500   12.9200   95.2600 C.ar      5 PHE5        0.0000 
     96 CZ         -3.7600   13.3900   95.4100 C.ar      5 PHE5        0.0000 
     97 CZ         -4.0700   16.9500   96.2600 C.ar      5 PHE5        0.0000 
     98 CZ         -4.5000   15.5600   96.6300 C.ar      5 PHE5        0.0000 
     99 CZ         -8.9800   19.7700  101.1900 C.ar      5 PHE5        0.0000 
    100 CZ         -7.9900   17.9000  101.4100 C.ar      5 PHE5        0.0000 
    101 CZ         -9.4100   18.3800  101.5600 C.ar      5 PHE5        0.0000 
    102 CA          0.0100   14.0000   83.7400 C.3       6 GLY6        0.0000 
    103 CA         -0.0900   12.1400   88.8200 C.3       6 GLY6        0.0000 
    104 CA          3.4200   12.8900   89.6000 C.3       6 GLY6        0.0000 
    105 CA         -6.4900   16.2000   90.6200 C.3       6 GLY6        0.0000 
    106 CA          0.1600   12.4400   90.2600 C.3       6 GLY6        0.0000 
    107 CA          1.1500   10.5800   90.4800 C.3       6 GLY6        0.0000 
    108 CA         -0.2700   11.0500   90.6300 C.3       6 GLY6        0.0000 
    109 CA         -1.6900   11.5300   90.7800 C.3       6 GLY6        0.0000 
    110 CA         -4.5200   12.4700   91.0700 C.3       6 GLY6        0.0000 
    111 CA         -0.7000    9.6600   91.0000 C.3       6 GLY6        0.0000 
    112 CA         -2.1100   10.1400   91.1400 C.3       6 GLY6        0.0000 
    113 CA         -0.4500    9.9700   92.4500 C.3       6 GLY6        0.0000 
    114 CA         -1.8600   10.4400   92.5900 C.3       6 GLY6        0.0000 
    115 CA         -5.1400   19.5900   92.7800 C.3       6 GLY6        0.0000 
    116 CA         -6.5500   20.0700   92.9300 C.3       6 GLY6        0.0000 
    117 CA         -7.9700   20.5400   93.0700 C.3       6 GLY6        0.0000 
    118 CA         -5.4300   13.5600   94.1100 C.3       6 GLY6        0.0000 
    119 CA         -6.3000   20.3700   94.3700 C.3       6 GLY6        0.0000 
    120 CA         -4.3800   20.5100   97.1200 C.3       6 GLY6        0.0000 
    121 CA         -4.8100   19.1200   97.4900 C.3       6 GLY6        0.0000 
    122 CA         -4.1300   20.8200   98.5700 C.3       6 GLY6        0.0000 
    123 CA         -6.4000   18.5100   99.4500 C.3       6 GLY6        0.0000 
    124 CA         -8.2400   17.6000   99.9600 C.3       6 GLY6        0.0000 
    125 CA         -3.8800   21.1200  100.0100 C.3       6 GLY6        0.0000 
    126 CA         -5.3000   21.6000  100.1600 C.3       6 GLY6        0.0000 
    127 CA         -6.7100   22.0700  100.3000 C.3       6 GLY6        0.0000 
    128 CA         -6.1500   18.8200  100.9000 C.3       6 GLY6        0.0000 
    129 DU          1.4200   13.5200   83.5900 H         7 CUB7        0.0000 
    130 DU          0.9900   12.1300   83.9600 H         7 CUB7        0.0000 
    131 DU          2.1000   15.2200   84.6700 H         7 CUB7        0.0000 
    132 DU          0.6800   15.6900   84.8200 H         7 CUB7        0.0000 
    133 DU          1.6700   13.8300   85.0400 H         7 CUB7        0.0000 
    134 DU          0.2600   14.3000   85.1900 H         7 CUB7        0.0000 
    135 DU          0.5100   14.6100   86.6300 H         7 CUB7        0.0000 
    136 DU         -2.4200   13.7000   92.0000 H         7 CUB7        0.0000 
    137 DU         -3.8400   14.1700   92.1500 H         7 CUB7        0.0000 
    138 DU         -6.9800   18.6800   93.2900 H         7 CUB7        0.0000 
    139 DU         -8.4000   19.1500   93.4400 H         7 CUB7        0.0000 
    140 DU         -5.0000   14.9500   93.7400 H         7 CUB7        0.0000 
    141 DU         -6.7300   18.9800   94.7400 H         7 CUB7        0.0000 
    142 DU         -7.1600   17.5900   95.1100 H         7 CUB7        0.0000 
    143 DU         -8.5700   18.0700   95.2500 H         7 CUB7        0.0000 
    144 DU         -8.3200   18.3700   96.7000 H         7 CUB7        0.0000 
    145 DU         -6.2300   19.6000   97.6300 H         7 CUB7        0.0000 
    146 DU         -8.0700   18.6800   98.1500 H         7 CUB7        0.0000 
    147 DU         -5.9700   19.9000   99.0800 H         7 CUB7        0.0000 
    148 DU         -7.3900   20.3800   99.2300 H         7 CUB7        0.0000 
    149 DU         -7.8200   18.9900   99.5900 H         7 CUB7        0.0000 
@<TRIPOS>BOND
@<TRIPOS>SUBSTRUCTURE
     1 SER1        1 GROUP   
     2 ALA2       12 GROUP   
     3 ASP3       48 GROUP   
     4 LYS4       50 GROUP   
     5 PHE5       67 GROUP   
     6 GLY6      102 GROUP   
     7 CUB7      129 GROUP   
@<TRIPOS>SET

