#    Name: 6r51_3_SER_LEU_ARG_PRO_ALA_PRO_ACE_LPD
#    Modification time : Fri May 22 19:29:51 2020

@<TRIPOS>MOLECULE
6r51_3_SER_LEU_ARG_PRO_ALA_PRO_ACE_LPD
  115   117     8     0     0
SMALL
NO_CHARGES


@<TRIPOS>ATOM
      1 N          20.8660   18.0360   41.6730 N.am      1 SER32       0.0000 
      2 CA         20.6750   16.5970   41.6190 C.3       1 SER32       0.0000 
      3 C          19.9640   16.2730   40.3120 C.2       1 SER32       0.0000 
      4 O          18.9930   16.9370   39.9330 O.2       1 SER32       0.0000 
      5 CB         19.8740   16.0930   42.8110 C.3       1 SER32       0.0000 
      6 OG         19.7840   14.6780   42.7780 O.3       1 SER32       0.0000 
      7 H          20.2970   18.4830   41.2090 H         1 SER32       0.0000 
      8 HA         21.5270   16.1350   41.6620 H         1 SER32       0.0000 
      9 HB2        20.3160   16.3650   43.6300 H         1 SER32       0.0000 
     10 HB3        18.9800   16.4700   42.7760 H         1 SER32       0.0000 
     11 HG         19.4560   14.4280   42.0470 H         1 SER32       0.0000 
     12 N          20.4720   15.2540   39.6280 N.am      2 LEU33       0.0000 
     13 CA         19.9980   14.8490   38.3110 C.3       2 LEU33       0.0000 
     14 C          19.7490   13.3540   38.3940 C.2       2 LEU33       0.0000 
     15 O          20.6940   12.5800   38.5760 O.2       2 LEU33       0.0000 
     16 CB         21.0440   15.1640   37.2450 C.3       2 LEU33       0.0000 
     17 CG         20.6650   15.3250   35.7760 C.3       2 LEU33       0.0000 
     18 CD1        19.9510   16.6300   35.5660 C.3       2 LEU33       0.0000 
     19 CD2        21.9440   15.2220   34.9560 C.3       2 LEU33       0.0000 
     20 H          21.1160   14.7640   39.9180 H         2 LEU33       0.0000 
     21 HA         19.1770   15.3080   38.0760 H         2 LEU33       0.0000 
     22 HB2        21.4630   16.0000   37.5010 H         2 LEU33       0.0000 
     23 HB3        21.6960   14.4450   37.2710 H         2 LEU33       0.0000 
     24 HG         20.0510   14.6330   35.4840 H         2 LEU33       0.0000 
     25 HD11       19.8130   16.7640   34.6150 H         2 LEU33       0.0000 
     26 HD12       19.0970   16.6010   36.0240 H         2 LEU33       0.0000 
     27 HD13       20.4950   17.3490   35.9250 H         2 LEU33       0.0000 
     28 HD21       21.7170   15.2480   34.0130 H         2 LEU33       0.0000 
     29 HD22       22.5220   15.9690   35.1770 H         2 LEU33       0.0000 
     30 HD23       22.3880   14.3860   35.1660 H         2 LEU33       0.0000 
     31 N          18.4940   12.9290   38.2680 N.am      3 ARG34       0.0000 
     32 CA         18.1740   11.5060   38.3520 C.3       3 ARG34       0.0000 
     33 C          17.3630   11.1140   37.1230 C.2       3 ARG34       0.0000 
     34 O          16.2910   11.7050   36.8720 O.2       3 ARG34       0.0000 
     35 CB         17.4350   11.1420   39.6460 C.3       3 ARG34       0.0000 
     36 CG         18.1760   11.4430   40.9580 C.3       3 ARG34       0.0000 
     37 CD         17.4980   12.5540   41.7680 C.3       3 ARG34       0.0000 
     38 NE         18.0690   12.7840   43.0970 N.pl3     3 ARG34       0.0000 
     39 CZ         17.4770   12.4370   44.2380 C.cat     3 ARG34       0.0000 
     40 NH1        16.2930   11.8360   44.2290 N.pl3     3 ARG34       0.0000 
     41 NH2        18.0660   12.7000   45.3960 N.pl3     3 ARG34       0.0000 
     42 H          17.8170   13.4410   38.1340 H         3 ARG34       0.0000 
     43 HA         19.0070   11.0080   38.3450 H         3 ARG34       0.0000 
     44 HB2        16.6020   11.6390   39.6690 H         3 ARG34       0.0000 
     45 HB3        17.2530   10.1900   39.6330 H         3 ARG34       0.0000 
     46 HG2        18.1950   10.6410   41.5030 H         3 ARG34       0.0000 
     47 HG3        19.0810   11.7270   40.7540 H         3 ARG34       0.0000 
     48 HD2        17.5700   13.3840   41.2730 H         3 ARG34       0.0000 
     49 HD3        16.5640   12.3200   41.8900 H         3 ARG34       0.0000 
     50 HE         18.8370   13.1690   43.1440 H         3 ARG34       0.0000 
     51 HH11       15.9020   11.6680   43.4820 H         3 ARG34       0.0000 
     52 HH12       15.9170   11.6150   44.9700 H         3 ARG34       0.0000 
     53 HH21       18.8290   13.0960   45.4100 H         3 ARG34       0.0000 
     54 HH22       17.6840   12.4760   46.1330 H         3 ARG34       0.0000 
     55 N          17.8280   10.1510   36.3320 N.am      4 PRO35       0.0000 
     56 CA         17.0750    9.7220   35.1520 C.3       4 PRO35       0.0000 
     57 C          15.9310    8.7910   35.5140 C.2       4 PRO35       0.0000 
     58 O          15.8850    8.1870   36.5880 O.2       4 PRO35       0.0000 
     59 CB         18.1290    8.9770   34.3250 C.3       4 PRO35       0.0000 
     60 CG         19.0000    8.3400   35.3960 C.3       4 PRO35       0.0000 
     61 CD         19.0700    9.3710   36.5060 C.3       4 PRO35       0.0000 
     62 HA         16.7350   10.4860   34.6600 H         4 PRO35       0.0000 
     63 HB2        17.7090    8.3070   33.7630 H         4 PRO35       0.0000 
     64 HB3        18.6350    9.5990   33.7780 H         4 PRO35       0.0000 
     65 HG2        18.5900    7.5190   35.7110 H         4 PRO35       0.0000 
     66 HG3        19.8820    8.1540   35.0380 H         4 PRO35       0.0000 
     67 HD2        19.0880    8.9410   37.3750 H         4 PRO35       0.0000 
     68 HD3        19.8500    9.9380   36.4000 H         4 PRO35       0.0000 
     69 N          15.0020    8.6670   34.5680 N.am      5 ALA36       0.0000 
     70 CA         14.0030    7.6260   34.6550 C.3       5 ALA36       0.0000 
     71 C          14.6980    6.2680   34.6560 C.2       5 ALA36       0.0000 
     72 O          15.8320    6.1410   34.1850 O.2       5 ALA36       0.0000 
     73 CB         13.0330    7.7200   33.4820 C.3       5 ALA36       0.0000 
     74 H          14.9360    9.1720   33.8750 H         5 ALA36       0.0000 
     75 HA         13.4890    7.7200   35.4720 H         5 ALA36       0.0000 
     76 HB1        12.3930    6.9940   33.5420 H         5 ALA36       0.0000 
     77 HB2        12.5710    8.5720   33.5210 H         5 ALA36       0.0000 
     78 HB3        13.5320    7.6530   32.6530 H         5 ALA36       0.0000 
     79 N          14.0320    5.2290   35.1740 N.am      6 PRO37       0.0000 
     80 CA         14.6540    3.9000   35.1400 C.3       6 PRO37       0.0000 
     81 C          14.8320    3.3890   33.7170 C.2       6 PRO37       0.0000 
     82 O          13.9720    3.6290   32.8670 O.2       6 PRO37       0.0000 
     83 CB         13.6640    3.0150   35.9120 C.3       6 PRO37       0.0000 
     84 CG         12.8210    3.9760   36.7170 C.3       6 PRO37       0.0000 
     85 CD         12.7310    5.2220   35.8700 C.3       6 PRO37       0.0000 
     86 HA         15.5070    3.9050   35.6020 H         6 PRO37       0.0000 
     87 HB2        13.1160    2.5110   35.2890 H         6 PRO37       0.0000 
     88 HB3        14.1480    2.4070   36.4930 H         6 PRO37       0.0000 
     89 HG2        11.9420    3.5970   36.8700 H         6 PRO37       0.0000 
     90 HG3        13.2540    4.1640   37.5650 H         6 PRO37       0.0000 
     91 HD2        11.9980    5.1610   35.2380 H         6 PRO37       0.0000 
     92 HD3        12.6270    6.0120   36.4230 H         6 PRO37       0.0000 
     93 C          21.8400   18.5760   42.3820 C.2       7 ACE31       0.0000 
     94 O          22.6290   17.8890   43.0260 O.2       7 ACE31       0.0000 
     95 CH3        21.9000   20.0730   42.3340 C.3       7 ACE31       0.0000 
     96 H1         21.1430   20.4890   42.9990 H         7 ACE31       0.0000 
     97 H2         21.7140   20.4110   41.3150 H         7 ACE31       0.0000 
     98 H3         22.8870   20.4070   42.6530 H         7 ACE31       0.0000 
     99 O          14.8120    0.3020   32.8520 O.2       8 LPD38       0.0000 
    100 C          15.1900    0.9780   31.9120 C.2       8 LPD38       0.0000 
    101 N2         14.7830    0.7530   30.6680 N.am      8 LPD38       0.0000 
    102 CA         16.1630    2.0780   32.1720 C.3       8 LPD38       0.0000 
    103 N          15.9400    2.7000   33.4620 N.4       8 LPD38       0.0000 
    104 CD         17.0060    2.3720   34.4010 C.3       8 LPD38       0.0000 
    105 CG         18.1390    1.7460   33.5790 C.3       8 LPD38       0.0000 
    106 CB         17.5980    1.5490   32.1550 C.3       8 LPD38       0.0000 
    107 HN21       14.1320    0.0040   30.4850 H         8 LPD38       0.0000 
    108 HN22       15.1210    1.3280   29.9080 H         8 LPD38       0.0000 
    109 HA         16.0410    2.8120   31.3640 H         8 LPD38       0.0000 
    110 HD3        17.3560    3.2700   34.9140 H         8 LPD38       0.0000 
    111 HD2        16.6490    1.6710   35.1570 H         8 LPD38       0.0000 
    112 HG3        19.0120    2.4010   33.5700 H         8 LPD38       0.0000 
    113 HG2        18.4410    0.7890   34.0100 H         8 LPD38       0.0000 
    114 HB2        18.2050    2.0980   31.4320 H         8 LPD38       0.0000 
    115 HB3        17.6180    0.4930   31.8770 H         8 LPD38       0.0000 
@<TRIPOS>BOND
     1    1    2 1    
     2    2    3 1    
     3    1    7 1    
     4    1   93 du   
     5    2    5 1    
     6    2    8 1    
     7    3    4 2    
     8    3   12 am   
     9    5    6 1    
    10    5    9 1    
    11    5   10 1    
    12    6   11 1    
    13   12   13 1    
    14   13   14 1    
    15   12   20 1    
    16   13   16 1    
    17   13   21 1    
    18   14   15 2    
    19   14   31 am   
    20   16   17 1    
    21   16   22 1    
    22   16   23 1    
    23   17   18 1    
    24   17   19 1    
    25   17   24 1    
    26   18   25 1    
    27   18   26 1    
    28   18   27 1    
    29   19   28 1    
    30   19   29 1    
    31   19   30 1    
    32   31   32 1    
    33   32   33 1    
    34   31   42 1    
    35   32   35 1    
    36   32   43 1    
    37   33   34 2    
    38   33   55 am   
    39   35   36 1    
    40   35   44 1    
    41   35   45 1    
    42   36   37 1    
    43   36   46 1    
    44   36   47 1    
    45   37   38 1    
    46   37   48 1    
    47   37   49 1    
    48   38   39 ar   
    49   39   40 ar   
    50   38   50 1    
    51   39   41 ar   
    52   55   56 1    
    53   40   51 1    
    54   40   52 1    
    55   41   53 1    
    56   41   54 1    
    57   55   61 1    
    58   56   57 1    
    59   56   59 1    
    60   56   62 1    
    61   57   58 2    
    62   57   69 am   
    63   59   60 1    
    64   59   63 1    
    65   59   64 1    
    66   60   61 1    
    67   60   65 1    
    68   60   66 1    
    69   61   67 1    
    70   61   68 1    
    71   69   70 1    
    72   70   71 1    
    73   69   74 1    
    74   70   73 1    
    75   70   75 1    
    76   71   72 2    
    77   71   79 am   
    78   73   76 1    
    79   73   77 1    
    80   73   78 1    
    81   79   80 1    
    82   79   85 1    
    83   80   81 1    
    84   80   83 1    
    85   80   86 1    
    86   81   82 2    
    87   81  103 du   
    88   83   84 1    
    89   83   87 1    
    90   83   88 1    
    91   84   85 1    
    92   84   89 1    
    93   84   90 1    
    94   85   91 1    
    95   85   92 1    
    96   93   94 2    
    97   93   95 1    
    98   95   96 1    
    99   95   97 1    
   100   95   98 1    
   101   99  100 2    
   102  100  101 am   
   103  100  102 1    
   104  101  107 1    
   105  101  108 1    
   106  102  103 1    
   107  102  106 1    
   108  102  109 1    
   109  103  104 1    
   110  104  105 1    
   111  104  110 1    
   112  104  111 1    
   113  105  106 1    
   114  105  112 1    
   115  105  113 1    
   116  106  114 1    
   117  106  115 1    
@<TRIPOS>SUBSTRUCTURE
     1 SER32       1 RESIDUE 
     2 LEU33      12 RESIDUE 
     3 ARG34      31 RESIDUE 
     4 PRO35      55 RESIDUE 
     5 ALA36      69 RESIDUE 
     6 PRO37      79 RESIDUE 
     7 ACE31      93 GROUP   
     8 LPD38      99 GROUP   
@<TRIPOS>SET

