#    Name: 6r51_2_SER_LEU_ARG_PRO_ALA_PRO_ACE_LPD
#    Modification time : Fri May 22 19:29:48 2020

@<TRIPOS>MOLECULE
6r51_2_SER_LEU_ARG_PRO_ALA_PRO_ACE_LPD
  115   117     8     0     0
SMALL
NO_CHARGES


@<TRIPOS>ATOM
      1 N         -11.1750   18.5770  100.6230 N.am      1 SER32       0.0000 
      2 CA        -10.0740   18.7590   99.6930 C.3       1 SER32       0.0000 
      3 C          -9.8250   17.5090   98.8600 C.2       1 SER32       0.0000 
      4 O          -9.8380   16.3870   99.3650 O.2       1 SER32       0.0000 
      5 CB         -8.8020   19.1540  100.4390 C.3       1 SER32       0.0000 
      6 OG         -7.7520   19.4230   99.5260 O.3       1 SER32       0.0000 
      7 H         -11.3510   17.7600  100.8260 H         1 SER32       0.0000 
      8 HA        -10.3050   19.4760   99.0820 H         1 SER32       0.0000 
      9 HB2        -8.9770   19.9500  100.9650 H         1 SER32       0.0000 
     10 HB3        -8.5370   18.4240  101.0210 H         1 SER32       0.0000 
     11 HG         -7.9820   20.0310   98.9940 H         1 SER32       0.0000 
     12 N          -9.5960   17.7380   97.5730 N.am      2 LEU33       0.0000 
     13 CA         -9.4660   16.6900   96.5670 C.3       2 LEU33       0.0000 
     14 C          -8.1650   16.9910   95.8390 C.2       2 LEU33       0.0000 
     15 O          -8.0520   18.0240   95.1710 O.2       2 LEU33       0.0000 
     16 CB        -10.6730   16.7250   95.6340 C.3       2 LEU33       0.0000 
     17 CG        -11.2060   15.5420   94.8410 C.3       2 LEU33       0.0000 
     18 CD1       -11.8500   14.5700   95.7790 C.3       2 LEU33       0.0000 
     19 CD2       -12.2210   16.1240   93.8670 C.3       2 LEU33       0.0000 
     20 H          -9.5090   18.5270   97.2420 H         2 LEU33       0.0000 
     21 HA         -9.4160   15.8010   96.9510 H         2 LEU33       0.0000 
     22 HB2       -11.4210   17.0130   96.1800 H         2 LEU33       0.0000 
     23 HB3       -10.4710   17.3980   94.9660 H         2 LEU33       0.0000 
     24 HG        -10.5150   15.0580   94.3620 H         2 LEU33       0.0000 
     25 HD11      -12.8020   14.5340   95.5940 H         2 LEU33       0.0000 
     26 HD12      -11.4550   13.6940   95.6470 H         2 LEU33       0.0000 
     27 HD13      -11.7020   14.8650   96.6910 H         2 LEU33       0.0000 
     28 HD21      -12.7090   15.3980   93.4480 H         2 LEU33       0.0000 
     29 HD22      -12.8340   16.6960   94.3550 H         2 LEU33       0.0000 
     30 HD23      -11.7520   16.6400   93.1930 H         2 LEU33       0.0000 
     31 N          -7.1850   16.0980   95.9690 N.am      3 ARG34       0.0000 
     32 CA         -5.8520   16.3430   95.4240 C.3       3 ARG34       0.0000 
     33 C          -5.4750   15.1450   94.5630 C.2       3 ARG34       0.0000 
     34 O          -5.3210   14.0280   95.0980 O.2       3 ARG34       0.0000 
     35 CB         -4.8340   16.5090   96.5600 C.3       3 ARG34       0.0000 
     36 CG         -5.2460   17.4580   97.6830 C.3       3 ARG34       0.0000 
     37 CD         -4.5560   18.8190   97.6510 C.3       3 ARG34       0.0000 
     38 NE         -4.8680   19.6530   98.8130 N.pl3     3 ARG34       0.0000 
     39 CZ         -4.1710   19.6500   99.9440 C.cat     3 ARG34       0.0000 
     40 NH1        -3.1230   18.8520  100.0850 N.pl3     3 ARG34       0.0000 
     41 NH2        -4.5270   20.4460  100.9390 N.pl3     3 ARG34       0.0000 
     42 H          -7.2690   15.3420   96.3700 H         3 ARG34       0.0000 
     43 HA         -5.8620   17.1450   94.8790 H         3 ARG34       0.0000 
     44 HB2        -4.6790   15.6390   96.9600 H         3 ARG34       0.0000 
     45 HB3        -4.0090   16.8510   96.1810 H         3 ARG34       0.0000 
     46 HG2        -6.2010   17.6140   97.6210 H         3 ARG34       0.0000 
     47 HG3        -5.0320   17.0420   98.5330 H         3 ARG34       0.0000 
     48 HD2        -3.5950   18.6840   97.6310 H         3 ARG34       0.0000 
     49 HD3        -4.8400   19.2970   96.8560 H         3 ARG34       0.0000 
     50 HE         -5.5460   20.1780   98.7600 H         3 ARG34       0.0000 
     51 HH11       -2.8890   18.3310   99.4410 H         3 ARG34       0.0000 
     52 HH12       -2.6760   18.8550  100.8190 H         3 ARG34       0.0000 
     53 HH21       -5.2080   20.9640  100.8520 H         3 ARG34       0.0000 
     54 HH22       -4.0770   20.4460  101.6720 H         3 ARG34       0.0000 
     55 N          -5.2580   15.3160   93.2610 N.am      4 PRO35       0.0000 
     56 CA         -4.8660   14.1740   92.4270 C.3       4 PRO35       0.0000 
     57 C          -3.3800   13.8530   92.5350 C.2       4 PRO35       0.0000 
     58 O          -2.5600   14.6830   92.9310 O.2       4 PRO35       0.0000 
     59 CB         -5.2240   14.6390   91.0100 C.3       4 PRO35       0.0000 
     60 CG         -4.9800   16.1320   91.0640 C.3       4 PRO35       0.0000 
     61 CD         -5.4280   16.5510   92.4620 C.3       4 PRO35       0.0000 
     62 HA         -5.3800   13.3860   92.6630 H         4 PRO35       0.0000 
     63 HB2        -4.6480   14.2090   90.3580 H         4 PRO35       0.0000 
     64 HB3        -6.1530   14.4390   90.8150 H         4 PRO35       0.0000 
     65 HG2        -4.0380   16.3190   90.9310 H         4 PRO35       0.0000 
     66 HG3        -5.5060   16.5790   90.3830 H         4 PRO35       0.0000 
     67 HD2        -4.8670   17.2630   92.8050 H         4 PRO35       0.0000 
     68 HD3        -6.3560   16.8330   92.4560 H         4 PRO35       0.0000 
     69 N          -3.0440   12.6140   92.1630 N.am      5 ALA36       0.0000 
     70 CA         -1.6550   12.2500   91.9470 C.3       5 ALA36       0.0000 
     71 C          -1.0950   13.1040   90.8110 C.2       5 ALA36       0.0000 
     72 O          -1.8540   13.6740   90.0220 O.2       5 ALA36       0.0000 
     73 CB         -1.5310   10.7650   91.6130 C.3       5 ALA36       0.0000 
     74 H          -3.6030   11.9740   92.0320 H         5 ALA36       0.0000 
     75 HA         -1.1340   12.4070   92.7500 H         5 ALA36       0.0000 
     76 HB1        -0.5920   10.5390   91.5250 H         5 ALA36       0.0000 
     77 HB2        -1.9300   10.2460   92.3290 H         5 ALA36       0.0000 
     78 HB3        -1.9940   10.5890   90.7790 H         5 ALA36       0.0000 
     79 N           0.2360   13.2280   90.7170 N.am      6 PRO37       0.0000 
     80 CA          0.7780   14.0050   89.5900 C.3       6 PRO37       0.0000 
     81 C           0.5340   13.3440   88.2290 C.2       6 PRO37       0.0000 
     82 O           0.6390   12.1230   88.1360 O.2       6 PRO37       0.0000 
     83 CB          2.2870   14.0630   89.8860 C.3       6 PRO37       0.0000 
     84 CG          2.4220   13.7200   91.3560 C.3       6 PRO37       0.0000 
     85 CD          1.2910   12.7540   91.6330 C.3       6 PRO37       0.0000 
     86 HA          0.4040   14.8990   89.5890 H         6 PRO37       0.0000 
     87 HB2         2.7550   13.4150   89.3360 H         6 PRO37       0.0000 
     88 HB3         2.6230   14.9550   89.7070 H         6 PRO37       0.0000 
     89 HG2         3.2820   13.3040   91.5210 H         6 PRO37       0.0000 
     90 HG3         2.3330   14.5220   91.8930 H         6 PRO37       0.0000 
     91 HD2         1.5520   11.8430   91.4230 H         6 PRO37       0.0000 
     92 HD3         1.0020   12.8120   92.5570 H         6 PRO37       0.0000 
     93 C         -11.8220   19.6320  101.0890 C.2       7 ACE31       0.0000 
     94 O         -11.5320   20.7790  100.7460 O.2       7 ACE31       0.0000 
     95 CH3       -12.9320   19.3170  102.0440 C.3       7 ACE31       0.0000 
     96 H1        -12.9940   18.2380  102.1850 H         7 ACE31       0.0000 
     97 H2        -13.8750   19.6860  101.6390 H         7 ACE31       0.0000 
     98 H3        -12.7350   19.7990  103.0020 H         7 ACE31       0.0000 
     99 O           2.4550   13.5880   85.6280 O.2       8 LPD38       0.0000 
    100 C           1.4200   12.9990   85.3780 C.2       8 LPD38       0.0000 
    101 N2          1.4260   11.8800   84.6730 N.am      8 LPD38       0.0000 
    102 CA          0.1080   13.5240   85.8750 C.3       8 LPD38       0.0000 
    103 N           0.2230   14.1180   87.1930 N.4       8 LPD38       0.0000 
    104 CD          0.0560   15.5620   87.1230 C.3       8 LPD38       0.0000 
    105 CG         -0.4840   15.8850   85.7240 C.3       8 LPD38       0.0000 
    106 CB         -0.4480   14.5800   84.9190 C.3       8 LPD38       0.0000 
    107 HN21        2.2970   11.5160   84.3320 H         8 LPD38       0.0000 
    108 HN22        0.5680   11.3980   84.4790 H         8 LPD38       0.0000 
    109 HA         -0.5890   12.6750   85.9100 H         8 LPD38       0.0000 
    110 HD3        -0.6420   15.9040   87.8910 H         8 LPD38       0.0000 
    111 HD2         1.0110   16.0660   87.2900 H         8 LPD38       0.0000 
    112 HG3        -1.5050   16.2680   85.7870 H         8 LPD38       0.0000 
    113 HG2         0.1310   16.6480   85.2430 H         8 LPD38       0.0000 
    114 HB2        -1.4490   14.3070   84.5770 H         8 LPD38       0.0000 
    115 HB3         0.1910   14.6830   84.0400 H         8 LPD38       0.0000 
@<TRIPOS>BOND
     1    1   93 du   
     2    1    2 1    
     3    2    3 1    
     4    1    7 1    
     5    2    5 1    
     6    2    8 1    
     7    3    4 2    
     8    3   12 am   
     9    5    6 1    
    10    5    9 1    
    11    5   10 1    
    12    6   11 1    
    13   12   13 1    
    14   13   14 1    
    15   12   20 1    
    16   13   16 1    
    17   13   21 1    
    18   14   15 2    
    19   14   31 am   
    20   16   17 1    
    21   16   22 1    
    22   16   23 1    
    23   17   18 1    
    24   17   19 1    
    25   17   24 1    
    26   18   25 1    
    27   18   26 1    
    28   18   27 1    
    29   19   28 1    
    30   19   29 1    
    31   19   30 1    
    32   31   32 1    
    33   32   33 1    
    34   31   42 1    
    35   32   35 1    
    36   32   43 1    
    37   33   34 2    
    38   33   55 am   
    39   35   36 1    
    40   35   44 1    
    41   35   45 1    
    42   36   37 1    
    43   36   46 1    
    44   36   47 1    
    45   37   38 1    
    46   37   48 1    
    47   37   49 1    
    48   38   39 ar   
    49   39   40 ar   
    50   38   50 1    
    51   39   41 ar   
    52   55   56 1    
    53   40   51 1    
    54   40   52 1    
    55   41   53 1    
    56   41   54 1    
    57   55   61 1    
    58   56   57 1    
    59   56   59 1    
    60   56   62 1    
    61   57   58 2    
    62   57   69 am   
    63   59   60 1    
    64   59   63 1    
    65   59   64 1    
    66   60   61 1    
    67   60   65 1    
    68   60   66 1    
    69   61   67 1    
    70   61   68 1    
    71   69   70 1    
    72   70   71 1    
    73   69   74 1    
    74   70   73 1    
    75   70   75 1    
    76   71   72 2    
    77   71   79 am   
    78   73   76 1    
    79   73   77 1    
    80   73   78 1    
    81   79   80 1    
    82   79   85 1    
    83   80   81 1    
    84   80   83 1    
    85   80   86 1    
    86   81  103 du   
    87   81   82 2    
    88   83   84 1    
    89   83   87 1    
    90   83   88 1    
    91   84   85 1    
    92   84   89 1    
    93   84   90 1    
    94   85   91 1    
    95   85   92 1    
    96   93   94 2    
    97   93   95 1    
    98   95   96 1    
    99   95   97 1    
   100   95   98 1    
   101   99  100 2    
   102  100  101 am   
   103  100  102 1    
   104  101  107 1    
   105  101  108 1    
   106  102  103 1    
   107  102  106 1    
   108  102  109 1    
   109  103  104 1    
   110  104  105 1    
   111  104  110 1    
   112  104  111 1    
   113  105  106 1    
   114  105  112 1    
   115  105  113 1    
   116  106  114 1    
   117  106  115 1    
@<TRIPOS>SUBSTRUCTURE
     1 SER32       1 RESIDUE 
     2 LEU33      12 RESIDUE 
     3 ARG34      31 RESIDUE 
     4 PRO35      55 RESIDUE 
     5 ALA36      69 RESIDUE 
     6 PRO37      79 RESIDUE 
     7 ACE31      93 GROUP   
     8 LPD38      99 GROUP   
@<TRIPOS>SET

