#    Name: 6r51_1_SER_LEU_ARG_PRO_ALA_PRO_ACE_LPD_CAVITY_N1_4
#    Modification time : Fri May 22 19:29:45 2020

@<TRIPOS>MOLECULE
6r51_1_SER_LEU_ARG_PRO_ALA_PRO_ACE_LPD_CAVITY_N1_4
  133     0     7     0     0
SMALL
NO_CHARGES


@<TRIPOS>ATOM
      1 OG          0.4300   36.7600   60.1800 O.3       1 SER1        0.0000 
      2 OG         -0.4200   33.9800   60.9200 O.3       1 SER1        0.0000 
      3 OG          0.5600   32.1200   61.1400 O.3       1 SER1        0.0000 
      4 OG         -0.8500   32.5900   61.2900 O.3       1 SER1        0.0000 
      5 OG         -2.9900   25.6400   63.1300 O.3       1 SER1        0.0000 
      6 OG          0.6800   37.0700   61.6300 O.3       1 SER1        0.0000 
      7 OG          1.2400   33.8200   62.2200 O.3       1 SER1        0.0000 
      8 OG         -0.1700   34.2900   62.3700 O.3       1 SER1        0.0000 
      9 N          -7.1200   19.3300   58.9600 N.am      2 ALA2        0.0000 
     10 O          -4.1700   23.3400   59.1600 O.2       2 ALA2        0.0000 
     11 O          -3.6100   20.0800   59.7500 O.2       2 ALA2        0.0000 
     12 O          -5.0200   20.5600   59.9000 O.2       2 ALA2        0.0000 
     13 O          -5.4500   19.1700   60.2600 O.2       2 ALA2        0.0000 
     14 O          -4.4800   26.9000   60.0200 O.2       2 ALA2        0.0000 
     15 N          -5.8900   27.3700   60.1600 N.am      2 ALA2        0.0000 
     16 O          -3.4900   25.0300   60.2400 O.2       2 ALA2        0.0000 
     17 O          -4.9100   25.5100   60.3800 O.2       2 ALA2        0.0000 
     18 O          -3.9200   23.6400   60.6100 O.2       2 ALA2        0.0000 
     19 O          -1.5100   21.3000   60.6800 O.2       2 ALA2        0.0000 
     20 O          -2.9300   21.7800   60.8300 O.2       2 ALA2        0.0000 
     21 O          -4.3400   22.2500   60.9700 O.2       2 ALA2        0.0000 
     22 N          -3.5100   34.6200   59.7700 N.am      2 ALA2        0.0000 
     23 N          -3.9300   33.2400   60.1300 N.am      2 ALA2        0.0000 
     24 N          -5.3500   33.7100   60.2800 N.am      2 ALA2        0.0000 
     25 N          -4.3600   31.8500   60.5000 N.am      2 ALA2        0.0000 
     26 N          -5.7800   32.3200   60.6500 N.am      2 ALA2        0.0000 
     27 N          -5.2200   29.0700   61.2400 N.am      2 ALA2        0.0000 
     28 N          -6.6300   29.5400   61.3900 N.am      2 ALA2        0.0000 
     29 N          -5.6400   27.6800   61.6100 N.am      2 ALA2        0.0000 
     30 N          -6.0700   26.2900   61.9800 N.am      2 ALA2        0.0000 
     31 N          -6.5000   24.9000   62.3400 N.am      2 ALA2        0.0000 
     32 O          -2.6800   22.0800   62.2800 O.2       2 ALA2        0.0000 
     33 O          -4.0900   22.5600   62.4200 O.2       2 ALA2        0.0000 
     34 N          -1.8400   34.4600   61.0700 N.am      2 ALA2        0.0000 
     35 N          -3.2600   34.9300   61.2100 N.am      2 ALA2        0.0000 
     36 N          -2.2700   33.0700   61.4400 N.am      2 ALA2        0.0000 
     37 O          -4.5400   30.7600   62.3200 O.2       2 ALA2        0.0000 
     38 O          -4.9600   29.3700   62.6900 O.2       2 ALA2        0.0000 
     39 N          -5.3900   27.9800   63.0500 N.am      2 ALA2        0.0000 
     40 N          -5.8200   26.5900   63.4200 N.am      2 ALA2        0.0000 
     41 O          -2.4300   22.3900   63.7200 O.2       2 ALA2        0.0000 
     42 OD1         0.9200   34.2900   57.5100 O.co2     3 ASP3        0.0000 
     43 OD1        -0.5000   34.7600   57.6600 O.co2     3 ASP3        0.0000 
     44 OD1         0.4900   32.9000   57.8800 O.co2     3 ASP3        0.0000 
     45 OD1        -0.9300   33.3700   58.0300 O.co2     3 ASP3        0.0000 
     46 OD1         1.5900   35.9800   58.5900 O.co2     3 ASP3        0.0000 
     47 NZ         -4.5400   18.0800   57.2300 N.4       4 LYS4        0.0000 
     48 NZ         -4.2900   18.3900   58.6700 N.4       4 LYS4        0.0000 
     49 NZ         -5.7000   18.8600   58.8200 N.4       4 LYS4        0.0000 
     50 NZ          1.1700   34.5900   58.9600 N.4       4 LYS4        0.0000 
     51 NZ          0.3100   31.8100   59.7000 N.4       4 LYS4        0.0000 
     52 NZ         -1.1000   32.2900   59.8400 N.4       4 LYS4        0.0000 
     53 NZ         -1.5300   30.9000   60.2100 N.4       4 LYS4        0.0000 
     54 NZ         -2.9500   31.3700   60.3600 N.4       4 LYS4        0.0000 
     55 NZ         -3.8000   28.5900   61.0900 N.4       4 LYS4        0.0000 
     56 NZ         -2.8100   26.7300   61.3200 N.4       4 LYS4        0.0000 
     57 NZ         -1.8200   24.8600   61.5400 N.4       4 LYS4        0.0000 
     58 NZ         -3.2400   25.3400   61.6800 N.4       4 LYS4        0.0000 
     59 CZ         -5.1000   21.3300   56.6300 C.ar      5 PHE5        0.0000 
     60 CZ         -6.9400   20.4200   57.1500 C.ar      5 PHE5        0.0000 
     61 CZ         -7.3700   19.0300   57.5200 C.ar      5 PHE5        0.0000 
     62 CZ         -4.8500   21.6400   58.0800 C.ar      5 PHE5        0.0000 
     63 CZ         -5.2700   20.2500   58.4500 C.ar      5 PHE5        0.0000 
     64 CZ         -6.6900   20.7200   58.6000 C.ar      5 PHE5        0.0000 
     65 CZ         -4.6000   21.9500   59.5300 C.ar      5 PHE5        0.0000 
     66 CZ         -5.6000   33.4000   58.8300 C.ar      5 PHE5        0.0000 
     67 CZ         -7.0200   33.8800   58.9800 C.ar      5 PHE5        0.0000 
     68 CZ         -6.0300   32.0100   59.2000 C.ar      5 PHE5        0.0000 
     69 CZ         -5.0400   30.1500   59.4200 C.ar      5 PHE5        0.0000 
     70 CZ         -6.8800   29.2300   59.9400 C.ar      5 PHE5        0.0000 
     71 CZ         -2.0700   24.5600   60.0900 C.ar      5 PHE5        0.0000 
     72 CZ         -6.3200   25.9800   60.5300 C.ar      5 PHE5        0.0000 
     73 CZ         -2.5000   23.1700   60.4600 C.ar      5 PHE5        0.0000 
     74 CZ         -5.3300   24.1200   60.7500 C.ar      5 PHE5        0.0000 
     75 CZ         -6.7500   24.5900   60.9000 C.ar      5 PHE5        0.0000 
     76 CZ         -0.8300   23.0000   61.7600 C.ar      5 PHE5        0.0000 
     77 CZ         -2.2500   23.4700   61.9100 C.ar      5 PHE5        0.0000 
     78 CZ         -2.6900   31.6800   61.8000 C.ar      5 PHE5        0.0000 
     79 CZ         -3.1200   30.2900   62.1700 C.ar      5 PHE5        0.0000 
     80 CZ         -3.5500   28.9000   62.5400 C.ar      5 PHE5        0.0000 
     81 CZ         -3.9800   27.5100   62.9100 C.ar      5 PHE5        0.0000 
     82 CZ         -4.4000   26.1200   63.2800 C.ar      5 PHE5        0.0000 
     83 CZ         -2.0000   23.7800   63.3500 C.ar      5 PHE5        0.0000 
     84 CZ         -3.4100   24.2500   63.5000 C.ar      5 PHE5        0.0000 
     85 CZ         -4.8300   24.7300   63.6500 C.ar      5 PHE5        0.0000 
     86 CZ         -0.7300   37.5400   61.7800 C.ar      5 PHE5        0.0000 
     87 CZ         -3.1600   24.5600   64.9500 C.ar      5 PHE5        0.0000 
     88 CA         -4.3600   19.1600   55.4100 C.3       6 GLY6        0.0000 
     89 CA         -3.6800   20.8600   56.4900 C.3       6 GLY6        0.0000 
     90 CA         -5.5300   19.9400   57.0000 C.3       6 GLY6        0.0000 
     91 CA         -6.4400   21.0300   60.0400 C.3       6 GLY6        0.0000 
     92 CA         -1.3500   31.9800   58.4000 C.3       6 GLY6        0.0000 
     93 CA         -5.7600   22.7300   61.1200 C.3       6 GLY6        0.0000 
     94 CA          0.7400   33.2000   59.3300 C.3       6 GLY6        0.0000 
     95 CA         -7.1900   32.7900   60.7900 C.3       6 GLY6        0.0000 
     96 CA         -6.2000   30.9300   61.0200 C.3       6 GLY6        0.0000 
     97 CA         -5.0800   24.4200   62.2000 C.3       6 GLY6        0.0000 
     98 CA         -1.2600   21.6100   62.1300 C.3       6 GLY6        0.0000 
     99 CA         -5.5100   23.0300   62.5700 C.3       6 GLY6        0.0000 
    100 CA          2.2700   37.6800   59.6700 C.3       6 GLY6        0.0000 
    101 CA          1.8500   36.2900   60.0400 C.3       6 GLY6        0.0000 
    102 CA          1.4200   34.9000   60.4100 C.3       6 GLY6        0.0000 
    103 CA          0.9900   33.5100   60.7800 C.3       6 GLY6        0.0000 
    104 CA         -6.2500   25.2000   63.7900 C.3       6 GLY6        0.0000 
    105 CA         -3.8400   22.8600   63.8700 C.3       6 GLY6        0.0000 
    106 CA         -5.2600   23.3400   64.0100 C.3       6 GLY6        0.0000 
    107 CA          0.2500   35.6800   62.0000 C.3       6 GLY6        0.0000 
    108 CA         -1.1600   36.1500   62.1400 C.3       6 GLY6        0.0000 
    109 CA         -1.5900   34.7600   62.5100 C.3       6 GLY6        0.0000 
    110 CA         -2.0200   33.3700   62.8800 C.3       6 GLY6        0.0000 
    111 CA          0.5100   35.9900   63.4500 C.3       6 GLY6        0.0000 
    112 DU         -4.1100   19.4700   56.8600 H         7 CUB7        0.0000 
    113 DU         -5.9500   18.5500   57.3700 H         7 CUB7        0.0000 
    114 DU         -3.4300   21.1700   57.9400 H         7 CUB7        0.0000 
    115 DU         -3.8600   19.7800   58.3000 H         7 CUB7        0.0000 
    116 DU         -3.1800   21.4700   59.3800 H         7 CUB7        0.0000 
    117 DU         -2.3400   33.8500   58.1700 H         7 CUB7        0.0000 
    118 DU         -3.7600   34.3200   58.3200 H         7 CUB7        0.0000 
    119 DU         -2.7700   32.4600   58.5400 H         7 CUB7        0.0000 
    120 DU         -4.1900   32.9300   58.6900 H         7 CUB7        0.0000 
    121 DU         -3.2000   31.0700   58.9100 H         7 CUB7        0.0000 
    122 DU         -4.6100   31.5400   59.0600 H         7 CUB7        0.0000 
    123 DU         -5.4700   28.7600   59.7900 H         7 CUB7        0.0000 
    124 DU          0.1800   36.4600   58.7400 H         7 CUB7        0.0000 
    125 DU         -0.2500   35.0700   59.1100 H         7 CUB7        0.0000 
    126 DU         -0.6800   33.6800   59.4700 H         7 CUB7        0.0000 
    127 DU         -2.0900   34.1500   59.6200 H         7 CUB7        0.0000 
    128 DU         -2.5200   32.7600   59.9900 H         7 CUB7        0.0000 
    129 DU         -4.7900   30.4600   60.8700 H         7 CUB7        0.0000 
    130 DU         -4.2300   27.2000   61.4600 H         7 CUB7        0.0000 
    131 DU         -4.6500   25.8100   61.8300 H         7 CUB7        0.0000 
    132 DU         -3.6700   23.9500   62.0500 H         7 CUB7        0.0000 
    133 DU         -1.4100   35.8500   60.7000 H         7 CUB7        0.0000 
@<TRIPOS>BOND
@<TRIPOS>SUBSTRUCTURE
     1 SER1        1 GROUP   
     2 ALA2        9 GROUP   
     3 ASP3       42 GROUP   
     4 LYS4       47 GROUP   
     5 PHE5       59 GROUP   
     6 GLY6       88 GROUP   
     7 CUB7      112 GROUP   
@<TRIPOS>SET

