#    Name: 6ooq_1_DXC_CAVITY_N1_4
#    Modification time : Fri May 22 19:25:13 2020

@<TRIPOS>MOLECULE
6ooq_1_DXC_CAVITY_N1_4
   78     0     6     0     0
SMALL
NO_CHARGES


@<TRIPOS>ATOM
      1 OG        -16.3000    8.4600   24.9700 O.3       1 SER1        0.0000 
      2 OG        -17.3000    8.6200   26.0800 O.3       1 SER1        0.0000 
      3 OG        -14.2600    9.0100   24.7100 O.3       1 SER1        0.0000 
      4 OG        -14.6900   10.3200   24.1300 O.3       1 SER1        0.0000 
      5 OG        -15.2700    9.1700   25.8100 O.3       1 SER1        0.0000 
      6 OG        -13.6600   11.0300   24.9600 O.3       1 SER1        0.0000 
      7 OG        -14.0900   12.3400   24.3800 O.3       1 SER1        0.0000 
      8 OG        -14.6700   11.1900   26.0700 O.3       1 SER1        0.0000 
      9 OG        -15.1000   12.5000   25.4800 O.3       1 SER1        0.0000 
     10 OG         -9.3200    8.3300   27.2700 O.3       1 SER1        0.0000 
     11 OG         -8.0000   13.9800   23.5800 O.3       1 SER1        0.0000 
     12 O         -14.2900    8.1500   22.7700 O.2       2 ALA2        0.0000 
     13 N         -12.4900   14.2000   23.5400 N.am      2 ALA2        0.0000 
     14 N         -10.4600   14.7500   23.2700 N.am      2 ALA2        0.0000 
     15 N         -10.9000    7.3300   30.0600 N.am      2 ALA2        0.0000 
     16 N         -12.3300    8.8100   30.5800 N.am      2 ALA2        0.0000 
     17 NZ        -14.1200   11.4800   22.4400 N.4       3 LYS4        0.0000 
     18 NZ        -13.4100    6.3800   25.8700 N.4       3 LYS4        0.0000 
     19 NZ        -14.8400    7.8500   26.3900 N.4       3 LYS4        0.0000 
     20 NZ        -16.2700    9.3300   26.9100 N.4       3 LYS4        0.0000 
     21 NZ        -12.8100    8.4000   26.1200 N.4       3 LYS4        0.0000 
     22 NZ        -13.8100    8.5600   27.2300 N.4       3 LYS4        0.0000 
     23 NZ        -10.3500    7.6300   26.4400 N.4       3 LYS4        0.0000 
     24 NZ        -11.3500    7.7900   27.5400 N.4       3 LYS4        0.0000 
     25 NZ        -11.7800    9.1000   26.9600 N.4       3 LYS4        0.0000 
     26 NZ        -12.7800    9.2600   28.0600 N.4       3 LYS4        0.0000 
     27 NZ        -13.7900    9.4200   29.1600 N.4       3 LYS4        0.0000 
     28 NZ        -10.3200    8.4900   28.3800 N.4       3 LYS4        0.0000 
     29 NZ        -11.3300    8.6500   29.4800 N.4       3 LYS4        0.0000 
     30 CZ        -11.6800    9.8500   20.8200 C.ar      4 PHE5        0.0000 
     31 CZ        -11.0800   11.8700   21.0800 C.ar      4 PHE5        0.0000 
     32 CZ        -11.2300    9.3900   23.3400 C.ar      4 PHE5        0.0000 
     33 CZ        -11.6500   10.7100   22.7600 C.ar      4 PHE5        0.0000 
     34 CZ        -10.0500   12.5700   21.9100 C.ar      4 PHE5        0.0000 
     35 CZ         -9.3400    7.4700   25.3400 C.ar      4 PHE5        0.0000 
     36 CZ         -9.7700    8.7800   24.7600 C.ar      4 PHE5        0.0000 
     37 CZ        -10.2000   10.1000   24.1800 C.ar      4 PHE5        0.0000 
     38 CZ        -10.6300   11.4100   23.5900 C.ar      4 PHE5        0.0000 
     39 CZ        -11.0600   12.7300   23.0100 C.ar      4 PHE5        0.0000 
     40 CZ         -9.0200   13.2700   22.7500 C.ar      4 PHE5        0.0000 
     41 CZ         -8.7400    9.4900   25.5900 C.ar      4 PHE5        0.0000 
     42 CZ         -9.1700   10.8000   25.0100 C.ar      4 PHE5        0.0000 
     43 CZ         -9.6000   12.1200   24.4300 C.ar      4 PHE5        0.0000 
     44 CA        -14.7100    9.4600   22.1900 C.3       5 GLY6        0.0000 
     45 CA        -12.2500    8.6900   22.5000 C.3       5 GLY6        0.0000 
     46 CA        -12.6800   10.0100   21.9200 C.3       5 GLY6        0.0000 
     47 CA        -13.1100   11.3200   21.3400 C.3       5 GLY6        0.0000 
     48 CA        -13.2600    8.8500   23.6100 C.3       5 GLY6        0.0000 
     49 CA        -13.8300    7.6900   25.2900 C.3       5 GLY6        0.0000 
     50 CA        -10.8000    8.0800   23.9200 C.3       5 GLY6        0.0000 
     51 CA        -12.0800   12.0200   22.1800 C.3       5 GLY6        0.0000 
     52 CA        -11.3700    6.9200   25.6000 C.3       5 GLY6        0.0000 
     53 CA        -11.8000    8.2400   25.0200 C.3       5 GLY6        0.0000 
     54 CA        -10.4800   13.8800   21.3300 C.3       5 GLY6        0.0000 
     55 CA        -11.4800   14.0400   22.4300 C.3       5 GLY6        0.0000 
     56 CA         -9.4500   14.5900   22.1700 C.3       5 GLY6        0.0000 
     57 CA        -10.3000    9.3500   30.3100 C.3       5 GLY6        0.0000 
     58 CA         -8.1200   12.3700   27.7800 C.3       5 GLY6        0.0000 
     59 DU        -13.6900   10.1600   23.0300 H         6 CUB7        0.0000 
     60 DU        -12.2300    9.5500   24.4400 H         6 CUB7        0.0000 
     61 DU        -12.6600   10.8700   23.8600 H         6 CUB7        0.0000 
     62 DU        -13.0900   12.1800   23.2800 H         6 CUB7        0.0000 
     63 DU        -13.2400    9.7100   25.5400 H         6 CUB7        0.0000 
     64 DU        -14.2400    9.8700   26.6500 H         6 CUB7        0.0000 
     65 DU        -10.7700    8.9400   25.8600 H         6 CUB7        0.0000 
     66 DU        -11.2000   10.2600   25.2800 H         6 CUB7        0.0000 
     67 DU        -11.6300   11.5700   24.7000 H         6 CUB7        0.0000 
     68 DU        -12.0600   12.8900   24.1200 H         6 CUB7        0.0000 
     69 DU        -12.6400   11.7300   25.8000 H         6 CUB7        0.0000 
     70 DU        -13.2100   10.5700   27.4800 H         6 CUB7        0.0000 
     71 DU        -10.0300   13.4300   23.8500 H         6 CUB7        0.0000 
     72 DU         -9.7500    9.6500   26.6900 H         6 CUB7        0.0000 
     73 DU        -10.7500    9.8000   27.8000 H         6 CUB7        0.0000 
     74 DU        -11.7600    9.9600   28.9000 H         6 CUB7        0.0000 
     75 DU         -7.7100   10.1900   26.4300 H         6 CUB7        0.0000 
     76 DU         -8.7200   10.3500   27.5300 H         6 CUB7        0.0000 
     77 DU         -9.7200   10.5100   28.6300 H         6 CUB7        0.0000 
     78 DU        -10.7300   10.6700   29.7300 H         6 CUB7        0.0000 
@<TRIPOS>BOND
@<TRIPOS>SUBSTRUCTURE
     1 SER1        1 GROUP   
     2 ALA2       12 GROUP   
     3 LYS4       17 GROUP   
     4 PHE5       30 GROUP   
     5 GLY6       44 GROUP   
     6 CUB7       59 GROUP   
@<TRIPOS>SET

