#    Name: 6ooq_1_DXC
#    Modification time : Fri May 22 19:25:12 2020

@<TRIPOS>MOLECULE
6ooq_1_DXC
   28    31     1     0     0
SMALL
NO_CHARGES


@<TRIPOS>ATOM
      1 C1        -17.4100   16.5650   32.6750 C.3       1 DXC500      0.0000 
      2 C2        -17.4110   16.7200   31.1630 C.3       1 DXC500      0.0000 
      3 C3        -18.1760   15.5920   30.4620 C.3       1 DXC500      0.0000 
      4 C4        -17.7760   14.1550   30.8850 C.3       1 DXC500      0.0000 
      5 C5        -17.6290   14.0610   32.4100 C.3       1 DXC500      0.0000 
      6 C6        -16.8280   15.2030   33.0430 C.3       1 DXC500      0.0000 
      7 C7        -18.0610   15.8320   28.9550 C.3       1 DXC500      0.0000 
      8 C8        -16.6770   15.4640   28.4280 C.3       1 DXC500      0.0000 
      9 C9        -16.4090   13.9880   28.6940 C.3       1 DXC500      0.0000 
     10 C10       -16.4770   13.6630   30.1970 C.3       1 DXC500      0.0000 
     11 C11       -15.0410   13.5260   28.1940 C.3       1 DXC500      0.0000 
     12 C12       -14.8600   12.0100   28.2460 C.3       1 DXC500      0.0000 
     13 C13       -14.9170   11.6160   29.7260 C.3       1 DXC500      0.0000 
     14 C14       -16.1520   12.1760   30.4620 C.3       1 DXC500      0.0000 
     15 C15       -14.5540   13.9970   26.8310 C.3       1 DXC500      0.0000 
     16 C16       -13.4090   13.0290   26.5620 C.3       1 DXC500      0.0000 
     17 C17       -13.5050   11.8350   27.5300 C.3       1 DXC500      0.0000 
     18 C18       -18.9460   13.2340   30.5240 C.3       1 DXC500      0.0000 
     19 C19       -13.1670   10.4810   26.8530 C.3       1 DXC500      0.0000 
     20 O1        -13.7250   12.0250   30.4090 O.3       1 DXC500      0.0000 
     21 O2        -16.6380   17.6280   33.2490 O.3       1 DXC500      0.0000 
     22 C20       -15.9890   11.2740   27.4980 C.3       1 DXC500      0.0000 
     23 C21       -11.8150   10.4810   26.1310 C.3       1 DXC500      0.0000 
     24 C22       -11.9200   10.7230   24.6230 C.3       1 DXC500      0.0000 
     25 C23       -11.5270   12.1560   24.3140 C.2       1 DXC500      0.0000 
     26 O3        -12.3360   12.8880   23.6830 O.co2     1 DXC500      0.0000 
     27 O4        -10.4060   12.5580   24.7030 O.co2     1 DXC500      0.0000 
     28 C24       -13.1510    9.3060   27.8310 C.3       1 DXC500      0.0000 
@<TRIPOS>BOND
     1    1    2 1    
     2    1    6 1    
     3    1   21 1    
     4    2    3 1    
     5    3    4 1    
     6    3    7 1    
     7    4    5 1    
     8    4   10 1    
     9    4   18 1    
    10    5    6 1    
    11    7    8 1    
    12    8    9 1    
    13    9   10 1    
    14    9   11 1    
    15   10   14 1    
    16   11   12 1    
    17   11   15 1    
    18   12   13 1    
    19   12   17 1    
    20   12   22 1    
    21   13   14 1    
    22   13   20 1    
    23   15   16 1    
    24   16   17 1    
    25   17   19 1    
    26   19   23 1    
    27   19   28 1    
    28   23   24 1    
    29   24   25 1    
    30   25   26 ar   
    31   25   27 ar   
@<TRIPOS>SUBSTRUCTURE
     1 DXC500      1 GROUP   
@<TRIPOS>SET

