#    Name: 6j90_1_ATP
#    Modification time : Fri May 22 19:36:07 2020

@<TRIPOS>MOLECULE
6j90_1_ATP
   31    33     1     0     1
SMALL
NO_CHARGES


@<TRIPOS>ATOM
      1 PG         -8.0380   47.4610   26.5640 P.3       1 ATP502      0.0000 
      2 O1G        -9.4590   47.0420   26.2570 O.co2     1 ATP502      0.0000 
      3 O2G        -7.2110   46.3470   27.1310 O.co2     1 ATP502      0.0000 
      4 O3G        -7.3650   48.1170   25.3790 O.co2     1 ATP502      0.0000 
      5 PB         -9.3360   49.6250   28.1130 P.3       1 ATP502      0.0000 
      6 O1B        -8.8890   50.5660   29.1890 O.co2     1 ATP502      0.0000 
      7 O2B       -10.6090   48.8850   28.2940 O.co2     1 ATP502      0.0000 
      8 O3B        -8.1560   48.5890   27.7650 O.3       1 ATP502      0.0000 
      9 PA        -10.8490   50.7690   25.9010 P.3       1 ATP502      0.0000 
     10 O1A       -10.4840   51.7160   24.7900 O.co2     1 ATP502      0.0000 
     11 O2A       -11.5130   49.4520   25.5960 O.co2     1 ATP502      0.0000 
     12 O3A        -9.4990   50.4600   26.7440 O.3       1 ATP502      0.0000 
     13 O5'       -11.7060   51.5650   26.9910 O.3       1 ATP502      0.0000 
     14 C5'       -11.2210   52.8830   27.3760 C.3       1 ATP502      0.0000 
     15 C4'       -11.8590   53.2800   28.6810 C.3       1 ATP502      0.0000 
     16 O4'       -13.2340   53.6740   28.4420 O.3       1 ATP502      0.0000 
     17 C3'       -11.9810   52.1740   29.7310 C.3       1 ATP502      0.0000 
     18 O3'       -10.7470   52.0020   30.4190 O.3       1 ATP502      0.0000 
     19 C2'       -13.0700   52.7590   30.6260 C.3       1 ATP502      0.0000 
     20 O2'       -12.5700   53.7290   31.5310 O.3       1 ATP502      0.0000 
     21 C1'       -14.0040   53.3760   29.5890 C.3       1 ATP502      0.0000 
     22 N9        -15.0980   52.4980   29.1990 N.pl3     1 ATP502      0.0000 
     23 C8        -15.1740   51.7150   28.0740 C.2       1 ATP502      0.0000 
     24 N7        -16.2840   51.0250   28.0110 N.2       1 ATP502      0.0000 
     25 C5        -16.9960   51.4100   29.1340 C.ar      1 ATP502      0.0000 
     26 C6        -18.2730   51.0560   29.6020 C.ar      1 ATP502      0.0000 
     27 N6        -19.0600   50.1870   28.9700 N.pl3     1 ATP502      0.0000 
     28 N1        -18.6890   51.6390   30.7600 N.ar      1 ATP502      0.0000 
     29 C2        -17.8580   52.4900   31.3920 C.ar      1 ATP502      0.0000 
     30 N3        -16.6430   52.9110   31.0330 N.ar      1 ATP502      0.0000 
     31 C4        -16.2660   52.3170   29.8840 C.ar      1 ATP502      0.0000 
@<TRIPOS>BOND
     1    1    2 ar   
     2    1    3 ar   
     3    1    4 ar   
     4    1    8 1    
     5    5    6 ar   
     6    5    7 ar   
     7    5    8 1    
     8    5   12 1    
     9    9   10 ar   
    10    9   11 ar   
    11    9   12 1    
    12    9   13 1    
    13   13   14 1    
    14   14   15 1    
    15   15   16 1    
    16   15   17 1    
    17   16   21 1    
    18   17   18 1    
    19   17   19 1    
    20   19   20 1    
    21   19   21 1    
    22   21   22 1    
    23   22   23 1    
    24   22   31 1    
    25   23   24 2    
    26   24   25 1    
    27   25   26 ar   
    28   25   31 ar   
    29   26   27 1    
    30   26   28 ar   
    31   28   29 ar   
    32   29   30 ar   
    33   30   31 ar   
@<TRIPOS>SUBSTRUCTURE
     1 ATP502      1 GROUP   
@<TRIPOS>SET
ATOM$ORANGE STATIC     ATOMS   COLORGROUP SYSTEM 
20 14 14 15 15 17 17 19 19 21 21 23 23 25 25 26 26 29 \
29 31 31 

