#    Name: 6hgj_1_AS4
#    Modification time : Fri May 22 19:37:53 2020

@<TRIPOS>MOLECULE
6hgj_1_AS4
   26    29     1     0     0
SMALL
NO_CHARGES


@<TRIPOS>ATOM
      1 C1        -36.6940   17.2040   -1.3370 C.3       1 AS4401      0.0000 
      2 C5        -39.1620   17.4400   -1.2940 C.3       1 AS4401      0.0000 
      3 C6        -38.1160   15.4000   -0.2710 C.2       1 AS4401      0.0000 
      4 C7        -38.0110   15.8350   -4.6950 C.3       1 AS4401      0.0000 
      5 C8        -36.7340   16.0080   -5.4520 C.2       1 AS4401      0.0000 
      6 C9        -36.6730   16.2870   -6.7550 C.2       1 AS4401      0.0000 
      7 C10       -37.8790   16.3270   -7.5640 C.2       1 AS4401      0.0000 
      8 C15       -38.0960   14.3480   -4.3550 C.3       1 AS4401      0.0000 
      9 C16       -36.1720   17.4920    0.9900 C.3       1 AS4401      0.0000 
     10 C17       -37.7040   17.5610    0.8280 C.3       1 AS4401      0.0000 
     11 C18       -38.4030   16.8100    1.9340 C.2       1 AS4401      0.0000 
     12 C19       -39.8710   17.0850    2.1540 C.3       1 AS4401      0.0000 
     13 C20       -35.5980   16.9260   -0.3150 C.3       1 AS4401      0.0000 
     14 C         -37.9640   16.8950   -0.5290 C.3       1 AS4401      0.0000 
     15 C2        -36.6860   16.3630   -2.6030 C.3       1 AS4401      0.0000 
     16 C3        -37.9240   16.7240   -3.4330 C.3       1 AS4401      0.0000 
     17 C4        -39.2560   16.7170   -2.6440 C.3       1 AS4401      0.0000 
     18 O         -39.6600   15.3970   -2.4180 O.3       1 AS4401      0.0000 
     19 O1        -39.2070   14.8480   -0.2380 O.2       1 AS4401      0.0000 
     20 O2        -37.8910   16.7970   -8.7090 O.2       1 AS4401      0.0000 
     21 C11       -39.1360   15.7590   -6.9520 C.3       1 AS4401      0.0000 
     22 C12       -39.2380   16.2580   -5.5240 C.3       1 AS4401      0.0000 
     23 C13       -35.4680   15.7870   -4.6950 C.3       1 AS4401      0.0000 
     24 C14       -35.4280   16.6220   -3.4210 C.3       1 AS4401      0.0000 
     25 O3        -37.8210   15.9990    2.6490 O.2       1 AS4401      0.0000 
     26 O4        -39.9250   18.0770    3.1290 O.3       1 AS4401      0.0000 
@<TRIPOS>BOND
     1    1   13 1    
     2    1   14 1    
     3    1   15 1    
     4    2   14 1    
     5    2   17 1    
     6    3   14 1    
     7    3   19 2    
     8    4    5 1    
     9    4    8 1    
    10    4   16 1    
    11    4   22 1    
    12    5    6 2    
    13    5   23 1    
    14    6    7 1    
    15    7   20 2    
    16    7   21 1    
    17    9   10 1    
    18    9   13 1    
    19   10   11 1    
    20   10   14 1    
    21   11   12 1    
    22   11   25 2    
    23   12   26 1    
    24   15   16 1    
    25   15   24 1    
    26   16   17 1    
    27   17   18 1    
    28   21   22 1    
    29   23   24 1    
@<TRIPOS>SUBSTRUCTURE
     1 AS4401      1 GROUP   
@<TRIPOS>SET

