#    Name: 6hgj_1_AS4_CAVITY_N1_12
#    Modification time : Fri May 22 19:37:53 2020

@<TRIPOS>MOLECULE
6hgj_1_AS4_CAVITY_N1_12
   82     0     5     0     0
SMALL
NO_CHARGES


@<TRIPOS>ATOM
      1 N         -39.0900   14.3100   -8.7000 N.am      1 ALA2        0.0000 
      2 N         -38.1800   13.3300   -4.4000 N.am      1 ALA2        0.0000 
      3 N         -35.3600   16.6000   -6.3500 N.am      1 ALA2        0.0000 
      4 N         -34.2100   15.6500   -6.2800 N.am      1 ALA2        0.0000 
      5 N         -40.7400   15.2200   -0.2900 N.am      1 ALA2        0.0000 
      6 O         -37.3700   16.7300   -3.2700 O.2       1 ALA2        0.0000 
      7 N         -33.5900   16.4600   -5.1800 N.am      1 ALA2        0.0000 
      8 O         -37.9100   18.5000   -2.2400 O.2       1 ALA2        0.0000 
      9 O         -38.6500   17.6800   -1.2200 O.2       1 ALA2        0.0000 
     10 O         -36.7600   17.5400   -2.1700 O.2       1 ALA2        0.0000 
     11 N         -34.8700   17.4100   -3.1300 N.am      1 ALA2        0.0000 
     12 O         -36.1400   18.3500   -1.0700 O.2       1 ALA2        0.0000 
     13 O         -37.6200   16.7100    0.9600 O.2       1 ALA2        0.0000 
     14 O         -35.7300   16.5800    0.0100 O.2       1 ALA2        0.0000 
     15 O         -36.4700   15.7500    1.0200 O.2       1 ALA2        0.0000 
     16 N         -36.6800   20.1200   -0.0300 N.am      1 ALA2        0.0000 
     17 O         -37.0000   17.5200    2.0600 O.2       1 ALA2        0.0000 
     18 O         -35.8500   16.5700    2.1300 O.2       1 ALA2        0.0000 
     19 OD1       -42.6700   17.1700   -6.7700 O.co2     2 ASP3        0.0000 
     20 CZ        -42.0600   17.9800   -5.6700 C.ar      3 PHE5        0.0000 
     21 CZ        -40.9100   17.0200   -5.6000 C.ar      3 PHE5        0.0000 
     22 CZ        -39.0200   16.8900   -6.5600 C.ar      3 PHE5        0.0000 
     23 CZ        -39.7500   16.0700   -5.5400 C.ar      3 PHE5        0.0000 
     24 CZ        -37.1300   16.7500   -7.5100 C.ar      3 PHE5        0.0000 
     25 CZ        -37.8600   15.9300   -6.4900 C.ar      3 PHE5        0.0000 
     26 CZ        -40.2900   17.8300   -4.5000 C.ar      3 PHE5        0.0000 
     27 CZ        -38.4000   17.7000   -5.4500 C.ar      3 PHE5        0.0000 
     28 CZ        -39.1400   16.8800   -4.4400 C.ar      3 PHE5        0.0000 
     29 CZ        -37.2500   16.7400   -5.3900 C.ar      3 PHE5        0.0000 
     30 CZ        -37.5700   14.1400   -3.3000 C.ar      3 PHE5        0.0000 
     31 CZ        -38.3100   13.3200   -2.2800 C.ar      3 PHE5        0.0000 
     32 CZ        -35.6800   14.0000   -4.2500 C.ar      3 PHE5        0.0000 
     33 CZ        -38.5300   17.6900   -3.3400 C.ar      3 PHE5        0.0000 
     34 CZ        -36.6400   17.5500   -4.2900 C.ar      3 PHE5        0.0000 
     35 CZ        -35.4800   16.6000   -4.2300 C.ar      3 PHE5        0.0000 
     36 CZ        -36.2200   15.7700   -3.2100 C.ar      3 PHE5        0.0000 
     37 CZ        -36.9600   14.9500   -2.2000 C.ar      3 PHE5        0.0000 
     38 CZ        -35.0700   14.8200   -3.1500 C.ar      3 PHE5        0.0000 
     39 CZ        -36.3400   15.7600   -1.0900 C.ar      3 PHE5        0.0000 
     40 CZ        -37.0800   14.9400   -0.0800 C.ar      3 PHE5        0.0000 
     41 CZ        -35.4100   19.1800   -2.0900 C.ar      3 PHE5        0.0000 
     42 CZ        -34.9900   17.4000   -1.0100 C.ar      3 PHE5        0.0000 
     43 CZ        -36.2700   18.3400    1.0500 C.ar      3 PHE5        0.0000 
     44 CZ        -35.1100   17.3900    1.1100 C.ar      3 PHE5        0.0000 
     45 CZ        -35.6500   19.1600    2.1500 C.ar      3 PHE5        0.0000 
     46 CA        -41.5200   16.2100   -6.7100 C.3       4 GLY6        0.0000 
     47 CA        -39.6300   16.0800   -7.6600 C.3       4 GLY6        0.0000 
     48 CA        -40.3700   15.2500   -6.6400 C.3       4 GLY6        0.0000 
     49 CA        -37.7400   15.9400   -8.6100 C.3       4 GLY6        0.0000 
     50 CA        -39.2100   14.3000   -6.5800 C.3       4 GLY6        0.0000 
     51 CA        -36.5900   14.9800   -8.5500 C.3       4 GLY6        0.0000 
     52 CA        -37.3200   14.1600   -7.5300 C.3       4 GLY6        0.0000 
     53 CA        -38.0600   13.3400   -6.5200 C.3       4 GLY6        0.0000 
     54 CA        -38.6000   15.1100   -5.4800 C.3       4 GLY6        0.0000 
     55 CA        -39.3400   14.2900   -4.4600 C.3       4 GLY6        0.0000 
     56 CA        -35.9700   15.7900   -7.4500 C.3       4 GLY6        0.0000 
     57 CA        -36.7100   14.9700   -6.4300 C.3       4 GLY6        0.0000 
     58 CA        -37.4500   14.1500   -5.4200 C.3       4 GLY6        0.0000 
     59 CA        -34.8200   14.8400   -7.3800 C.3       4 GLY6        0.0000 
     60 CA        -39.4600   14.2800   -2.3400 C.3       4 GLY6        0.0000 
     61 CA        -36.1000   15.7800   -5.3300 C.3       4 GLY6        0.0000 
     62 CA        -36.8300   14.9600   -4.3100 C.3       4 GLY6        0.0000 
     63 CA        -34.9400   14.8300   -5.2700 C.3       4 GLY6        0.0000 
     64 CA        -38.8500   15.0900   -1.2400 C.3       4 GLY6        0.0000 
     65 CA        -39.5800   14.2700   -0.2300 C.3       4 GLY6        0.0000 
     66 CA        -34.7400   17.4200   -5.2400 C.3       4 GLY6        0.0000 
     67 CA        -34.3300   15.6400   -4.1700 C.3       4 GLY6        0.0000 
     68 CA        -35.6100   16.5900   -2.1100 C.3       4 GLY6        0.0000 
     69 CA        -35.5300   19.1700    0.0300 C.3       4 GLY6        0.0000 
     70 CA        -36.0700   20.9400    1.0700 C.3       4 GLY6        0.0000 
     71 DU        -38.4800   15.1200   -7.6000 H         5 CUB7        0.0000 
     72 DU        -39.8800   16.0600   -3.4200 H         5 CUB7        0.0000 
     73 DU        -37.9900   15.9200   -4.3800 H         5 CUB7        0.0000 
     74 DU        -38.7200   15.1000   -3.3600 H         5 CUB7        0.0000 
     75 DU        -39.2600   16.8700   -2.3200 H         5 CUB7        0.0000 
     76 DU        -40.0000   16.0500   -1.3100 H         5 CUB7        0.0000 
     77 DU        -38.1100   15.9100   -2.2600 H         5 CUB7        0.0000 
     78 DU        -37.5000   16.7200   -1.1600 H         5 CUB7        0.0000 
     79 DU        -38.2300   15.9000   -0.1400 H         5 CUB7        0.0000 
     80 DU        -38.9700   15.0800    0.8800 H         5 CUB7        0.0000 
     81 DU        -38.0300   18.4900   -0.1200 H         5 CUB7        0.0000 
     82 DU        -36.8800   17.5300   -0.0500 H         5 CUB7        0.0000 
@<TRIPOS>BOND
@<TRIPOS>SUBSTRUCTURE
     1 ALA2        1 GROUP   
     2 ASP3       19 GROUP   
     3 PHE5       20 GROUP   
     4 GLY6       46 GROUP   
     5 CUB7       71 GROUP   
@<TRIPOS>SET

