#    Name: 6fjb_1_AOC
#    Modification time : Fri May 22 19:24:38 2020

@<TRIPOS>MOLECULE
6fjb_1_AOC
   22    24     1     0     0
SMALL
NO_CHARGES


@<TRIPOS>ATOM
      1 CAA       -10.3220   16.1150   39.1890 C.1       1 AOC402      0.0000 
      2 CAE       -10.4970   16.4040   40.3120 C.1       1 AOC402      0.0000 
      3 CAH       -10.7180   16.7260   41.7320 C.3       1 AOC402      0.0000 
      4 O5'       -11.7280   17.7270   42.0790 O.3       1 AOC402      0.0000 
      5 C5'       -12.7840   17.1500   41.3410 C.3       1 AOC402      0.0000 
      6 C4'       -14.1610   17.6060   41.7310 C.3       1 AOC402      0.0000 
      7 O4'       -14.6630   16.3580   41.1980 O.3       1 AOC402      0.0000 
      8 C3'       -14.4140   17.4690   43.2480 C.3       1 AOC402      0.0000 
      9 O3'       -15.7380   17.8840   43.5760 O.3       1 AOC402      0.0000 
     10 C2'       -14.2670   15.9600   43.4390 C.3       1 AOC402      0.0000 
     11 O2'       -14.8040   15.4700   44.6520 O.3       1 AOC402      0.0000 
     12 C1'       -15.1500   15.5930   42.2650 C.3       1 AOC402      0.0000 
     13 N9        -15.5030   14.2500   41.8010 N.pl3     1 AOC402      0.0000 
     14 C8        -14.5150   13.5510   41.2360 C.2       1 AOC402      0.0000 
     15 N7        -14.9460   12.3620   40.8650 N.2       1 AOC402      0.0000 
     16 C5        -16.2240   12.3070   41.1970 C.ar      1 AOC402      0.0000 
     17 C4        -16.5940   13.5060   41.7970 C.ar      1 AOC402      0.0000 
     18 N3        -17.8490   13.6780   42.2150 N.ar      1 AOC402      0.0000 
     19 C2        -18.7180   12.6920   42.0460 C.ar      1 AOC402      0.0000 
     20 N1        -18.3980   11.5360   41.4780 N.ar      1 AOC402      0.0000 
     21 C6        -17.1550   11.3090   41.0360 C.ar      1 AOC402      0.0000 
     22 N6        -16.7920   10.1570   40.4580 N.pl3     1 AOC402      0.0000 
@<TRIPOS>BOND
     1    1    2 3    
     2    2    3 1    
     3    3    4 1    
     4    4    5 1    
     5    5    6 1    
     6    6    7 1    
     7    6    8 1    
     8    7   12 1    
     9    8    9 1    
    10    8   10 1    
    11   10   11 1    
    12   10   12 1    
    13   12   13 1    
    14   13   14 1    
    15   13   17 1    
    16   14   15 2    
    17   15   16 1    
    18   16   17 ar   
    19   16   21 ar   
    20   17   18 ar   
    21   18   19 ar   
    22   19   20 ar   
    23   20   21 ar   
    24   21   22 1    
@<TRIPOS>SUBSTRUCTURE
     1 AOC402      1 GROUP   
@<TRIPOS>SET

