#    Name: 6as5_2_COA
#    Modification time : Fri May 22 19:27:17 2020

@<TRIPOS>MOLECULE
6as5_2_COA
   48    50     1     0     1
SMALL
NO_CHARGES


@<TRIPOS>ATOM
      1 N1A       -28.5160   -6.4770   28.4530 N.ar      1 COA302      0.0000 
      2 C2A       -29.7470   -6.5780   28.9650 C.ar      1 COA302      0.0000 
      3 N3A       -29.9530   -6.9920   30.2180 N.ar      1 COA302      0.0000 
      4 C4A       -28.9150   -7.3290   31.0020 C.ar      1 COA302      0.0000 
      5 C5A       -27.6040   -7.2370   30.5170 C.ar      1 COA302      0.0000 
      6 C6A       -27.4390   -6.7890   29.2010 C.ar      1 COA302      0.0000 
      7 N6A       -26.0700   -6.6500   28.6010 N.pl3     1 COA302      0.0000 
      8 N7A       -26.7760   -7.6220   31.5180 N.2       1 COA302      0.0000 
      9 C8A       -27.5450   -7.9440   32.5860 C.2       1 COA302      0.0000 
     10 N9A       -28.8420   -7.7760   32.2670 N.pl3     1 COA302      0.0000 
     11 C1B       -29.9950   -7.9790   33.1030 C.3       1 COA302      0.0000 
     12 C2B       -30.1770   -9.3650   33.5290 C.3       1 COA302      0.0000 
     13 O2B       -31.0150  -10.0440   32.6530 O.3       1 COA302      0.0000 
     14 C3B       -30.8280   -9.2220   34.8030 C.3       1 COA302      0.0000 
     15 O3B       -32.1510   -8.9070   34.5550 O.3       1 COA302      0.0000 
     16 P3B       -33.2960   -9.7660   35.1490 P.3       1 COA302      0.0000 
     17 O7A       -33.1240   -9.7590   36.6470 O.co2     1 COA302      0.0000 
     18 O8A       -33.2060  -11.1670   34.6030 O.co2     1 COA302      0.0000 
     19 O9A       -34.6350   -9.1650   34.7790 O.co2     1 COA302      0.0000 
     20 C4B       -30.1680   -8.0600   35.3920 C.3       1 COA302      0.0000 
     21 O4B       -29.8280   -7.2210   34.2590 O.3       1 COA302      0.0000 
     22 C5B       -28.9810   -8.4530   36.1360 C.3       1 COA302      0.0000 
     23 O5B       -28.2720   -9.5170   35.6470 O.3       1 COA302      0.0000 
     24 P1A       -26.8750   -9.9380   36.1530 P.3       1 COA302      0.0000 
     25 O1A       -27.0100  -11.0740   37.1090 O.co2     1 COA302      0.0000 
     26 O2A       -26.2190   -8.7930   36.8680 O.co2     1 COA302      0.0000 
     27 O3A       -26.0070  -10.3310   34.9250 O.3       1 COA302      0.0000 
     28 P2A       -25.9510  -11.7640   34.2650 P.3       1 COA302      0.0000 
     29 O4A       -25.0680  -12.7030   35.0540 O.co2     1 COA302      0.0000 
     30 O5A       -27.3100  -12.3260   33.9870 O.co2     1 COA302      0.0000 
     31 O6A       -25.2340  -11.6190   32.9110 O.3       1 COA302      0.0000 
     32 CBP       -23.6010  -10.7360   31.4220 C.3       1 COA302      0.0000 
     33 CCP       -24.0880  -10.8580   32.8620 C.3       1 COA302      0.0000 
     34 CDP       -23.9680  -12.0460   30.7100 C.3       1 COA302      0.0000 
     35 CEP       -22.1240  -10.4480   31.3320 C.3       1 COA302      0.0000 
     36 CAP       -24.3500   -9.5120   30.8600 C.3       1 COA302      0.0000 
     37 OAP       -23.9200   -8.4360   31.6180 O.3       1 COA302      0.0000 
     38 C9P       -23.9790   -9.1850   29.4310 C.2       1 COA302      0.0000 
     39 O9P       -24.2370   -9.9470   28.5070 O.2       1 COA302      0.0000 
     40 N8P       -23.2780   -7.9580   29.2060 N.am      1 COA302      0.0000 
     41 C7P       -22.8720   -7.5950   27.8450 C.3       1 COA302      0.0000 
     42 C6P       -21.9890   -8.6160   27.1780 C.3       1 COA302      0.0000 
     43 C5P       -21.5780   -8.2370   25.7860 C.2       1 COA302      0.0000 
     44 O5P       -22.4240   -7.9690   24.9370 O.2       1 COA302      0.0000 
     45 N4P       -20.1900   -8.1810   25.4590 N.am      1 COA302      0.0000 
     46 C3P       -19.8460   -7.7960   24.1310 C.3       1 COA302      0.0000 
     47 C2P       -19.1110   -6.4730   24.0860 C.3       1 COA302      0.0000 
     48 S1P       -18.1610   -6.0690   25.5520 S.3       1 COA302      0.0000 
@<TRIPOS>BOND
     1    1    2 ar   
     2    1    6 ar   
     3    2    3 ar   
     4    3    4 ar   
     5    4    5 ar   
     6    4   10 1    
     7    5    6 ar   
     8    5    8 1    
     9    6    7 1    
    10    8    9 2    
    11    9   10 1    
    12   10   11 1    
    13   11   12 1    
    14   11   21 1    
    15   12   13 1    
    16   12   14 1    
    17   14   15 1    
    18   14   20 1    
    19   15   16 1    
    20   16   17 ar   
    21   16   18 ar   
    22   16   19 ar   
    23   20   21 1    
    24   20   22 1    
    25   22   23 1    
    26   23   24 1    
    27   24   25 ar   
    28   24   26 ar   
    29   24   27 1    
    30   27   28 1    
    31   28   29 ar   
    32   28   30 ar   
    33   28   31 1    
    34   31   33 1    
    35   32   33 1    
    36   32   34 1    
    37   32   35 1    
    38   32   36 1    
    39   36   37 1    
    40   36   38 1    
    41   38   39 2    
    42   38   40 am   
    43   40   41 1    
    44   41   42 1    
    45   42   43 1    
    46   43   44 2    
    47   43   45 am   
    48   45   46 1    
    49   46   47 1    
    50   47   48 1    
@<TRIPOS>SUBSTRUCTURE
     1 COA302      1 GROUP   
@<TRIPOS>SET
ATOM$ORANGE STATIC     ATOMS   COLORGROUP SYSTEM 
42 2 2 4 4 5 5 6 6 9 9 11 11 12 12 14 14 20 \
20 22 22 32 32 33 33 34 34 35 35 36 36 38 38 41 41 42 \
42 43 43 46 46 47 47 

