#    Name: 6as5_3_COA
#    Modification time : Fri May 22 19:27:24 2020

@<TRIPOS>MOLECULE
6as5_3_COA
   48    50     1     0     1
SMALL
NO_CHARGES


@<TRIPOS>ATOM
      1 N1A         0.2660   42.5950   28.5190 N.ar      1 COA302      0.0000 
      2 C2A         0.7870   43.7250   29.0280 C.ar      1 COA302      0.0000 
      3 N3A         0.5300   44.1220   30.2780 N.ar      1 COA302      0.0000 
      4 C4A        -0.2770   43.3760   31.0620 C.ar      1 COA302      0.0000 
      5 C5A        -0.8460   42.1900   30.5790 C.ar      1 COA302      0.0000 
      6 C6A        -0.5410   41.8140   29.2660 C.ar      1 COA302      0.0000 
      7 N6A        -1.1160   40.5510   28.6840 N.pl3     1 COA302      0.0000 
      8 N7A        -1.5960   41.6610   31.5740 N.2       1 COA302      0.0000 
      9 C8A        -1.4950   42.4760   32.6480 C.2       1 COA302      0.0000 
     10 N9A        -0.7010   43.5180   32.3300 N.pl3     1 COA302      0.0000 
     11 C1B        -0.3020   44.6170   33.1700 C.3       1 COA302      0.0000 
     12 C2B        -1.2800   45.6780   33.3020 C.3       1 COA302      0.0000 
     13 O2B        -1.0000   46.6250   32.3240 O.3       1 COA302      0.0000 
     14 C3B        -1.0290   46.2220   34.6080 C.3       1 COA302      0.0000 
     15 O3B         0.0100   47.1260   34.4770 O.3       1 COA302      0.0000 
     16 P3B         0.0620   48.4110   35.3440 P.3       1 COA302      0.0000 
     17 O7A        -1.0720   49.3300   34.9530 O.co2     1 COA302      0.0000 
     18 O8A         1.3760   49.1100   35.1360 O.co2     1 COA302      0.0000 
     19 O9A        -0.0690   48.0180   36.8000 O.co2     1 COA302      0.0000 
     20 C4B        -0.5700   45.0780   35.3940 C.3       1 COA302      0.0000 
     21 O4B        -0.0220   44.1440   34.4440 O.3       1 COA302      0.0000 
     22 C5B        -1.6410   44.4330   36.1390 C.3       1 COA302      0.0000 
     23 O5B        -2.6440   43.7760   35.4710 O.3       1 COA302      0.0000 
     24 P1A        -3.7640   43.0380   36.2580 P.3       1 COA302      0.0000 
     25 O1A        -4.5180   44.0400   37.0700 O.co2     1 COA302      0.0000 
     26 O2A        -3.1210   42.0190   37.1570 O.co2     1 COA302      0.0000 
     27 O3A        -4.7710   42.2900   35.3420 O.3       1 COA302      0.0000 
     28 P2A        -5.7560   43.0230   34.3550 P.3       1 COA302      0.0000 
     29 O4A        -7.1590   42.9240   34.8770 O.co2     1 COA302      0.0000 
     30 O5A        -5.3610   44.4460   34.1320 O.co2     1 COA302      0.0000 
     31 O6A        -5.7390   42.2520   33.0110 O.3       1 COA302      0.0000 
     32 CBP        -6.0890   40.2280   31.6820 C.3       1 COA302      0.0000 
     33 CCP        -6.0180   40.8910   33.0580 C.3       1 COA302      0.0000 
     34 CDP        -7.2070   40.8620   30.8480 C.3       1 COA302      0.0000 
     35 CEP        -6.2920   38.7360   31.8210 C.3       1 COA302      0.0000 
     36 CAP        -4.7180   40.5230   31.0270 C.3       1 COA302      0.0000 
     37 OAP        -3.7790   39.8500   31.7960 O.3       1 COA302      0.0000 
     38 C9P        -4.5720   40.0770   29.5750 C.2       1 COA302      0.0000 
     39 O9P        -5.1030   40.6830   28.6450 O.2       1 COA302      0.0000 
     40 N8P        -3.7880   38.9100   29.2990 N.am      1 COA302      0.0000 
     41 C7P        -3.6510   38.4600   27.9070 C.3       1 COA302      0.0000 
     42 C6P        -4.9180   37.9440   27.2720 C.3       1 COA302      0.0000 
     43 C5P        -4.7840   37.4470   25.8480 C.2       1 COA302      0.0000 
     44 O5P        -4.0060   38.0010   25.0750 O.2       1 COA302      0.0000 
     45 N4P        -5.5780   36.3290   25.4160 N.am      1 COA302      0.0000 
     46 C3P        -5.4340   35.8710   24.0790 C.3       1 COA302      0.0000 
     47 C2P        -4.5830   34.6230   23.9550 C.3       1 COA302      0.0000 
     48 S1P        -4.5100   33.5510   25.3870 S.3       1 COA302      0.0000 
@<TRIPOS>BOND
     1    1    2 ar   
     2    1    6 ar   
     3    2    3 ar   
     4    3    4 ar   
     5    4    5 ar   
     6    4   10 1    
     7    5    6 ar   
     8    5    8 1    
     9    6    7 1    
    10    8    9 2    
    11    9   10 1    
    12   10   11 1    
    13   11   12 1    
    14   11   21 1    
    15   12   13 1    
    16   12   14 1    
    17   14   15 1    
    18   14   20 1    
    19   15   16 1    
    20   16   17 ar   
    21   16   18 ar   
    22   16   19 ar   
    23   20   21 1    
    24   20   22 1    
    25   22   23 1    
    26   23   24 1    
    27   24   25 ar   
    28   24   26 ar   
    29   24   27 1    
    30   27   28 1    
    31   28   29 ar   
    32   28   30 ar   
    33   28   31 1    
    34   31   33 1    
    35   32   33 1    
    36   32   34 1    
    37   32   35 1    
    38   32   36 1    
    39   36   37 1    
    40   36   38 1    
    41   38   39 2    
    42   38   40 am   
    43   40   41 1    
    44   41   42 1    
    45   42   43 1    
    46   43   44 2    
    47   43   45 am   
    48   45   46 1    
    49   46   47 1    
    50   47   48 1    
@<TRIPOS>SUBSTRUCTURE
     1 COA302      1 GROUP   
@<TRIPOS>SET
ATOM$ORANGE STATIC     ATOMS   COLORGROUP SYSTEM 
42 2 2 4 4 5 5 6 6 9 9 11 11 12 12 14 14 20 \
20 22 22 32 32 33 33 34 34 35 35 36 36 38 38 41 41 42 \
42 43 43 46 46 47 47 

