#    Name: 6as5_1_COA
#    Modification time : Fri May 22 19:27:10 2020

@<TRIPOS>MOLECULE
6as5_1_COA
   48    50     1     0     1
SMALL
NO_CHARGES


@<TRIPOS>ATOM
      1 N1A        28.3900   -6.6580   28.5310 N.ar      1 COA302      0.0000 
      2 C2A        29.0740   -7.6950   29.0440 C.ar      1 COA302      0.0000 
      3 N3A        29.5070   -7.7010   30.3150 N.ar      1 COA302      0.0000 
      4 C4A        29.2730   -6.6410   31.1170 C.ar      1 COA302      0.0000 
      5 C5A        28.5680   -5.5410   30.6300 C.ar      1 COA302      0.0000 
      6 C6A        28.1250   -5.5790   29.3000 C.ar      1 COA302      0.0000 
      7 N6A        27.3600   -4.4060   28.7580 N.pl3     1 COA302      0.0000 
      8 N7A        28.4660   -4.6370   31.6280 N.2       1 COA302      0.0000 
      9 C8A        29.0930   -5.1500   32.7040 C.2       1 COA302      0.0000 
     10 N9A        29.5840   -6.3600   32.3960 N.pl3     1 COA302      0.0000 
     11 C1B        30.2990   -7.2470   33.2810 C.3       1 COA302      0.0000 
     12 C2B        31.6940   -6.8980   33.5100 C.3       1 COA302      0.0000 
     13 O2B        32.4870   -7.5550   32.5880 O.3       1 COA302      0.0000 
     14 C3B        31.9500   -7.4640   34.8010 C.3       1 COA302      0.0000 
     15 O3B        32.1310   -8.8230   34.6140 O.3       1 COA302      0.0000 
     16 P3B        33.1530   -9.5850   35.4980 P.3       1 COA302      0.0000 
     17 O7A        33.1710   -8.9650   36.8810 O.co2     1 COA302      0.0000 
     18 O8A        34.5070   -9.4860   34.8480 O.co2     1 COA302      0.0000 
     19 O9A        32.7330  -11.0380   35.6260 O.co2     1 COA302      0.0000 
     20 C4B        30.7100   -7.2480   35.5330 C.3       1 COA302      0.0000 
     21 O4B        29.6780   -7.2140   34.5220 O.3       1 COA302      0.0000 
     22 C5B        30.7360   -6.0050   36.2860 C.3       1 COA302      0.0000 
     23 O5B        30.8790   -4.8230   35.6060 O.3       1 COA302      0.0000 
     24 P1A        30.6170   -3.4550   36.2870 P.3       1 COA302      0.0000 
     25 O1A        31.8090   -3.0950   37.1080 O.co2     1 COA302      0.0000 
     26 O2A        29.3850   -3.5260   37.1430 O.co2     1 COA302      0.0000 
     27 O3A        30.3810   -2.3670   35.2070 O.3       1 COA302      0.0000 
     28 P2A        31.5750   -1.7250   34.4130 P.3       1 COA302      0.0000 
     29 O4A        32.0420   -0.4630   35.0910 O.co2     1 COA302      0.0000 
     30 O5A        32.6680   -2.7310   34.2510 O.co2     1 COA302      0.0000 
     31 O6A        31.0440   -1.3080   33.0190 O.3       1 COA302      0.0000 
     32 CBP        29.4860   -0.2120   31.5260 C.3       1 COA302      0.0000 
     33 CCP        29.8720   -0.5780   32.9560 C.3       1 COA302      0.0000 
     34 CDP        30.7140    0.3390   30.7960 C.3       1 COA302      0.0000 
     35 CEP        28.3390    0.7740   31.4800 C.3       1 COA302      0.0000 
     36 CAP        29.0120   -1.5350   30.8910 C.3       1 COA302      0.0000 
     37 OAP        27.9620   -1.9700   31.6790 O.3       1 COA302      0.0000 
     38 C9P        28.4930   -1.3560   29.4820 C.2       1 COA302      0.0000 
     39 O9P        29.2640   -1.2840   28.5250 O.2       1 COA302      0.0000 
     40 N8P        27.0730   -1.2390   29.3330 N.am      1 COA302      0.0000 
     41 C7P        26.4450   -1.0500   28.0210 C.3       1 COA302      0.0000 
     42 C6P        26.9380    0.1140   27.2140 C.3       1 COA302      0.0000 
     43 C5P        26.3700    0.1880   25.8190 C.2       1 COA302      0.0000 
     44 O5P        26.5120   -0.7470   25.0250 O.2       1 COA302      0.0000 
     45 N4P        25.6590    1.3670   25.4270 N.am      1 COA302      0.0000 
     46 C3P        25.1360    1.3840   24.0970 C.3       1 COA302      0.0000 
     47 C2P        23.6250    1.4140   24.0240 C.3       1 COA302      0.0000 
     48 S1P        22.8040    2.2040   25.4050 S.3       1 COA302      0.0000 
@<TRIPOS>BOND
     1    1    2 ar   
     2    1    6 ar   
     3    2    3 ar   
     4    3    4 ar   
     5    4    5 ar   
     6    4   10 1    
     7    5    6 ar   
     8    5    8 1    
     9    6    7 1    
    10    8    9 2    
    11    9   10 1    
    12   10   11 1    
    13   11   12 1    
    14   11   21 1    
    15   12   13 1    
    16   12   14 1    
    17   14   15 1    
    18   14   20 1    
    19   15   16 1    
    20   16   17 ar   
    21   16   18 ar   
    22   16   19 ar   
    23   20   21 1    
    24   20   22 1    
    25   22   23 1    
    26   23   24 1    
    27   24   25 ar   
    28   24   26 ar   
    29   24   27 1    
    30   27   28 1    
    31   28   29 ar   
    32   28   30 ar   
    33   28   31 1    
    34   31   33 1    
    35   32   33 1    
    36   32   34 1    
    37   32   35 1    
    38   32   36 1    
    39   36   37 1    
    40   36   38 1    
    41   38   39 2    
    42   38   40 am   
    43   40   41 1    
    44   41   42 1    
    45   42   43 1    
    46   43   44 2    
    47   43   45 am   
    48   45   46 1    
    49   46   47 1    
    50   47   48 1    
@<TRIPOS>SUBSTRUCTURE
     1 COA302      1 GROUP   
@<TRIPOS>SET
ATOM$ORANGE STATIC     ATOMS   COLORGROUP SYSTEM 
42 2 2 4 4 5 5 6 6 9 9 11 11 12 12 14 14 20 \
20 22 22 32 32 33 33 34 34 35 35 36 36 38 38 41 41 42 \
42 43 43 46 46 47 47 

