#    Name: 6f1t_3_ADP
#    Modification time : Fri May 22 19:29:17 2020

@<TRIPOS>MOLECULE
6f1t_3_ADP
   27    29     1     0     1
SMALL
NO_CHARGES


@<TRIPOS>ATOM
      1 PB        441.9160  399.0460  418.1870 P.3       1 ADP800      0.0000 
      2 O1B       440.8800  399.5020  417.2150 O.co2     1 ADP800      0.0000 
      3 O2B       442.5800  397.7640  417.8270 O.co2     1 ADP800      0.0000 
      4 O3B       441.5480  399.1460  419.6270 O.co2     1 ADP800      0.0000 
      5 PA        444.2320  399.9240  419.1370 P.3       1 ADP800      0.0000 
      6 O1A       444.3930  398.4930  419.4950 O.co2     1 ADP800      0.0000 
      7 O2A       444.1950  400.9920  420.1700 O.co2     1 ADP800      0.0000 
      8 O3A       443.0680  400.1040  418.0890 O.3       1 ADP800      0.0000 
      9 O5'       445.3730  400.3310  418.1320 O.3       1 ADP800      0.0000 
     10 C5'       446.5740  400.8020  418.6760 C.3       1 ADP800      0.0000 
     11 C4'       446.7720  402.1880  418.1320 C.3       1 ADP800      0.0000 
     12 O4'       447.2890  403.0170  419.1610 O.3       1 ADP800      0.0000 
     13 C3'       447.8190  402.1230  417.0760 C.3       1 ADP800      0.0000 
     14 O3'       447.2260  402.1240  415.7990 O.3       1 ADP800      0.0000 
     15 C2'       448.5700  403.3920  417.3100 C.3       1 ADP800      0.0000 
     16 O2'       447.7590  404.3820  416.7000 O.3       1 ADP800      0.0000 
     17 C1'       448.4670  403.6840  418.7690 C.3       1 ADP800      0.0000 
     18 N9        449.6140  403.1780  419.5420 N.pl3     1 ADP800      0.0000 
     19 C8        450.1450  401.9490  419.5360 C.2       1 ADP800      0.0000 
     20 N7        451.1860  401.8270  420.3790 N.2       1 ADP800      0.0000 
     21 C5        451.3310  403.0150  420.9350 C.ar      1 ADP800      0.0000 
     22 C6        452.2370  403.5680  421.9290 C.ar      1 ADP800      0.0000 
     23 N6        453.2120  402.8080  422.4650 N.pl3     1 ADP800      0.0000 
     24 N1        452.0750  404.8420  422.2660 N.ar      1 ADP800      0.0000 
     25 C2        451.1150  405.5620  421.7190 C.ar      1 ADP800      0.0000 
     26 N3        450.2400  405.1360  420.8140 N.ar      1 ADP800      0.0000 
     27 C4        450.2960  403.8830  420.4060 C.ar      1 ADP800      0.0000 
@<TRIPOS>BOND
     1    1    2 ar   
     2    1    3 ar   
     3    1    4 ar   
     4    1    8 1    
     5    5    6 ar   
     6    5    7 ar   
     7    5    8 1    
     8    5    9 1    
     9    9   10 1    
    10   10   11 1    
    11   11   12 1    
    12   11   13 1    
    13   12   17 1    
    14   13   14 1    
    15   13   15 1    
    16   15   16 1    
    17   15   17 1    
    18   17   18 1    
    19   18   19 1    
    20   18   27 1    
    21   19   20 2    
    22   20   21 1    
    23   21   22 ar   
    24   21   27 ar   
    25   22   23 1    
    26   22   24 ar   
    27   24   25 ar   
    28   25   26 ar   
    29   26   27 ar   
@<TRIPOS>SUBSTRUCTURE
     1 ADP800      1 GROUP   
@<TRIPOS>SET
ATOM$ORANGE STATIC     ATOMS   COLORGROUP SYSTEM 
20 10 10 11 11 13 13 15 15 17 17 19 19 21 21 22 22 25 \
25 27 27 

