#    Name: 6f1t_6_ADP
#    Modification time : Fri May 22 19:30:19 2020

@<TRIPOS>MOLECULE
6f1t_6_ADP
   27    29     1     0     1
SMALL
NO_CHARGES


@<TRIPOS>ATOM
      1 PB        542.1620  428.0360  324.3880 P.3       1 ADP800      0.0000 
      2 O1B       542.1830  426.5370  324.2070 O.co2     1 ADP800      0.0000 
      3 O2B       543.5080  428.7100  324.3330 O.co2     1 ADP800      0.0000 
      4 O3B       541.2540  428.5520  325.4760 O.co2     1 ADP800      0.0000 
      5 PA        541.0550  430.0540  322.8580 P.3       1 ADP800      0.0000 
      6 O1A       542.3420  430.8340  322.9200 O.co2     1 ADP800      0.0000 
      7 O2A       539.8880  430.3790  323.7630 O.co2     1 ADP800      0.0000 
      8 O3A       541.4360  428.5140  323.0490 O.3       1 ADP800      0.0000 
      9 O5'       540.5680  429.9650  321.3340 O.3       1 ADP800      0.0000 
     10 C5'       541.5430  430.0340  320.3040 C.3       1 ADP800      0.0000 
     11 C4'       541.1050  429.1180  319.1750 C.3       1 ADP800      0.0000 
     12 O4'       539.9590  429.6850  318.5390 O.3       1 ADP800      0.0000 
     13 C3'       542.1840  428.9720  318.1200 C.3       1 ADP800      0.0000 
     14 O3'       542.7270  427.6500  318.1490 O.3       1 ADP800      0.0000 
     15 C2'       541.4930  429.2160  316.7960 C.3       1 ADP800      0.0000 
     16 O2'       541.3240  427.9670  316.1270 O.3       1 ADP800      0.0000 
     17 C1'       540.1260  429.7810  317.1270 C.3       1 ADP800      0.0000 
     18 N9        540.0880  431.2170  316.7740 N.pl3     1 ADP800      0.0000 
     19 C8        540.6740  432.2000  317.4850 C.2       1 ADP800      0.0000 
     20 N7        540.4650  433.4100  316.9150 N.2       1 ADP800      0.0000 
     21 C5        539.7250  433.2110  315.8100 C.ar      1 ADP800      0.0000 
     22 C6        539.1540  434.0690  314.7460 C.ar      1 ADP800      0.0000 
     23 N6        539.3350  435.4100  314.7580 N.pl3     1 ADP800      0.0000 
     24 N1        538.4500  433.4690  313.7660 N.ar      1 ADP800      0.0000 
     25 C2        538.2710  432.1370  313.7510 C.ar      1 ADP800      0.0000 
     26 N3        538.7520  431.2910  314.6810 N.ar      1 ADP800      0.0000 
     27 C4        539.4810  431.7620  315.7190 C.ar      1 ADP800      0.0000 
@<TRIPOS>BOND
     1    1    2 ar   
     2    1    3 ar   
     3    1    4 ar   
     4    1    8 1    
     5    5    6 ar   
     6    5    7 ar   
     7    5    8 1    
     8    5    9 1    
     9    9   10 1    
    10   10   11 1    
    11   11   12 1    
    12   11   13 1    
    13   12   17 1    
    14   13   14 1    
    15   13   15 1    
    16   15   16 1    
    17   15   17 1    
    18   17   18 1    
    19   18   19 1    
    20   18   27 1    
    21   19   20 2    
    22   20   21 1    
    23   21   22 ar   
    24   21   27 ar   
    25   22   23 1    
    26   22   24 ar   
    27   24   25 ar   
    28   25   26 ar   
    29   26   27 ar   
@<TRIPOS>SUBSTRUCTURE
     1 ADP800      1 GROUP   
@<TRIPOS>SET
ATOM$ORANGE STATIC     ATOMS   COLORGROUP SYSTEM 
20 10 10 11 11 13 13 15 15 17 17 19 19 21 21 22 22 25 \
25 27 27 

