#    Name: 6f1t_1_ADP
#    Modification time : Fri May 22 19:28:34 2020

@<TRIPOS>MOLECULE
6f1t_1_ADP
   27    29     1     0     1
SMALL
NO_CHARGES


@<TRIPOS>ATOM
      1 PB        405.0400  404.8100  459.9220 P.3       1 ADP800      0.0000 
      2 O1B       404.6940  405.0010  458.4750 O.co2     1 ADP800      0.0000 
      3 O2B       406.1350  403.8180  460.1390 O.co2     1 ADP800      0.0000 
      4 O3B       403.8990  404.7500  460.9120 O.co2     1 ADP800      0.0000 
      5 PA        407.2790  406.1570  459.7050 P.3       1 ADP800      0.0000 
      6 O1A       407.2130  405.7130  458.2890 O.co2     1 ADP800      0.0000 
      7 O2A       408.1630  405.5410  460.7300 O.co2     1 ADP800      0.0000 
      8 O3A       405.8180  406.1360  460.2650 O.3       1 ADP800      0.0000 
      9 O5'       407.6090  407.6890  459.6610 O.3       1 ADP800      0.0000 
     10 C5'       408.9010  407.9710  459.1660 C.3       1 ADP800      0.0000 
     11 C4'       408.8410  409.0640  458.1110 C.3       1 ADP800      0.0000 
     12 O4'       409.2250  410.3050  458.6720 O.3       1 ADP800      0.0000 
     13 C3'       409.8130  408.8230  456.9890 C.3       1 ADP800      0.0000 
     14 O3'       409.0430  408.6420  455.8160 O.3       1 ADP800      0.0000 
     15 C2'       410.5680  410.0930  456.7860 C.3       1 ADP800      0.0000 
     16 O2'       410.1690  410.6270  455.5380 O.3       1 ADP800      0.0000 
     17 C1'       410.0780  411.0420  457.8190 C.3       1 ADP800      0.0000 
     18 N9        411.2510  411.4590  458.5740 N.pl3     1 ADP800      0.0000 
     19 C8        412.1860  410.6540  459.0610 C.2       1 ADP800      0.0000 
     20 N7        413.1260  411.3530  459.7210 N.2       1 ADP800      0.0000 
     21 C5        412.7760  412.6290  459.6590 C.ar      1 ADP800      0.0000 
     22 C6        413.3290  413.8840  460.1470 C.ar      1 ADP800      0.0000 
     23 N6        414.4710  413.9040  460.8530 N.pl3     1 ADP800      0.0000 
     24 N1        412.6700  415.0030  459.8730 N.ar      1 ADP800      0.0000 
     25 C2        411.5330  414.9770  459.1870 C.ar      1 ADP800      0.0000 
     26 N3        410.9840  413.8690  458.6980 N.ar      1 ADP800      0.0000 
     27 C4        411.5430  412.6880  458.9070 C.ar      1 ADP800      0.0000 
@<TRIPOS>BOND
     1    1    2 ar   
     2    1    3 ar   
     3    1    4 ar   
     4    1    8 1    
     5    5    6 ar   
     6    5    7 ar   
     7    5    8 1    
     8    5    9 1    
     9    9   10 1    
    10   10   11 1    
    11   11   12 1    
    12   11   13 1    
    13   12   17 1    
    14   13   14 1    
    15   13   15 1    
    16   15   16 1    
    17   15   17 1    
    18   17   18 1    
    19   18   19 1    
    20   18   27 1    
    21   19   20 2    
    22   20   21 1    
    23   21   22 ar   
    24   21   27 ar   
    25   22   23 1    
    26   22   24 ar   
    27   24   25 ar   
    28   25   26 ar   
    29   26   27 ar   
@<TRIPOS>SUBSTRUCTURE
     1 ADP800      1 GROUP   
@<TRIPOS>SET
ATOM$ORANGE STATIC     ATOMS   COLORGROUP SYSTEM 
20 10 10 11 11 13 13 15 15 17 17 19 19 21 21 22 22 25 \
25 27 27 

