#    Name: 6f1t_5_ATP
#    Modification time : Fri May 22 19:29:59 2020

@<TRIPOS>MOLECULE
6f1t_5_ATP
   31    33     1     0     1
SMALL
NO_CHARGES


@<TRIPOS>ATOM
      1 PG        510.5260  397.0480  333.9280 P.3       1 ATP401      0.0000 
      2 O1G       509.0350  396.9850  333.7400 O.co2     1 ATP401      0.0000 
      3 O2G       511.2250  395.7130  333.9920 O.co2     1 ATP401      0.0000 
      4 O3G       510.9310  398.0410  334.9870 O.co2     1 ATP401      0.0000 
      5 PB        512.5660  398.0560  332.2600 P.3       1 ATP401      0.0000 
      6 O1B       512.6790  398.4720  330.8150 O.co2     1 ATP401      0.0000 
      7 O2B       513.0670  398.9870  333.3280 O.co2     1 ATP401      0.0000 
      8 O3B       511.0420  397.6300  332.5230 O.3       1 ATP401      0.0000 
      9 PA        514.2050  396.2960  333.6960 P.3       1 ATP401      0.0000 
     10 O1A       514.7070  394.8840  333.5460 O.co2     1 ATP401      0.0000 
     11 O2A       513.5600  396.7050  334.9960 O.co2     1 ATP401      0.0000 
     12 O3A       513.2760  396.6280  332.4260 O.3       1 ATP401      0.0000 
     13 O5'       515.4560  397.2650  333.4530 O.3       1 ATP401      0.0000 
     14 C5'       516.7480  396.6850  333.5220 C.3       1 ATP401      0.0000 
     15 C4'       517.7090  397.6750  334.1460 C.3       1 ATP401      0.0000 
     16 O4'       518.4150  396.9940  335.1710 O.3       1 ATP401      0.0000 
     17 C3'       518.7360  398.1750  333.1510 C.3       1 ATP401      0.0000 
     18 O3'       518.8260  399.5910  333.2660 O.3       1 ATP401      0.0000 
     19 C2'       520.0600  397.6180  333.6110 C.3       1 ATP401      0.0000 
     20 O2'       521.0250  398.6660  333.5840 O.3       1 ATP401      0.0000 
     21 C1'       519.8170  397.1710  335.0360 C.3       1 ATP401      0.0000 
     22 N9        520.4760  395.8800  335.3180 N.pl3     1 ATP401      0.0000 
     23 C8        520.3370  394.7330  334.6310 C.2       1 ATP401      0.0000 
     24 N7        521.0930  393.7510  335.1860 N.2       1 ATP401      0.0000 
     25 C5        521.7200  394.2750  336.2530 C.ar      1 ATP401      0.0000 
     26 C6        522.6660  393.7980  337.2860 C.ar      1 ATP401      0.0000 
     27 N6        523.1120  392.5190  337.3030 N.pl3     1 ATP401      0.0000 
     28 N1        523.0700  394.6870  338.2180 N.ar      1 ATP401      0.0000 
     29 C2        522.6370  395.9600  338.2190 C.ar      1 ATP401      0.0000 
     30 N3        521.7830  396.4620  337.3180 N.ar      1 ATP401      0.0000 
     31 C4        521.3050  395.6790  336.3300 C.ar      1 ATP401      0.0000 
@<TRIPOS>BOND
     1    1    2 ar   
     2    1    3 ar   
     3    1    4 ar   
     4    1    8 1    
     5    5    6 ar   
     6    5    7 ar   
     7    5    8 1    
     8    5   12 1    
     9    9   10 ar   
    10    9   11 ar   
    11    9   12 1    
    12    9   13 1    
    13   13   14 1    
    14   14   15 1    
    15   15   16 1    
    16   15   17 1    
    17   16   21 1    
    18   17   18 1    
    19   17   19 1    
    20   19   20 1    
    21   19   21 1    
    22   21   22 1    
    23   22   23 1    
    24   22   31 1    
    25   23   24 2    
    26   24   25 1    
    27   25   26 ar   
    28   25   31 ar   
    29   26   27 1    
    30   26   28 ar   
    31   28   29 ar   
    32   29   30 ar   
    33   30   31 ar   
@<TRIPOS>SUBSTRUCTURE
     1 ATP401      1 GROUP   
@<TRIPOS>SET
ATOM$ORANGE STATIC     ATOMS   COLORGROUP SYSTEM 
20 14 14 15 15 17 17 19 19 21 21 23 23 25 25 26 26 29 \
29 31 31 

