#    Name: 6f1t_2_ADP
#    Modification time : Fri May 22 19:28:57 2020

@<TRIPOS>MOLECULE
6f1t_2_ADP
   27    29     1     0     1
SMALL
NO_CHARGES


@<TRIPOS>ATOM
      1 PB        407.5460  426.8050  421.7660 P.3       1 ADP800      0.0000 
      2 O1B       407.1240  428.0380  421.0360 O.co2     1 ADP800      0.0000 
      3 O2B       409.0250  426.6220  421.8470 O.co2     1 ADP800      0.0000 
      4 O3B       406.7880  426.5090  423.0310 O.co2     1 ADP800      0.0000 
      5 PA        407.3810  425.9280  419.2370 P.3       1 ADP800      0.0000 
      6 O1A       406.1580  426.5440  418.6500 O.co2     1 ADP800      0.0000 
      7 O2A       408.7210  426.5790  419.2120 O.co2     1 ADP800      0.0000 
      8 O3A       407.1310  425.6540  420.7650 O.3       1 ADP800      0.0000 
      9 O5'       407.5120  424.4720  418.6050 O.3       1 ADP800      0.0000 
     10 C5'       408.4210  424.2610  417.5310 C.3       1 ADP800      0.0000 
     11 C4'       408.6690  422.7780  417.3260 C.3       1 ADP800      0.0000 
     12 O4'       407.7490  422.2230  416.4160 O.3       1 ADP800      0.0000 
     13 C3'       410.0050  422.4690  416.7080 C.3       1 ADP800      0.0000 
     14 O3'       410.8480  422.0310  417.7530 O.3       1 ADP800      0.0000 
     15 C2'       409.7890  421.3060  415.7920 C.3       1 ADP800      0.0000 
     16 O2'       410.4360  420.2110  416.4070 O.3       1 ADP800      0.0000 
     17 C1'       408.3160  421.0440  415.8690 C.3       1 ADP800      0.0000 
     18 N9        407.7160  420.7890  414.5580 N.pl3     1 ADP800      0.0000 
     19 C8        407.4630  421.7110  413.6410 C.2       1 ADP800      0.0000 
     20 N7        406.9090  421.1570  412.5460 N.2       1 ADP800      0.0000 
     21 C5        406.8000  419.8540  412.7780 C.ar      1 ADP800      0.0000 
     22 C6        406.2890  418.7050  412.0480 C.ar      1 ADP800      0.0000 
     23 N6        405.7910  418.8560  410.8100 N.pl3     1 ADP800      0.0000 
     24 N1        406.3490  417.5130  412.6410 N.ar      1 ADP800      0.0000 
     25 C2        406.8620  417.3720  413.8660 C.ar      1 ADP800      0.0000 
     26 N3        407.3400  418.3860  414.5830 N.ar      1 ADP800      0.0000 
     27 C4        407.3330  419.6210  414.1010 C.ar      1 ADP800      0.0000 
@<TRIPOS>BOND
     1    1    2 ar   
     2    1    3 ar   
     3    1    4 ar   
     4    1    8 1    
     5    5    6 ar   
     6    5    7 ar   
     7    5    8 1    
     8    5    9 1    
     9    9   10 1    
    10   10   11 1    
    11   11   12 1    
    12   11   13 1    
    13   12   17 1    
    14   13   14 1    
    15   13   15 1    
    16   15   16 1    
    17   15   17 1    
    18   17   18 1    
    19   18   19 1    
    20   18   27 1    
    21   19   20 2    
    22   20   21 1    
    23   21   22 ar   
    24   21   27 ar   
    25   22   23 1    
    26   22   24 ar   
    27   24   25 ar   
    28   25   26 ar   
    29   26   27 ar   
@<TRIPOS>SUBSTRUCTURE
     1 ADP800      1 GROUP   
@<TRIPOS>SET
ATOM$ORANGE STATIC     ATOMS   COLORGROUP SYSTEM 
20 10 10 11 11 13 13 15 15 17 17 19 19 21 21 22 22 25 \
25 27 27 

