#    Name: 6f1t_4_ADP
#    Modification time : Fri May 22 19:29:39 2020

@<TRIPOS>MOLECULE
6f1t_4_ADP
   27    29     1     0     1
SMALL
NO_CHARGES


@<TRIPOS>ATOM
      1 PB        452.9130  430.0680  389.5860 P.3       1 ADP800      0.0000 
      2 O1B       454.3290  430.3250  389.1840 O.co2     1 ADP800      0.0000 
      3 O2B       452.0280  431.2740  389.6870 O.co2     1 ADP800      0.0000 
      4 O3B       452.7760  429.0900  390.7070 O.co2     1 ADP800      0.0000 
      5 PA        451.7400  430.0630  387.1320 P.3       1 ADP800      0.0000 
      6 O1A       452.7610  431.1030  386.8500 O.co2     1 ADP800      0.0000 
      7 O2A       450.3020  430.3670  387.3390 O.co2     1 ADP800      0.0000 
      8 O3A       452.3340  429.2600  388.3620 O.3       1 ADP800      0.0000 
      9 O5'       451.7980  428.9370  386.0190 O.3       1 ADP800      0.0000 
     10 C5'       452.9040  428.8840  385.1400 C.3       1 ADP800      0.0000 
     11 C4'       452.9390  427.4850  384.5720 C.3       1 ADP800      0.0000 
     12 O4'       451.7120  427.2820  383.9030 O.3       1 ADP800      0.0000 
     13 C3'       454.0290  427.2840  383.5550 C.3       1 ADP800      0.0000 
     14 O3'       455.0840  426.5380  384.1440 O.3       1 ADP800      0.0000 
     15 C2'       453.3870  426.4300  382.5010 C.3       1 ADP800      0.0000 
     16 O2'       453.7900  425.0830  382.7200 O.3       1 ADP800      0.0000 
     17 C1'       451.9050  426.5340  382.7160 C.3       1 ADP800      0.0000 
     18 N9        451.3540  427.3400  381.6360 N.pl3     1 ADP800      0.0000 
     19 C8        451.5700  428.6370  381.4710 C.2       1 ADP800      0.0000 
     20 N7        450.9100  429.0910  380.3940 N.2       1 ADP800      0.0000 
     21 C5        450.2540  428.0630  379.8630 C.ar      1 ADP800      0.0000 
     22 C6        449.3660  427.8650  378.7140 C.ar      1 ADP800      0.0000 
     23 N6        449.0470  428.8950  377.8970 N.pl3     1 ADP800      0.0000 
     24 N1        448.8910  426.6350  378.4970 N.ar      1 ADP800      0.0000 
     25 C2        449.2000  425.6370  379.3090 C.ar      1 ADP800      0.0000 
     26 N3        450.0120  425.7470  380.3690 N.ar      1 ADP800      0.0000 
     27 C4        450.5460  426.9180  380.6870 C.ar      1 ADP800      0.0000 
@<TRIPOS>BOND
     1    1    2 ar   
     2    1    3 ar   
     3    1    4 ar   
     4    1    8 1    
     5    5    6 ar   
     6    5    7 ar   
     7    5    8 1    
     8    5    9 1    
     9    9   10 1    
    10   10   11 1    
    11   11   12 1    
    12   11   13 1    
    13   12   17 1    
    14   13   14 1    
    15   13   15 1    
    16   15   16 1    
    17   15   17 1    
    18   17   18 1    
    19   18   19 1    
    20   18   27 1    
    21   19   20 2    
    22   20   21 1    
    23   21   22 ar   
    24   21   27 ar   
    25   22   23 1    
    26   22   24 ar   
    27   24   25 ar   
    28   25   26 ar   
    29   26   27 ar   
@<TRIPOS>SUBSTRUCTURE
     1 ADP800      1 GROUP   
@<TRIPOS>SET
ATOM$ORANGE STATIC     ATOMS   COLORGROUP SYSTEM 
20 10 10 11 11 13 13 15 15 17 17 19 19 21 21 22 22 25 \
25 27 27 

