#    Name: 6es9_2_FAD
#    Modification time : Fri May 22 19:24:18 2020

@<TRIPOS>MOLECULE
6es9_2_FAD
   53    58     1     0     1
SMALL
NO_CHARGES


@<TRIPOS>ATOM
      1 PA          5.9150   12.6590   -0.3100 P.3       1 FAD604      0.0000 
      2 O1A         6.3690   12.6020    1.0440 O.co2     1 FAD604      0.0000 
      3 O2A         5.1210   13.8310   -0.7860 O.co2     1 FAD604      0.0000 
      4 O5B         7.2470   12.3930   -1.2650 O.3       1 FAD604      0.0000 
      5 C5B         7.0180   12.3820   -2.6070 C.3       1 FAD604      0.0000 
      6 C4B         8.3310   11.8330   -3.2200 C.3       1 FAD604      0.0000 
      7 O4B         9.2500   12.7190   -2.9760 O.3       1 FAD604      0.0000 
      8 C3B         8.8020   10.5230   -2.5560 C.3       1 FAD604      0.0000 
      9 O3B         8.2330    9.4270   -3.1310 O.3       1 FAD604      0.0000 
     10 C2B        10.3140   10.7000   -2.7000 C.3       1 FAD604      0.0000 
     11 O2B        10.6770   10.0920   -4.0330 O.3       1 FAD604      0.0000 
     12 C1B        10.5930   12.0090   -2.6590 C.3       1 FAD604      0.0000 
     13 N9A        11.0740   12.5610   -1.4080 N.pl3     1 FAD604      0.0000 
     14 C8A        10.3320   12.9990   -0.4010 C.2       1 FAD604      0.0000 
     15 N7A        11.1040   13.4060    0.5630 N.2       1 FAD604      0.0000 
     16 C5A        12.3510   13.2600    0.1470 C.ar      1 FAD604      0.0000 
     17 C6A        13.5120   13.5580    0.7300 C.ar      1 FAD604      0.0000 
     18 N6A        13.8240   14.0970    1.9970 N.pl3     1 FAD604      0.0000 
     19 N1A        14.6520   13.3070    0.1280 N.ar      1 FAD604      0.0000 
     20 C2A        14.6220   12.7880   -1.1020 C.ar      1 FAD604      0.0000 
     21 N3A        13.4730   12.4960   -1.6960 N.ar      1 FAD604      0.0000 
     22 C4A        12.3370   12.7580   -1.0670 C.ar      1 FAD604      0.0000 
     23 N1         -0.5000    5.5340    4.5490 N.2       1 FAD604      0.0000 
     24 C2         -1.1950    5.2830    5.7800 C.2       1 FAD604      0.0000 
     25 O2         -1.1370    5.9840    6.6520 O.2       1 FAD604      0.0000 
     26 N3         -1.9820    4.0700    5.8490 N.am      1 FAD604      0.0000 
     27 C4         -2.1120    3.1400    4.7860 C.2       1 FAD604      0.0000 
     28 O4         -2.7570    2.2170    4.8460 O.2       1 FAD604      0.0000 
     29 C4X        -1.3480    3.4660    3.5650 C.2       1 FAD604      0.0000 
     30 N5         -1.4160    2.5890    2.5050 N.2       1 FAD604      0.0000 
     31 C5X        -0.9590    3.0470    1.2260 C.ar      1 FAD604      0.0000 
     32 C6         -1.2730    2.3060    0.1200 C.ar      1 FAD604      0.0000 
     33 C7         -0.8460    2.7410   -1.1080 C.ar      1 FAD604      0.0000 
     34 C7M        -1.2680    1.8730   -2.2750 C.3       1 FAD604      0.0000 
     35 C8         -0.1120    3.8630   -1.1900 C.ar      1 FAD604      0.0000 
     36 C8M         0.3360    4.3260   -2.5610 C.3       1 FAD604      0.0000 
     37 C9          0.1850    4.5810   -0.0850 C.ar      1 FAD604      0.0000 
     38 C9A        -0.2310    4.1770    1.1260 C.ar      1 FAD604      0.0000 
     39 N10         0.0990    4.9710    2.2940 N.pl3     1 FAD604      0.0000 
     40 C10        -0.5880    4.6440    3.4660 C.2       1 FAD604      0.0000 
     41 C1'         0.8340    6.2130    2.2060 C.3       1 FAD604      0.0000 
     42 C2'         2.3320    6.0450    2.0650 C.3       1 FAD604      0.0000 
     43 O2'         2.8330    5.7320    3.2970 O.3       1 FAD604      0.0000 
     44 C3'         2.8760    7.3560    1.5220 C.3       1 FAD604      0.0000 
     45 O3'         2.4780    7.4300    0.2160 O.3       1 FAD604      0.0000 
     46 C4'         4.4010    7.3770    1.5790 C.3       1 FAD604      0.0000 
     47 O4'         4.8150    7.5030    2.8690 O.3       1 FAD604      0.0000 
     48 C5'         4.9850    8.5150    0.7640 C.3       1 FAD604      0.0000 
     49 O5'         4.4860    9.7290    1.2430 O.3       1 FAD604      0.0000 
     50 P           3.7750   10.7370    0.2020 P.3       1 FAD604      0.0000 
     51 O1P         2.9430   10.0060   -0.7570 O.co2     1 FAD604      0.0000 
     52 O2P         3.1350   11.8460    0.9280 O.co2     1 FAD604      0.0000 
     53 O3P         5.0370   11.3430   -0.6460 O.3       1 FAD604      0.0000 
@<TRIPOS>BOND
     1    1    2 ar   
     2    1    3 ar   
     3    1    4 1    
     4    1   53 1    
     5    4    5 1    
     6    5    6 1    
     7    6    7 1    
     8    6    8 1    
     9    7   12 1    
    10    8    9 1    
    11    8   10 1    
    12   10   11 1    
    13   10   12 1    
    14   12   13 1    
    15   13   14 1    
    16   13   22 1    
    17   14   15 2    
    18   15   16 1    
    19   16   17 ar   
    20   16   22 ar   
    21   17   18 1    
    22   17   19 ar   
    23   19   20 ar   
    24   20   21 ar   
    25   21   22 ar   
    26   23   24 1    
    27   23   40 2    
    28   24   25 2    
    29   24   26 am   
    30   26   27 am   
    31   27   28 2    
    32   27   29 1    
    33   29   30 2    
    34   29   40 1    
    35   30   31 1    
    36   31   32 ar   
    37   31   38 ar   
    38   32   33 ar   
    39   33   34 1    
    40   33   35 ar   
    41   35   36 1    
    42   35   37 ar   
    43   37   38 ar   
    44   38   39 1    
    45   39   40 1    
    46   39   41 1    
    47   41   42 1    
    48   42   43 1    
    49   42   44 1    
    50   44   45 1    
    51   44   46 1    
    52   46   47 1    
    53   46   48 1    
    54   48   49 1    
    55   49   50 1    
    56   50   51 ar   
    57   50   52 ar   
    58   50   53 1    
@<TRIPOS>SUBSTRUCTURE
     1 FAD604      1 GROUP   
@<TRIPOS>SET
ATOM$ORANGE STATIC     ATOMS   COLORGROUP SYSTEM 
54 5 5 6 6 8 8 10 10 12 12 14 14 16 16 17 17 20 \
20 22 22 24 24 27 27 29 29 31 31 32 32 33 33 34 34 35 \
35 36 36 37 37 38 38 40 40 41 41 42 42 44 44 46 46 48 \
48 

