#    Name: 6jkp_1_NAD
#    Modification time : Fri May 22 19:26:51 2020

@<TRIPOS>MOLECULE
6jkp_1_NAD
   44    48     1     0     1
SMALL
NO_CHARGES


@<TRIPOS>ATOM
      1 PA        -10.4600  -15.8070  -37.7790 P.3       1 NAD401      0.0000 
      2 O1A        -9.4680  -14.7560  -38.1960 O.co2     1 NAD401      0.0000 
      3 O2A       -11.9540  -15.8100  -37.8240 O.co2     1 NAD401      0.0000 
      4 O5B       -10.1340  -15.7800  -36.0690 O.3       1 NAD401      0.0000 
      5 C5B       -10.6510  -14.6150  -35.5660 C.3       1 NAD401      0.0000 
      6 C4B       -11.9580  -14.9380  -34.8800 C.3       1 NAD401      0.0000 
      7 O4B       -11.7040  -15.7400  -33.7500 O.3       1 NAD401      0.0000 
      8 C3B       -12.5090  -13.6280  -34.3450 C.3       1 NAD401      0.0000 
      9 O3B       -13.1690  -13.0470  -35.4220 O.3       1 NAD401      0.0000 
     10 C2B       -13.4710  -14.1540  -33.2770 C.3       1 NAD401      0.0000 
     11 O2B       -14.7230  -14.4470  -33.8030 O.3       1 NAD401      0.0000 
     12 C1B       -12.7990  -15.5360  -32.8680 C.3       1 NAD401      0.0000 
     13 N9A       -12.2690  -15.4880  -31.4900 N.pl3     1 NAD401      0.0000 
     14 C8A       -12.8980  -15.8440  -30.2780 C.2       1 NAD401      0.0000 
     15 N7A       -12.1160  -15.6650  -29.2140 N.2       1 NAD401      0.0000 
     16 C5A       -10.9130  -15.1660  -29.7400 C.ar      1 NAD401      0.0000 
     17 C6A        -9.6930  -14.7790  -29.1280 C.ar      1 NAD401      0.0000 
     18 N6A        -9.5600  -14.8710  -27.7720 N.pl3     1 NAD401      0.0000 
     19 N1A        -8.6530  -14.3140  -29.8940 N.ar      1 NAD401      0.0000 
     20 C2A        -8.8680  -14.2530  -31.2480 C.ar      1 NAD401      0.0000 
     21 N3A        -9.9610  -14.5820  -31.9680 N.ar      1 NAD401      0.0000 
     22 C4A       -10.9840  -15.0450  -31.1650 C.ar      1 NAD401      0.0000 
     23 O3         -9.7210  -17.0990  -38.3990 O.3       1 NAD401      0.0000 
     24 PN         -8.1690  -17.2340  -38.0890 P.3       1 NAD401      0.0000 
     25 O1N        -7.4980  -16.4160  -37.0130 O.co2     1 NAD401      0.0000 
     26 O2N        -7.9460  -18.6510  -38.4840 O.co2     1 NAD401      0.0000 
     27 O5D        -7.4000  -16.4930  -39.5170 O.3       1 NAD401      0.0000 
     28 C5D        -8.0730  -16.9910  -40.6010 C.3       1 NAD401      0.0000 
     29 C4D        -8.2390  -15.8850  -41.6180 C.3       1 NAD401      0.0000 
     30 O4D        -6.9280  -15.5400  -42.1270 O.3       1 NAD401      0.0000 
     31 C3D        -9.0350  -16.4730  -42.8030 C.3       1 NAD401      0.0000 
     32 O3D        -9.5640  -15.3850  -43.4780 O.3       1 NAD401      0.0000 
     33 C2D        -7.9190  -17.1420  -43.6000 C.3       1 NAD401      0.0000 
     34 O2D        -8.1640  -17.2260  -44.9650 O.3       1 NAD401      0.0000 
     35 C1D        -6.8220  -16.0500  -43.4380 C.3       1 NAD401      0.0000 
     36 N1N        -5.4520  -16.6880  -43.5440 N.pl3     1 NAD401      0.0000 
     37 C2N        -4.4240  -15.8350  -43.8330 C.ar      1 NAD401      0.0000 
     38 C3N        -3.1320  -16.3410  -43.9480 C.ar      1 NAD401      0.0000 
     39 C7N        -2.0670  -15.3420  -44.2650 C.2       1 NAD401      0.0000 
     40 O7N        -0.8800  -15.6500  -44.2940 O.2       1 NAD401      0.0000 
     41 N7N        -2.4840  -14.0570  -44.5210 N.am      1 NAD401      0.0000 
     42 C4N        -2.9070  -17.7100  -43.7650 C.ar      1 NAD401      0.0000 
     43 C5N        -3.9750  -18.5540  -43.4720 C.ar      1 NAD401      0.0000 
     44 C6N        -5.2690  -18.0330  -43.3590 C.ar      1 NAD401      0.0000 
@<TRIPOS>BOND
     1    1    2 ar   
     2    1    3 ar   
     3    1    4 1    
     4    1   23 1    
     5    4    5 1    
     6    5    6 1    
     7    6    7 1    
     8    6    8 1    
     9    7   12 1    
    10    8    9 1    
    11    8   10 1    
    12   10   11 1    
    13   10   12 1    
    14   12   13 1    
    15   13   14 1    
    16   13   22 1    
    17   14   15 2    
    18   15   16 1    
    19   16   17 ar   
    20   16   22 ar   
    21   17   18 1    
    22   17   19 ar   
    23   19   20 ar   
    24   20   21 ar   
    25   21   22 ar   
    26   23   24 1    
    27   24   25 ar   
    28   24   26 ar   
    29   24   27 1    
    30   27   28 1    
    31   28   29 1    
    32   29   30 1    
    33   29   31 1    
    34   30   35 1    
    35   31   32 1    
    36   31   33 1    
    37   33   34 1    
    38   33   35 1    
    39   35   36 1    
    40   36   37 ar   
    41   36   44 ar   
    42   37   38 ar   
    43   38   39 1    
    44   38   42 ar   
    45   39   40 2    
    46   39   41 am   
    47   42   43 ar   
    48   43   44 ar   
@<TRIPOS>SUBSTRUCTURE
     1 NAD401      1 GROUP   
@<TRIPOS>SET
ATOM$ORANGE STATIC     ATOMS   COLORGROUP SYSTEM 
42 5 5 6 6 8 8 10 10 12 12 14 14 16 16 17 17 20 \
20 22 22 28 28 29 29 31 31 33 33 35 35 37 37 38 38 39 \
39 42 42 43 43 44 44 

