#    Name: 6jkp_2_NAD
#    Modification time : Fri May 22 19:26:57 2020

@<TRIPOS>MOLECULE
6jkp_2_NAD
   44    48     1     0     1
SMALL
NO_CHARGES


@<TRIPOS>ATOM
      1 PA        -31.4060  -18.1160  -44.5160 P.3       1 NAD401      0.0000 
      2 O1A       -30.9100  -17.3960  -43.2920 O.co2     1 NAD401      0.0000 
      3 O2A       -32.1290  -17.6180  -45.7250 O.co2     1 NAD401      0.0000 
      4 O5B       -29.8530  -18.4340  -45.1960 O.3       1 NAD401      0.0000 
      5 C5B       -29.9810  -19.5670  -45.9640 C.3       1 NAD401      0.0000 
      6 C4B       -28.8390  -19.6080  -46.9380 C.3       1 NAD401      0.0000 
      7 O4B       -29.2130  -20.4210  -48.0450 O.3       1 NAD401      0.0000 
      8 C3B       -28.6740  -18.1450  -47.4570 C.3       1 NAD401      0.0000 
      9 O3B       -27.3250  -17.8500  -47.2890 O.3       1 NAD401      0.0000 
     10 C2B       -29.0770  -18.2830  -48.9360 C.3       1 NAD401      0.0000 
     11 O2B       -28.3020  -17.4880  -49.7690 O.3       1 NAD401      0.0000 
     12 C1B       -28.6710  -19.7750  -49.1720 C.3       1 NAD401      0.0000 
     13 N9A       -29.2820  -20.3800  -50.3790 N.pl3     1 NAD401      0.0000 
     14 C8A       -28.6580  -21.0610  -51.4460 C.2       1 NAD401      0.0000 
     15 N7A       -29.5200  -21.4800  -52.3730 N.2       1 NAD401      0.0000 
     16 C5A       -30.7740  -21.0580  -51.9020 C.ar      1 NAD401      0.0000 
     17 C6A       -32.0830  -21.1930  -52.4280 C.ar      1 NAD401      0.0000 
     18 N6A       -32.2690  -21.8390  -53.6130 N.pl3     1 NAD401      0.0000 
     19 N1A       -33.1560  -20.6800  -51.7490 N.ar      1 NAD401      0.0000 
     20 C2A       -32.8820  -20.0440  -50.5640 C.ar      1 NAD401      0.0000 
     21 N3A       -31.7050  -19.8360  -49.9390 N.ar      1 NAD401      0.0000 
     22 C4A       -30.6510  -20.3680  -50.6530 C.ar      1 NAD401      0.0000 
     23 O3        -31.9260  -19.4830  -43.8140 O.3       1 NAD401      0.0000 
     24 PN        -33.4240  -19.4900  -43.2630 P.3       1 NAD401      0.0000 
     25 O1N       -33.7920  -20.4080  -42.1240 O.co2     1 NAD401      0.0000 
     26 O2N       -34.1880  -19.1560  -44.4940 O.co2     1 NAD401      0.0000 
     27 O5D       -33.6630  -17.9300  -42.4320 O.3       1 NAD401      0.0000 
     28 C5D       -33.1210  -18.0620  -41.1830 C.3       1 NAD401      0.0000 
     29 C4D       -32.8380  -16.6780  -40.6430 C.3       1 NAD401      0.0000 
     30 O4D       -34.1060  -16.0630  -40.3090 O.3       1 NAD401      0.0000 
     31 C3D       -32.0380  -16.8430  -39.3260 C.3       1 NAD401      0.0000 
     32 O3D       -31.2210  -15.7280  -39.2320 O.3       1 NAD401      0.0000 
     33 C2D       -33.1510  -16.8240  -38.2740 C.3       1 NAD401      0.0000 
     34 O2D       -32.7790  -16.2570  -37.0630 O.3       1 NAD401      0.0000 
     35 C1D       -34.1100  -15.7980  -38.9340 C.3       1 NAD401      0.0000 
     36 N1N       -35.5180  -16.0770  -38.4720 N.pl3     1 NAD401      0.0000 
     37 C2N       -36.4300  -15.0890  -38.7080 C.ar      1 NAD401      0.0000 
     38 C3N       -37.7510  -15.2770  -38.3090 C.ar      1 NAD401      0.0000 
     39 C7N       -38.6860  -14.1530  -38.6010 C.2       1 NAD401      0.0000 
     40 O7N       -39.8490  -14.1580  -38.2080 O.2       1 NAD401      0.0000 
     41 N7N       -38.1790  -13.1100  -39.3400 N.am      1 NAD401      0.0000 
     42 C4N       -38.1220  -16.4670  -37.6820 C.ar      1 NAD401      0.0000 
     43 C5N       -37.1710  -17.4570  -37.4580 C.ar      1 NAD401      0.0000 
     44 C6N       -35.8480  -17.2570  -37.8610 C.ar      1 NAD401      0.0000 
@<TRIPOS>BOND
     1    1    2 ar   
     2    1    3 ar   
     3    1    4 1    
     4    1   23 1    
     5    4    5 1    
     6    5    6 1    
     7    6    7 1    
     8    6    8 1    
     9    7   12 1    
    10    8    9 1    
    11    8   10 1    
    12   10   11 1    
    13   10   12 1    
    14   12   13 1    
    15   13   14 1    
    16   13   22 1    
    17   14   15 2    
    18   15   16 1    
    19   16   17 ar   
    20   16   22 ar   
    21   17   18 1    
    22   17   19 ar   
    23   19   20 ar   
    24   20   21 ar   
    25   21   22 ar   
    26   23   24 1    
    27   24   25 ar   
    28   24   26 ar   
    29   24   27 1    
    30   27   28 1    
    31   28   29 1    
    32   29   30 1    
    33   29   31 1    
    34   30   35 1    
    35   31   32 1    
    36   31   33 1    
    37   33   34 1    
    38   33   35 1    
    39   35   36 1    
    40   36   37 ar   
    41   36   44 ar   
    42   37   38 ar   
    43   38   39 1    
    44   38   42 ar   
    45   39   40 2    
    46   39   41 am   
    47   42   43 ar   
    48   43   44 ar   
@<TRIPOS>SUBSTRUCTURE
     1 NAD401      1 GROUP   
@<TRIPOS>SET
ATOM$ORANGE STATIC     ATOMS   COLORGROUP SYSTEM 
42 5 5 6 6 8 8 10 10 12 12 14 14 16 16 17 17 20 \
20 22 22 28 28 29 29 31 31 33 33 35 35 37 37 38 38 39 \
39 42 42 43 43 44 44 

