#    Name: 6jkp_3_NAD
#    Modification time : Fri May 22 19:27:03 2020

@<TRIPOS>MOLECULE
6jkp_3_NAD
   44    48     1     0     1
SMALL
NO_CHARGES


@<TRIPOS>ATOM
      1 PA        -20.2430   12.1160    1.1480 P.3       1 NAD401      0.0000 
      2 O1A       -19.4630   13.3050    0.6560 O.co2     1 NAD401      0.0000 
      3 O2A       -21.2700   11.2650    0.4740 O.co2     1 NAD401      0.0000 
      4 O5B       -21.2450   12.9500    2.2800 O.3       1 NAD401      0.0000 
      5 C5B       -22.0710   12.0010    2.8380 C.3       1 NAD401      0.0000 
      6 C4B       -22.8150   12.6110    3.9930 C.3       1 NAD401      0.0000 
      7 O4B       -21.8780   12.8660    5.0220 O.3       1 NAD401      0.0000 
      8 C3B       -23.3610   13.9710    3.4810 C.3       1 NAD401      0.0000 
      9 O3B       -24.7330   13.9150    3.6970 O.3       1 NAD401      0.0000 
     10 C2B       -22.6460   14.9950    4.3910 C.3       1 NAD401      0.0000 
     11 O2B       -23.5140   15.9690    4.8750 O.3       1 NAD401      0.0000 
     12 C1B       -22.2350   14.0950    5.6000 C.3       1 NAD401      0.0000 
     13 N9A       -21.0250   14.5950    6.2470 N.pl3     1 NAD401      0.0000 
     14 C8A       -19.8040   15.0140    5.6910 C.2       1 NAD401      0.0000 
     15 N7A       -18.9260   15.4040    6.6140 N.2       1 NAD401      0.0000 
     16 C5A       -19.6040   15.2340    7.8380 C.ar      1 NAD401      0.0000 
     17 C6A       -19.2290   15.4660    9.1910 C.ar      1 NAD401      0.0000 
     18 N6A       -17.9870   15.9500    9.4810 N.pl3     1 NAD401      0.0000 
     19 N1A       -20.1100   15.2040   10.2070 N.ar      1 NAD401      0.0000 
     20 C2A       -21.3360   14.7190    9.8430 C.ar      1 NAD401      0.0000 
     21 N3A       -21.8310   14.4510    8.6160 N.ar      1 NAD401      0.0000 
     22 C4A       -20.9170   14.7270    7.6240 C.ar      1 NAD401      0.0000 
     23 O3        -19.0640   11.3800    1.9720 O.3       1 NAD401      0.0000 
     24 PN        -18.2330   10.3010    1.1530 P.3       1 NAD401      0.0000 
     25 O1N       -18.3870    8.8330    1.4660 O.co2     1 NAD401      0.0000 
     26 O2N       -17.0120   11.0830    0.8280 O.co2     1 NAD401      0.0000 
     27 O5D       -18.9440   10.3150   -0.4930 O.3       1 NAD401      0.0000 
     28 C5D       -18.0960    9.6380   -1.3090 C.3       1 NAD401      0.0000 
     29 C4D       -18.1280   10.2820   -2.6750 C.3       1 NAD401      0.0000 
     30 O4D       -16.7690   10.3200   -3.1760 O.3       1 NAD401      0.0000 
     31 C3D       -18.9430    9.3450   -3.6080 C.3       1 NAD401      0.0000 
     32 O3D       -19.5700   10.1680   -4.5280 O.3       1 NAD401      0.0000 
     33 C2D       -17.8440    8.5050   -4.2600 C.3       1 NAD401      0.0000 
     34 O2D       -18.1250    8.1130   -5.5630 O.3       1 NAD401      0.0000 
     35 C1D       -16.7390    9.5930   -4.3750 C.3       1 NAD401      0.0000 
     36 N1N       -15.3820    8.9210   -4.4380 N.pl3     1 NAD401      0.0000 
     37 C2N       -14.3770    9.6480   -5.0160 C.ar      1 NAD401      0.0000 
     38 C3N       -13.1020    9.0900   -5.1090 C.ar      1 NAD401      0.0000 
     39 C7N       -12.0550    9.9410   -5.7510 C.2       1 NAD401      0.0000 
     40 O7N       -12.2980   11.0760   -6.1510 O.2       1 NAD401      0.0000 
     41 N7N       -10.8020    9.3900   -5.8700 N.am      1 NAD401      0.0000 
     42 C4N       -12.8720    7.8060   -4.6110 C.ar      1 NAD401      0.0000 
     43 C5N       -13.9130    7.0920   -4.0290 C.ar      1 NAD401      0.0000 
     44 C6N       -15.1870    7.6610   -3.9420 C.ar      1 NAD401      0.0000 
@<TRIPOS>BOND
     1    1    2 ar   
     2    1    3 ar   
     3    1    4 1    
     4    1   23 1    
     5    4    5 1    
     6    5    6 1    
     7    6    7 1    
     8    6    8 1    
     9    7   12 1    
    10    8    9 1    
    11    8   10 1    
    12   10   11 1    
    13   10   12 1    
    14   12   13 1    
    15   13   14 1    
    16   13   22 1    
    17   14   15 2    
    18   15   16 1    
    19   16   17 ar   
    20   16   22 ar   
    21   17   18 1    
    22   17   19 ar   
    23   19   20 ar   
    24   20   21 ar   
    25   21   22 ar   
    26   23   24 1    
    27   24   25 ar   
    28   24   26 ar   
    29   24   27 1    
    30   27   28 1    
    31   28   29 1    
    32   29   30 1    
    33   29   31 1    
    34   30   35 1    
    35   31   32 1    
    36   31   33 1    
    37   33   34 1    
    38   33   35 1    
    39   35   36 1    
    40   36   37 ar   
    41   36   44 ar   
    42   37   38 ar   
    43   38   39 1    
    44   38   42 ar   
    45   39   40 2    
    46   39   41 am   
    47   42   43 ar   
    48   43   44 ar   
@<TRIPOS>SUBSTRUCTURE
     1 NAD401      1 GROUP   
@<TRIPOS>SET
ATOM$ORANGE STATIC     ATOMS   COLORGROUP SYSTEM 
42 5 5 6 6 8 8 10 10 12 12 14 14 16 16 17 17 20 \
20 22 22 28 28 29 29 31 31 33 33 35 35 37 37 38 38 39 \
39 42 42 43 43 44 44 

