#    Name: 6fkh_2_ADP
#    Modification time : Fri May 22 19:28:44 2020

@<TRIPOS>MOLECULE
6fkh_2_ADP
   27    29     1     0     1
SMALL
NO_CHARGES


@<TRIPOS>ATOM
      1 PB        160.8200  201.4430  230.5860 P.3       1 ADP501      0.0000 
      2 O1B       161.2980  200.0960  230.3140 O.co2     1 ADP501      0.0000 
      3 O2B       159.8620  201.5460  231.7320 O.co2     1 ADP501      0.0000 
      4 O3B       161.9560  202.3560  230.6090 O.co2     1 ADP501      0.0000 
      5 PA        159.6270  203.2070  228.7000 P.3       1 ADP501      0.0000 
      6 O1A       158.2580  203.1700  228.1750 O.co2     1 ADP501      0.0000 
      7 O2A       159.9440  204.2980  229.6120 O.co2     1 ADP501      0.0000 
      8 O3A       160.1100  201.7980  229.2310 O.3       1 ADP501      0.0000 
      9 O5'       160.5120  203.3780  227.4340 O.3       1 ADP501      0.0000 
     10 C5'       161.4170  204.4420  227.4010 C.3       1 ADP501      0.0000 
     11 C4'       161.4130  205.1050  226.0530 C.3       1 ADP501      0.0000 
     12 O4'       161.3100  204.1450  225.0400 O.3       1 ADP501      0.0000 
     13 C3'       160.1930  205.9280  225.8170 C.3       1 ADP501      0.0000 
     14 O3'       160.3150  207.1490  226.4980 O.3       1 ADP501      0.0000 
     15 C2'       160.2890  206.0850  224.3420 C.3       1 ADP501      0.0000 
     16 O2'       161.3650  206.9490  224.0880 O.3       1 ADP501      0.0000 
     17 C1'       160.7710  204.7480  223.8890 C.3       1 ADP501      0.0000 
     18 N9        159.5960  203.9870  223.4880 N.pl3     1 ADP501      0.0000 
     19 C8        159.0570  202.9760  224.1380 C.2       1 ADP501      0.0000 
     20 N7        157.9770  202.5130  223.5050 N.2       1 ADP501      0.0000 
     21 C5        157.8260  203.2540  222.4090 C.ar      1 ADP501      0.0000 
     22 C6        156.9030  203.3240  221.2830 C.ar      1 ADP501      0.0000 
     23 N6        155.8800  202.4760  221.1630 N.pl3     1 ADP501      0.0000 
     24 N1        157.1210  204.2370  220.3520 N.ar      1 ADP501      0.0000 
     25 C2        158.1260  205.1000  220.4150 C.ar      1 ADP501      0.0000 
     26 N3        159.0020  205.1050  221.4080 N.ar      1 ADP501      0.0000 
     27 C4        158.8980  204.2230  222.4100 C.ar      1 ADP501      0.0000 
@<TRIPOS>BOND
     1    1    2 ar   
     2    1    3 ar   
     3    1    4 ar   
     4    1    8 1    
     5    5    6 ar   
     6    5    7 ar   
     7    5    8 1    
     8    5    9 1    
     9    9   10 1    
    10   10   11 1    
    11   11   12 1    
    12   11   13 1    
    13   12   17 1    
    14   13   14 1    
    15   13   15 1    
    16   15   16 1    
    17   15   17 1    
    18   17   18 1    
    19   18   19 1    
    20   18   27 1    
    21   19   20 2    
    22   20   21 1    
    23   21   22 ar   
    24   21   27 ar   
    25   22   23 1    
    26   22   24 ar   
    27   24   25 ar   
    28   25   26 ar   
    29   26   27 ar   
@<TRIPOS>SUBSTRUCTURE
     1 ADP501      1 GROUP   
@<TRIPOS>SET
ATOM$ORANGE STATIC     ATOMS   COLORGROUP SYSTEM 
20 10 10 11 11 13 13 15 15 17 17 19 19 21 21 22 22 25 \
25 27 27 

