#    Name: 6fkh_5_ADP
#    Modification time : Fri May 22 19:29:49 2020

@<TRIPOS>MOLECULE
6fkh_5_ADP
   27    29     1     0     1
SMALL
NO_CHARGES


@<TRIPOS>ATOM
      1 PB        207.4850  198.1370  233.7540 P.3       1 ADP600      0.0000 
      2 O1B       206.1440  197.4890  233.7690 O.co2     1 ADP600      0.0000 
      3 O2B       208.4420  197.5250  234.7200 O.co2     1 ADP600      0.0000 
      4 O3B       207.4860  199.6230  233.7690 O.co2     1 ADP600      0.0000 
      5 PA        209.5610  198.1720  231.8930 P.3       1 ADP600      0.0000 
      6 O1A       209.6970  199.6470  231.7590 O.co2     1 ADP600      0.0000 
      7 O2A       210.5020  197.4110  232.7640 O.co2     1 ADP600      0.0000 
      8 O3A       208.0560  197.8230  232.2970 O.3       1 ADP600      0.0000 
      9 O5'       209.6980  197.5400  230.4460 O.3       1 ADP600      0.0000 
     10 C5'       210.3200  196.2770  230.4130 C.3       1 ADP600      0.0000 
     11 C4'       210.8300  195.9240  229.0400 C.3       1 ADP600      0.0000 
     12 O4'       210.0710  196.5320  228.0150 O.3       1 ADP600      0.0000 
     13 C3'       212.2060  196.4920  228.8930 C.3       1 ADP600      0.0000 
     14 O3'       213.1660  195.5180  229.2710 O.3       1 ADP600      0.0000 
     15 C2'       212.3210  196.7190  227.4240 C.3       1 ADP600      0.0000 
     16 O2'       212.8950  195.5490  226.8660 O.3       1 ADP600      0.0000 
     17 C1'       210.9170  196.8250  226.9140 C.3       1 ADP600      0.0000 
     18 N9        210.7750  198.2350  226.5450 N.pl3     1 ADP600      0.0000 
     19 C8        210.0940  199.1300  227.2490 C.2       1 ADP600      0.0000 
     20 N7        210.1500  200.3430  226.6710 N.2       1 ADP600      0.0000 
     21 C5        210.8960  200.2250  225.5780 C.ar      1 ADP600      0.0000 
     22 C6        211.3510  201.1210  224.5190 C.ar      1 ADP600      0.0000 
     23 N6        211.0050  202.4120  224.5140 N.pl3     1 ADP600      0.0000 
     24 N1        212.1030  200.6150  223.5430 N.ar      1 ADP600      0.0000 
     25 C2        212.4510  199.3270  223.5310 C.ar      1 ADP600      0.0000 
     26 N3        212.0720  198.4510  224.4640 N.ar      1 ADP600      0.0000 
     27 C4        211.3020  198.8340  225.4930 C.ar      1 ADP600      0.0000 
@<TRIPOS>BOND
     1    1    2 ar   
     2    1    3 ar   
     3    1    4 ar   
     4    1    8 1    
     5    5    6 ar   
     6    5    7 ar   
     7    5    8 1    
     8    5    9 1    
     9    9   10 1    
    10   10   11 1    
    11   11   12 1    
    12   11   13 1    
    13   12   17 1    
    14   13   14 1    
    15   13   15 1    
    16   15   16 1    
    17   15   17 1    
    18   17   18 1    
    19   18   19 1    
    20   18   27 1    
    21   19   20 2    
    22   20   21 1    
    23   21   22 ar   
    24   21   27 ar   
    25   22   23 1    
    26   22   24 ar   
    27   24   25 ar   
    28   25   26 ar   
    29   26   27 ar   
@<TRIPOS>SUBSTRUCTURE
     1 ADP600      1 GROUP   
@<TRIPOS>SET
ATOM$ORANGE STATIC     ATOMS   COLORGROUP SYSTEM 
20 10 10 11 11 13 13 15 15 17 17 19 19 21 21 22 22 25 \
25 27 27 

