#    Name: 6fkh_1_ATP
#    Modification time : Fri May 22 19:28:25 2020

@<TRIPOS>MOLECULE
6fkh_1_ATP
   31    33     1     0     1
SMALL
NO_CHARGES


@<TRIPOS>ATOM
      1 PG        186.1420  213.1750  232.5610 P.3       1 ATP600      0.0000 
      2 O1G       187.6040  213.4440  232.5300 O.co2     1 ATP600      0.0000 
      3 O2G       185.8300  211.7220  232.7670 O.co2     1 ATP600      0.0000 
      4 O3G       185.3640  214.0880  233.4620 O.co2     1 ATP600      0.0000 
      5 PB        184.2200  214.0270  230.6310 P.3       1 ATP600      0.0000 
      6 O1B       183.4980  212.7810  230.3050 O.co2     1 ATP600      0.0000 
      7 O2B       183.7170  214.9210  231.7090 O.co2     1 ATP600      0.0000 
      8 O3B       185.6800  213.5240  231.0540 O.3       1 ATP600      0.0000 
      9 PA        184.9700  216.3590  229.1440 P.3       1 ATP600      0.0000 
     10 O1A       183.9850  217.4630  229.0070 O.co2     1 ATP600      0.0000 
     11 O2A       186.0560  216.5080  230.1490 O.co2     1 ATP600      0.0000 
     12 O3A       184.3020  214.9100  229.2960 O.3       1 ATP600      0.0000 
     13 O5'       185.5740  216.1940  227.7040 O.3       1 ATP600      0.0000 
     14 C5'       186.8360  215.6220  227.4300 C.3       1 ATP600      0.0000 
     15 C4'       187.3060  216.4300  226.2380 C.3       1 ATP600      0.0000 
     16 O4'       186.3380  216.3120  225.1890 O.3       1 ATP600      0.0000 
     17 C3'       187.3810  217.9040  226.6050 C.3       1 ATP600      0.0000 
     18 O3'       188.7130  218.3810  226.4690 O.3       1 ATP600      0.0000 
     19 C2'       186.4390  218.5960  225.6510 C.3       1 ATP600      0.0000 
     20 O2'       186.9840  219.7430  225.0180 O.3       1 ATP600      0.0000 
     21 C1'       186.1670  217.5790  224.5820 C.3       1 ATP600      0.0000 
     22 N9        184.7990  217.8070  224.0990 N.pl3     1 ATP600      0.0000 
     23 C8        183.6490  217.6430  224.7710 C.2       1 ATP600      0.0000 
     24 N7        182.5940  217.9780  223.9870 N.2       1 ATP600      0.0000 
     25 C5        183.0850  218.3700  222.7970 C.ar      1 ATP600      0.0000 
     26 C6        182.5450  218.8510  221.5210 C.ar      1 ATP600      0.0000 
     27 N6        181.2220  218.9960  221.3020 N.pl3     1 ATP600      0.0000 
     28 N1        183.4300  219.1500  220.5660 N.ar      1 ATP600      0.0000 
     29 C2        184.7490  219.0220  220.7280 C.ar      1 ATP600      0.0000 
     30 N3        185.3040  218.5870  221.8480 N.ar      1 ATP600      0.0000 
     31 C4        184.5350  218.2600  222.8880 C.ar      1 ATP600      0.0000 
@<TRIPOS>BOND
     1    1    2 ar   
     2    1    3 ar   
     3    1    4 ar   
     4    1    8 1    
     5    5    6 ar   
     6    5    7 ar   
     7    5    8 1    
     8    5   12 1    
     9    9   10 ar   
    10    9   11 ar   
    11    9   12 1    
    12    9   13 1    
    13   13   14 1    
    14   14   15 1    
    15   15   16 1    
    16   15   17 1    
    17   16   21 1    
    18   17   18 1    
    19   17   19 1    
    20   19   20 1    
    21   19   21 1    
    22   21   22 1    
    23   22   23 1    
    24   22   31 1    
    25   23   24 2    
    26   24   25 1    
    27   25   26 ar   
    28   25   31 ar   
    29   26   27 1    
    30   26   28 ar   
    31   28   29 ar   
    32   29   30 ar   
    33   30   31 ar   
@<TRIPOS>SUBSTRUCTURE
     1 ATP600      1 GROUP   
@<TRIPOS>SET
ATOM$ORANGE STATIC     ATOMS   COLORGROUP SYSTEM 
20 14 14 15 15 17 17 19 19 21 21 23 23 25 25 26 26 29 \
29 31 31 

