#    Name: 6fkh_4_ATP
#    Modification time : Fri May 22 19:29:27 2020

@<TRIPOS>MOLECULE
6fkh_4_ATP
   31    33     1     0     1
SMALL
NO_CHARGES


@<TRIPOS>ATOM
      1 PG        206.3680  170.3260  234.7040 P.3       1 ATP600      0.0000 
      2 O1G       205.7500  168.9920  234.4890 O.co2     1 ATP600      0.0000 
      3 O2G       207.4990  170.3380  235.6830 O.co2     1 ATP600      0.0000 
      4 O3G       205.3850  171.4180  234.9050 O.co2     1 ATP600      0.0000 
      5 PB        208.3810  171.4350  232.9570 P.3       1 ATP600      0.0000 
      6 O1B       208.0860  172.7350  232.3190 O.co2     1 ATP600      0.0000 
      7 O2B       209.2800  171.2430  234.1050 O.co2     1 ATP600      0.0000 
      8 O3B       207.0060  170.6870  233.2740 O.3       1 ATP600      0.0000 
      9 PA        210.1750  169.4330  232.0090 P.3       1 ATP600      0.0000 
     10 O1A       211.5270  170.0000  232.1090 O.co2     1 ATP600      0.0000 
     11 O2A       209.7420  168.4800  233.0600 O.co2     1 ATP600      0.0000 
     12 O3A       209.0910  170.5840  231.8250 O.3       1 ATP600      0.0000 
     13 O5'       210.1280  168.7530  230.5770 O.3       1 ATP600      0.0000 
     14 C5'       209.0120  168.0390  230.0810 C.3       1 ATP600      0.0000 
     15 C4'       209.6060  166.8340  229.3940 C.3       1 ATP600      0.0000 
     16 O4'       210.4060  167.2980  228.3280 O.3       1 ATP600      0.0000 
     17 C3'       210.5560  166.1510  230.3500 C.3       1 ATP600      0.0000 
     18 O3'       210.5330  164.7550  230.1190 O.3       1 ATP600      0.0000 
     19 C2'       211.9080  166.6740  229.9670 C.3       1 ATP600      0.0000 
     20 O2'       212.9510  165.7800  230.3360 O.3       1 ATP600      0.0000 
     21 C1'       211.7500  166.8520  228.4790 C.3       1 ATP600      0.0000 
     22 N9        212.6840  167.8880  228.0290 N.pl3     1 ATP600      0.0000 
     23 C8        212.8130  169.0700  228.6120 C.2       1 ATP600      0.0000 
     24 N7        213.7370  169.8260  228.0100 N.2       1 ATP600      0.0000 
     25 C5        214.2220  169.1040  227.0070 C.ar      1 ATP600      0.0000 
     26 C6        215.2490  169.3100  225.9860 C.ar      1 ATP600      0.0000 
     27 N6        215.9330  170.4610  225.9190 N.pl3     1 ATP600      0.0000 
     28 N1        215.4740  168.3090  225.1290 N.ar      1 ATP600      0.0000 
     29 C2        214.8100  167.1470  225.1880 C.ar      1 ATP600      0.0000 
     30 N3        213.8650  166.8900  226.0930 N.ar      1 ATP600      0.0000 
     31 C4        213.5360  167.8160  227.0220 C.ar      1 ATP600      0.0000 
@<TRIPOS>BOND
     1    1    2 ar   
     2    1    3 ar   
     3    1    4 ar   
     4    1    8 1    
     5    5    6 ar   
     6    5    7 ar   
     7    5    8 1    
     8    5   12 1    
     9    9   10 ar   
    10    9   11 ar   
    11    9   12 1    
    12    9   13 1    
    13   13   14 1    
    14   14   15 1    
    15   15   16 1    
    16   15   17 1    
    17   16   21 1    
    18   17   18 1    
    19   17   19 1    
    20   19   20 1    
    21   19   21 1    
    22   21   22 1    
    23   22   23 1    
    24   22   31 1    
    25   23   24 2    
    26   24   25 1    
    27   25   26 ar   
    28   25   31 ar   
    29   26   27 1    
    30   26   28 ar   
    31   28   29 ar   
    32   29   30 ar   
    33   30   31 ar   
@<TRIPOS>SUBSTRUCTURE
     1 ATP600      1 GROUP   
@<TRIPOS>SET
ATOM$ORANGE STATIC     ATOMS   COLORGROUP SYSTEM 
20 14 14 15 15 17 17 19 19 21 21 23 23 25 25 26 26 29 \
29 31 31 

