#    Name: 6fkh_3_ATP
#    Modification time : Fri May 22 19:29:05 2020

@<TRIPOS>MOLECULE
6fkh_3_ATP
   31    33     1     0     1
SMALL
NO_CHARGES


@<TRIPOS>ATOM
      1 PG        158.3290  176.2680  231.3730 P.3       1 ATP602      0.0000 
      2 O1G       156.8820  176.5680  231.3370 O.co2     1 ATP602      0.0000 
      3 O2G       159.2330  177.4140  231.3940 O.co2     1 ATP602      0.0000 
      4 O3G       158.6580  175.2680  232.3920 O.co2     1 ATP602      0.0000 
      5 PB        158.5310  174.1100  229.5650 P.3       1 ATP602      0.0000 
      6 O1B       159.8110  173.5890  229.1030 O.co2     1 ATP602      0.0000 
      7 O2B       157.8080  173.5510  230.7170 O.co2     1 ATP602      0.0000 
      8 O3B       158.7340  175.6190  229.9700 O.3       1 ATP602      0.0000 
      9 PA        156.1450  173.5910  228.0580 P.3       1 ATP602      0.0000 
     10 O1A       155.9980  172.1280  228.0330 O.co2     1 ATP602      0.0000 
     11 O2A       155.2310  174.3610  228.9300 O.co2     1 ATP602      0.0000 
     12 O3A       157.6340  174.1010  228.2650 O.3       1 ATP602      0.0000 
     13 O5'       156.0810  174.0920  226.5720 O.3       1 ATP602      0.0000 
     14 C5'       156.2420  175.4550  226.2270 C.3       1 ATP602      0.0000 
     15 C4'       155.2460  175.7270  225.1250 C.3       1 ATP602      0.0000 
     16 O4'       155.5860  174.9470  223.9900 O.3       1 ATP602      0.0000 
     17 C3'       153.9010  175.2440  225.6030 C.3       1 ATP602      0.0000 
     18 O3'       152.8980  176.1920  225.2790 O.3       1 ATP602      0.0000 
     19 C2'       153.7080  173.9490  224.8600 C.3       1 ATP602      0.0000 
     20 O2'       152.3600  173.7210  224.5470 O.3       1 ATP602      0.0000 
     21 C1'       154.5040  174.1110  223.6060 C.3       1 ATP602      0.0000 
     22 N9        154.9420  172.7720  223.1640 N.pl3     1 ATP602      0.0000 
     23 C8        155.5170  171.8260  223.9000 C.2       1 ATP602      0.0000 
     24 N7        155.7820  170.7310  223.1600 N.2       1 ATP602      0.0000 
     25 C5        155.3550  170.9650  221.9230 C.ar      1 ATP602      0.0000 
     26 C6        155.3130  170.2480  220.6490 C.ar      1 ATP602      0.0000 
     27 N6        155.7840  169.0030  220.4960 N.pl3     1 ATP602      0.0000 
     28 N1        154.7820  170.8780  219.6080 N.ar      1 ATP602      0.0000 
     29 C2        154.2980  172.1150  219.6780 C.ar      1 ATP602      0.0000 
     30 N3        154.3000  172.8160  220.7980 N.ar      1 ATP602      0.0000 
     31 C4        154.8000  172.3060  221.9360 C.ar      1 ATP602      0.0000 
@<TRIPOS>BOND
     1    1    2 ar   
     2    1    3 ar   
     3    1    4 ar   
     4    1    8 1    
     5    5    6 ar   
     6    5    7 ar   
     7    5    8 1    
     8    5   12 1    
     9    9   10 ar   
    10    9   11 ar   
    11    9   12 1    
    12    9   13 1    
    13   13   14 1    
    14   14   15 1    
    15   15   16 1    
    16   15   17 1    
    17   16   21 1    
    18   17   18 1    
    19   17   19 1    
    20   19   20 1    
    21   19   21 1    
    22   21   22 1    
    23   22   23 1    
    24   22   31 1    
    25   23   24 2    
    26   24   25 1    
    27   25   26 ar   
    28   25   31 ar   
    29   26   27 1    
    30   26   28 ar   
    31   28   29 ar   
    32   29   30 ar   
    33   30   31 ar   
@<TRIPOS>SUBSTRUCTURE
     1 ATP602      1 GROUP   
@<TRIPOS>SET
ATOM$ORANGE STATIC     ATOMS   COLORGROUP SYSTEM 
20 14 14 15 15 17 17 19 19 21 21 23 23 25 25 26 26 29 \
29 31 31 

