#    Name: 6ekx_1_1NP
#    Modification time : Fri May 22 19:28:06 2020

@<TRIPOS>MOLECULE
6ekx_1_1NP
   11    12     1     0     0
SMALL
NO_CHARGES


@<TRIPOS>ATOM
      1 O1          9.1380    6.2400    8.2970 Du        1 1NP413      0.0000 
      2 C1          9.9960    5.9730    9.3200 C.ar      1 1NP413      0.0000 
      3 C8A        10.4430    4.5830    9.5920 C.ar      1 1NP413      0.0000 
      4 C8         10.0140    3.5050    8.8300 C.ar      1 1NP413      0.0000 
      5 C7         10.4720    2.2280    9.1410 C.ar      1 1NP413      0.0000 
      6 C2         10.4740    6.9970   10.1320 C.ar      1 1NP413      0.0000 
      7 C3         11.3540    6.7310   11.1820 C.ar      1 1NP413      0.0000 
      8 C4         11.8000    5.4430   11.4750 C.ar      1 1NP413      0.0000 
      9 C4A        11.3770    4.3570   10.7180 C.ar      1 1NP413      0.0000 
     10 C5         11.8060    3.0650   10.9900 C.ar      1 1NP413      0.0000 
     11 C6         11.3510    2.0120   10.2010 C.ar      1 1NP413      0.0000 
@<TRIPOS>BOND
     1    1    2 du   
     2    2    3 ar   
     3    2    6 ar   
     4    3    4 ar   
     5    3    9 ar   
     6    4    5 ar   
     7    5   11 ar   
     8    6    7 ar   
     9    7    8 ar   
    10    8    9 ar   
    11    9   10 ar   
    12   10   11 ar   
@<TRIPOS>SUBSTRUCTURE
     1 1NP413      1 GROUP   
@<TRIPOS>SET

