#    Name: 6ekx_2_1NP_CAVITY_N1_4
#    Modification time : Fri May 22 19:28:10 2020

@<TRIPOS>MOLECULE
6ekx_2_1NP_CAVITY_N1_4
   75     0     5     0     0
SMALL
NO_CHARGES


@<TRIPOS>ATOM
      1 OG         11.2900   10.8900    9.5700 O.3       1 SER1        0.0000 
      2 OG         11.7200    9.4800    9.8800 O.3       1 SER1        0.0000 
      3 OG         12.1600    8.0800   10.1800 O.3       1 SER1        0.0000 
      4 OG         12.2800   11.4100   10.5700 O.3       1 SER1        0.0000 
      5 OG         12.7100   10.0100   10.8800 O.3       1 SER1        0.0000 
      6 N           7.2800    9.2400    7.6400 N.am      2 ALA2        0.0000 
      7 N           7.7200    7.8300    7.9500 N.am      2 ALA2        0.0000 
      8 N           9.6200    5.1200    7.4700 N.am      2 ALA2        0.0000 
      9 N          10.9100   11.8600    7.1900 N.am      2 ALA2        0.0000 
     10 O          12.7700    9.5800    8.8000 O.2       2 ALA2        0.0000 
     11 CZ          6.9000   10.2100    5.2600 C.ar      3 PHE5        0.0000 
     12 CZ          5.3800   11.9600    8.1100 C.ar      3 PHE5        0.0000 
     13 CZ          6.2400    9.1500    8.7200 C.ar      3 PHE5        0.0000 
     14 CZ          5.9800   13.4500    6.7400 C.ar      3 PHE5        0.0000 
     15 CZ          6.4200   12.0500    7.0400 C.ar      3 PHE5        0.0000 
     16 CZ          6.8500   10.6400    7.3400 C.ar      3 PHE5        0.0000 
     17 CZ          6.3600   12.4800    9.1200 C.ar      3 PHE5        0.0000 
     18 CZ          6.8000   11.0700    9.4200 C.ar      3 PHE5        0.0000 
     19 CZ          7.2300    9.6700    9.7200 C.ar      3 PHE5        0.0000 
     20 CZ         10.6100    5.6400    8.4800 C.ar      3 PHE5        0.0000 
     21 CZ         10.5600    6.0700   10.5500 C.ar      3 PHE5        0.0000 
     22 CZ         11.1700    7.5600    9.1800 C.ar      3 PHE5        0.0000 
     23 CZ         11.6000    6.1600    9.4800 C.ar      3 PHE5        0.0000 
     24 CZ         12.2100    7.6500    8.1000 C.ar      3 PHE5        0.0000 
     25 CZ         10.0700    7.9000   12.3300 C.ar      3 PHE5        0.0000 
     26 CZ         12.5900    6.6800   10.4800 C.ar      3 PHE5        0.0000 
     27 CA          6.6700    7.7400    9.0200 C.3       4 GLY6        0.0000 
     28 CA          7.1100    6.3400    9.3200 C.3       4 GLY6        0.0000 
     29 CA          8.1500    6.4300    8.2500 C.3       4 GLY6        0.0000 
     30 CA          8.5800    5.0300    8.5500 C.3       4 GLY6        0.0000 
     31 CA          7.4600   12.1400    5.9600 C.3       4 GLY6        0.0000 
     32 CA          7.8900   10.7300    6.2700 C.3       4 GLY6        0.0000 
     33 CA          8.3300    9.3300    6.5700 C.3       4 GLY6        0.0000 
     34 CA          8.7600    7.9200    6.8700 C.3       4 GLY6        0.0000 
     35 CA          9.1900    6.5200    7.1700 C.3       4 GLY6        0.0000 
     36 CA          8.1000    6.8600   10.3200 C.3       4 GLY6        0.0000 
     37 CA          9.5700    5.5500    9.5500 C.3       4 GLY6        0.0000 
     38 CA          8.4500   12.6600    6.9700 C.3       4 GLY6        0.0000 
     39 CA          8.8800   11.2500    7.2700 C.3       4 GLY6        0.0000 
     40 CA          9.7500    8.4400    7.8700 C.3       4 GLY6        0.0000 
     41 CA         10.1800    7.0400    8.1700 C.3       4 GLY6        0.0000 
     42 CA          9.9200   11.3400    6.1900 C.3       4 GLY6        0.0000 
     43 CA         10.3600    9.9400    6.4900 C.3       4 GLY6        0.0000 
     44 CA         10.7900    8.5300    6.8000 C.3       4 GLY6        0.0000 
     45 CA         11.3400   10.4600    7.5000 C.3       4 GLY6        0.0000 
     46 CA         11.7800    9.0500    7.8000 C.3       4 GLY6        0.0000 
     47 CA         11.1100    7.9900   11.2500 C.3       4 GLY6        0.0000 
     48 CA         11.5500    6.5900   11.5500 C.3       4 GLY6        0.0000 
     49 CA         13.2000    8.1700    9.1000 C.3       4 GLY6        0.0000 
     50 CA         11.6700    9.9100   11.9500 C.3       4 GLY6        0.0000 
     51 CA         12.5300    7.1100   12.5600 C.3       4 GLY6        0.0000 
     52 DU          7.6600    8.2600   10.0200 H         5 CUB7        0.0000 
     53 DU          7.4100   12.5700    8.0400 H         5 CUB7        0.0000 
     54 DU          7.8400   11.1600    8.3400 H         5 CUB7        0.0000 
     55 DU          8.2700    9.7600    8.6500 H         5 CUB7        0.0000 
     56 DU          8.7000    8.3500    8.9500 H         5 CUB7        0.0000 
     57 DU          9.1400    6.9500    9.2500 H         5 CUB7        0.0000 
     58 DU          9.3100    9.8500    7.5700 H         5 CUB7        0.0000 
     59 DU          7.3500   13.0000   10.1200 H         5 CUB7        0.0000 
     60 DU          7.7800   11.5900   10.4200 H         5 CUB7        0.0000 
     61 DU          8.2200   10.1900   10.7200 H         5 CUB7        0.0000 
     62 DU          8.6500    8.7800   11.0200 H         5 CUB7        0.0000 
     63 DU          9.0800    7.3800   11.3300 H         5 CUB7        0.0000 
     64 DU         10.1300    7.4700   10.2500 H         5 CUB7        0.0000 
     65 DU          9.8700   11.7700    8.2700 H         5 CUB7        0.0000 
     66 DU         10.3000   10.3700    8.5700 H         5 CUB7        0.0000 
     67 DU         10.7300    8.9600    8.8700 H         5 CUB7        0.0000 
     68 DU          8.7700   12.1100   11.4200 H         5 CUB7        0.0000 
     69 DU          9.2100   10.7100   11.7200 H         5 CUB7        0.0000 
     70 DU          9.6400    9.3000   12.0300 H         5 CUB7        0.0000 
     71 DU         10.2500   10.8000   10.6500 H         5 CUB7        0.0000 
     72 DU         10.6800    9.3900   10.9500 H         5 CUB7        0.0000 
     73 DU         10.8600   12.2900    9.2700 H         5 CUB7        0.0000 
     74 DU         10.8000   12.7200   11.3500 H         5 CUB7        0.0000 
     75 DU         11.2400   11.3200   11.6500 H         5 CUB7        0.0000 
@<TRIPOS>BOND
@<TRIPOS>SUBSTRUCTURE
     1 SER1        1 GROUP   
     2 ALA2        6 GROUP   
     3 PHE5       11 GROUP   
     4 GLY6       27 GROUP   
     5 CUB7       52 GROUP   
@<TRIPOS>SET

