#    Name: 6ekx_2_1NP
#    Modification time : Fri May 22 19:28:10 2020

@<TRIPOS>MOLECULE
6ekx_2_1NP
   11    12     1     0     0
SMALL
NO_CHARGES


@<TRIPOS>ATOM
      1 O1          8.8330   12.7270    7.3250 Du        1 1NP414      0.0000 
      2 C1          8.7420   11.3680    7.3030 C.ar      1 1NP414      0.0000 
      3 C8A         9.7920   10.5260    7.9320 C.ar      1 1NP414      0.0000 
      4 C8         10.9000   11.0730    8.5640 C.ar      1 1NP414      0.0000 
      5 C7         11.8460   10.2260    9.1330 C.ar      1 1NP414      0.0000 
      6 C2          7.6640   10.7390    6.6900 C.ar      1 1NP414      0.0000 
      7 C3          7.5630    9.3470    6.6620 C.ar      1 1NP414      0.0000 
      8 C4          8.5240    8.5170    7.2390 C.ar      1 1NP414      0.0000 
      9 C4A         9.6360    9.0550    7.8740 C.ar      1 1NP414      0.0000 
     10 C5         10.6060    8.2500    8.4560 C.ar      1 1NP414      0.0000 
     11 C6         11.7010    8.8400    9.0800 C.ar      1 1NP414      0.0000 
@<TRIPOS>BOND
     1    1    2 du   
     2    2    3 ar   
     3    2    6 ar   
     4    3    4 ar   
     5    3    9 ar   
     6    4    5 ar   
     7    5   11 ar   
     8    6    7 ar   
     9    7    8 ar   
    10    8    9 ar   
    11    9   10 ar   
    12   10   11 ar   
@<TRIPOS>SUBSTRUCTURE
     1 1NP414      1 GROUP   
@<TRIPOS>SET

