#    Name: 5z2x_2_NAP
#    Modification time : Fri May 22 19:34:07 2020

@<TRIPOS>MOLECULE
5z2x_2_NAP
   48    52     1     0     1
SMALL
NO_CHARGES


@<TRIPOS>ATOM
      1 PA          3.1250  145.5770   -3.0920 P.3       1 NAP401      0.0000 
      2 O1A         4.4710  144.9270   -3.3390 O.co2     1 NAP401      0.0000 
      3 O2A         2.8410  146.6630   -4.0920 O.co2     1 NAP401      0.0000 
      4 O5B         2.9730  146.1540   -1.5680 O.3       1 NAP401      0.0000 
      5 C5B         3.5360  145.4530   -0.4970 C.3       1 NAP401      0.0000 
      6 C4B         3.6020  146.4740    0.6810 C.3       1 NAP401      0.0000 
      7 O4B         4.0010  145.8990    1.8000 O.3       1 NAP401      0.0000 
      8 C3B         4.6690  147.5280    0.3570 C.3       1 NAP401      0.0000 
      9 O3B         4.3710  148.7120    0.9640 O.3       1 NAP401      0.0000 
     10 C2B         5.9090  146.8670    0.9930 C.3       1 NAP401      0.0000 
     11 O2B         6.9340  147.9070    1.2040 O.3       1 NAP401      0.0000 
     12 C1B         5.4780  146.4130    2.1470 C.3       1 NAP401      0.0000 
     13 N9A         6.2300  145.2660    2.5770 N.pl3     1 NAP401      0.0000 
     14 C8A         6.3430  144.0190    2.1060 C.2       1 NAP401      0.0000 
     15 N7A         7.1780  143.3450    2.8910 N.2       1 NAP401      0.0000 
     16 C5A         7.5890  144.1790    3.8600 C.ar      1 NAP401      0.0000 
     17 C6A         8.4420  143.9830    4.9240 C.ar      1 NAP401      0.0000 
     18 N6A         9.1460  142.7420    5.2240 N.pl3     1 NAP401      0.0000 
     19 N1A         8.6910  144.9740    5.7740 N.ar      1 NAP401      0.0000 
     20 C2A         8.0950  146.1820    5.5880 C.ar      1 NAP401      0.0000 
     21 N3A         7.2470  146.3730    4.5440 N.ar      1 NAP401      0.0000 
     22 C4A         7.0000  145.3680    3.6760 C.ar      1 NAP401      0.0000 
     23 O3          2.0670  144.3560   -3.2570 O.3       1 NAP401      0.0000 
     24 PN          0.4290  144.4560   -3.1900 P.3       1 NAP401      0.0000 
     25 O1N        -0.0590  143.7030   -4.3990 O.co2     1 NAP401      0.0000 
     26 O2N        -0.0670  145.8570   -3.1100 O.co2     1 NAP401      0.0000 
     27 O5D         0.0480  143.6230   -1.8290 O.3       1 NAP401      0.0000 
     28 C5D        -0.3070  144.2980   -0.6510 C.3       1 NAP401      0.0000 
     29 C4D        -1.0950  143.3090    0.2540 C.3       1 NAP401      0.0000 
     30 O4D        -2.0890  142.7730   -0.4430 O.3       1 NAP401      0.0000 
     31 C3D        -0.1820  142.1470    0.7150 C.3       1 NAP401      0.0000 
     32 O3D        -0.5000  141.7250    1.9820 O.3       1 NAP401      0.0000 
     33 C2D        -0.5970  141.0670   -0.2950 C.3       1 NAP401      0.0000 
     34 O2D        -0.1800  139.7420    0.2080 O.3       1 NAP401      0.0000 
     35 C1D        -1.9100  141.1930   -0.3770 C.3       1 NAP401      0.0000 
     36 N1N        -2.5130  140.5890   -1.5560 N.pl3     1 NAP401      0.0000 
     37 C2N        -2.1750  140.9680   -2.8240 C.ar      1 NAP401      0.0000 
     38 C3N        -2.7990  140.3400   -3.9180 C.ar      1 NAP401      0.0000 
     39 C7N        -2.4360  140.7100   -5.3620 C.2       1 NAP401      0.0000 
     40 O7N        -2.8450  140.0360   -6.2660 O.2       1 NAP401      0.0000 
     41 N7N        -1.5600  141.8400   -5.6200 N.am      1 NAP401      0.0000 
     42 C4N        -3.7240  139.3610   -3.7190 C.ar      1 NAP401      0.0000 
     43 C5N        -4.0520  138.9910   -2.4590 C.ar      1 NAP401      0.0000 
     44 C6N        -3.4430  139.6130   -1.3750 C.ar      1 NAP401      0.0000 
     45 P2B         8.2680  147.9210    0.2280 P.3       1 NAP401      0.0000 
     46 O1X         7.8780  147.9880   -1.2210 O.co2     1 NAP401      0.0000 
     47 O2X         9.0460  149.1580    0.6070 O.co2     1 NAP401      0.0000 
     48 O3X         9.0610  146.6650    0.4740 O.co2     1 NAP401      0.0000 
@<TRIPOS>BOND
     1    1    2 ar   
     2    1    3 ar   
     3    1    4 1    
     4    1   23 1    
     5    4    5 1    
     6    5    6 1    
     7    6    7 1    
     8    6    8 1    
     9    7   12 1    
    10    8    9 1    
    11    8   10 1    
    12   10   11 1    
    13   10   12 1    
    14   11   45 1    
    15   12   13 1    
    16   13   14 1    
    17   13   22 1    
    18   14   15 2    
    19   15   16 1    
    20   16   17 ar   
    21   16   22 ar   
    22   17   18 1    
    23   17   19 ar   
    24   19   20 ar   
    25   20   21 ar   
    26   21   22 ar   
    27   23   24 1    
    28   24   25 ar   
    29   24   26 ar   
    30   24   27 1    
    31   27   28 1    
    32   28   29 1    
    33   29   30 1    
    34   29   31 1    
    35   30   35 1    
    36   31   32 1    
    37   31   33 1    
    38   33   34 1    
    39   33   35 1    
    40   35   36 1    
    41   36   37 ar   
    42   36   44 ar   
    43   37   38 ar   
    44   38   39 1    
    45   38   42 ar   
    46   39   40 2    
    47   39   41 am   
    48   42   43 ar   
    49   43   44 ar   
    50   45   46 ar   
    51   45   47 ar   
    52   45   48 ar   
@<TRIPOS>SUBSTRUCTURE
     1 NAP401      1 GROUP   
@<TRIPOS>SET
ATOM$ORANGE STATIC     ATOMS   COLORGROUP SYSTEM 
42 5 5 6 6 8 8 10 10 12 12 14 14 16 16 17 17 20 \
20 22 22 28 28 29 29 31 31 33 33 35 35 37 37 38 38 39 \
39 42 42 43 43 44 44 

