#    Name: 6r7p_2_FMN
#    Modification time : Fri May 22 19:24:11 2020

@<TRIPOS>MOLECULE
6r7p_2_FMN
   31    33     1     0     1
SMALL
NO_CHARGES


@<TRIPOS>ATOM
      1 N1         -8.8260  -11.9690  -14.5720 N.2       1 FMN502      0.0000 
      2 C2         -8.5840  -11.0290  -15.5400 C.2       1 FMN502      0.0000 
      3 O2         -9.0580  -11.1410  -16.6810 O.2       1 FMN502      0.0000 
      4 N3         -7.8160   -9.9030  -15.2310 N.am      1 FMN502      0.0000 
      5 C4         -7.2620   -9.6090  -13.9950 C.2       1 FMN502      0.0000 
      6 O4         -6.5680   -8.6010  -13.8410 O.2       1 FMN502      0.0000 
      7 C4A        -7.5570  -10.5970  -12.9630 C.2       1 FMN502      0.0000 
      8 N5         -7.1510  -10.3590  -11.7490 N.2       1 FMN502      0.0000 
      9 C5A        -7.5010  -11.2620  -10.7560 C.ar      1 FMN502      0.0000 
     10 C6         -7.1330  -10.9750   -9.4410 C.ar      1 FMN502      0.0000 
     11 C7         -7.4480  -11.8380   -8.3990 C.ar      1 FMN502      0.0000 
     12 C7M        -6.9940  -11.4970   -7.0040 C.3       1 FMN502      0.0000 
     13 C8         -8.1560  -13.0270   -8.6740 C.ar      1 FMN502      0.0000 
     14 C8M        -8.4490  -14.0340   -7.5880 C.3       1 FMN502      0.0000 
     15 C9         -8.5400  -13.3060   -9.9810 C.ar      1 FMN502      0.0000 
     16 C9A        -8.2300  -12.4360  -11.0260 C.ar      1 FMN502      0.0000 
     17 N10        -8.6440  -12.6740  -12.3660 N.pl3     1 FMN502      0.0000 
     18 C10        -8.3420  -11.7590  -13.3530 C.2       1 FMN502      0.0000 
     19 C1'        -9.3640  -13.9160  -12.7000 C.3       1 FMN502      0.0000 
     20 C2'       -10.8580  -13.8440  -12.3980 C.3       1 FMN502      0.0000 
     21 O2'       -11.1330  -14.2350  -11.0510 O.3       1 FMN502      0.0000 
     22 C3'       -11.6440  -14.7620  -13.3350 C.3       1 FMN502      0.0000 
     23 O3'       -10.9930  -16.0300  -13.3760 O.3       1 FMN502      0.0000 
     24 C4'       -11.8050  -14.2280  -14.7600 C.3       1 FMN502      0.0000 
     25 O4'       -12.2090  -12.8580  -14.7430 O.3       1 FMN502      0.0000 
     26 C5'       -12.7960  -15.0380  -15.5630 C.3       1 FMN502      0.0000 
     27 O5'       -12.4220  -14.9790  -16.9530 O.3       1 FMN502      0.0000 
     28 P         -12.2500  -16.3450  -17.7600 P.3       1 FMN502      0.0000 
     29 O1P       -10.9880  -16.9800  -17.3800 O.co2     1 FMN502      0.0000 
     30 O2P       -13.4860  -17.2010  -17.4990 O.co2     1 FMN502      0.0000 
     31 O3P       -12.2830  -15.9320  -19.1880 O.co2     1 FMN502      0.0000 
@<TRIPOS>BOND
     1    1    2 1    
     2    1   18 2    
     3    2    3 2    
     4    2    4 am   
     5    4    5 am   
     6    5    6 2    
     7    5    7 1    
     8    7    8 2    
     9    7   18 1    
    10    8    9 1    
    11    9   10 ar   
    12    9   16 ar   
    13   10   11 ar   
    14   11   12 1    
    15   11   13 ar   
    16   13   14 1    
    17   13   15 ar   
    18   15   16 ar   
    19   16   17 1    
    20   17   18 1    
    21   17   19 1    
    22   19   20 1    
    23   20   21 1    
    24   20   22 1    
    25   22   23 1    
    26   22   24 1    
    27   24   25 1    
    28   24   26 1    
    29   26   27 1    
    30   27   28 1    
    31   28   29 ar   
    32   28   30 ar   
    33   28   31 ar   
@<TRIPOS>SUBSTRUCTURE
     1 FMN502      1 GROUP   
@<TRIPOS>SET
ATOM$ORANGE STATIC     ATOMS   COLORGROUP SYSTEM 
34 2 2 5 5 7 7 9 9 10 10 11 11 12 12 13 13 14 \
14 15 15 16 16 18 18 19 19 20 20 22 22 24 24 26 26 

