#    Name: 6r7p_1_FMN
#    Modification time : Fri May 22 19:24:07 2020

@<TRIPOS>MOLECULE
6r7p_1_FMN
   31    33     1     0     1
SMALL
NO_CHARGES


@<TRIPOS>ATOM
      1 N1         22.6750   12.5730  -57.1160 N.2       1 FMN502      0.0000 
      2 C2         22.9460   11.7080  -56.0990 C.2       1 FMN502      0.0000 
      3 O2         22.5620   11.9380  -54.9490 O.2       1 FMN502      0.0000 
      4 N3         23.6600   10.5290  -56.3540 N.am      1 FMN502      0.0000 
      5 C4         24.1370   10.1180  -57.5880 C.2       1 FMN502      0.0000 
      6 O4         24.7590    9.0570  -57.7040 O.2       1 FMN502      0.0000 
      7 C4A        23.8360   11.0530  -58.6710 C.2       1 FMN502      0.0000 
      8 N5         24.2350   10.7520  -59.8730 N.2       1 FMN502      0.0000 
      9 C5A        23.9460   11.6450  -60.8980 C.ar      1 FMN502      0.0000 
     10 C6         24.3510   11.3200  -62.1930 C.ar      1 FMN502      0.0000 
     11 C7         24.1030   12.1740  -63.2590 C.ar      1 FMN502      0.0000 
     12 C7M        24.5850   11.7860  -64.6300 C.3       1 FMN502      0.0000 
     13 C8         23.4240   13.3890  -63.0330 C.ar      1 FMN502      0.0000 
     14 C8M        23.1700   14.3680  -64.1500 C.3       1 FMN502      0.0000 
     15 C9         23.0080   13.7100  -61.7450 C.ar      1 FMN502      0.0000 
     16 C9A        23.2590   12.8540  -60.6740 C.ar      1 FMN502      0.0000 
     17 N10        22.8370   13.1490  -59.3490 N.pl3     1 FMN502      0.0000 
     18 C10        23.1030   12.2630  -58.3290 C.2       1 FMN502      0.0000 
     19 C1'        22.1100   14.3960  -59.0640 C.3       1 FMN502      0.0000 
     20 C2'        20.6070   14.2660  -59.2940 C.3       1 FMN502      0.0000 
     21 O2'        20.2630   14.6010  -60.6410 O.3       1 FMN502      0.0000 
     22 C3'        19.8270   15.1600  -58.3280 C.3       1 FMN502      0.0000 
     23 O3'        20.4490   16.4410  -58.2740 O.3       1 FMN502      0.0000 
     24 C4'        19.7250   14.6170  -56.9020 C.3       1 FMN502      0.0000 
     25 O4'        19.3430   13.2430  -56.9230 O.3       1 FMN502      0.0000 
     26 C5'        18.7430   15.3980  -56.0600 C.3       1 FMN502      0.0000 
     27 O5'        19.1130   15.2630  -54.6740 O.3       1 FMN502      0.0000 
     28 P          19.4590   16.5940  -53.8620 P.3       1 FMN502      0.0000 
     29 O1P        20.7440   17.1960  -54.3850 O.co2     1 FMN502      0.0000 
     30 O2P        18.2390   17.5010  -53.9800 O.co2     1 FMN502      0.0000 
     31 O3P        19.5270   16.1650  -52.4250 O.co2     1 FMN502      0.0000 
@<TRIPOS>BOND
     1    1    2 1    
     2    1   18 2    
     3    2    3 2    
     4    2    4 am   
     5    4    5 am   
     6    5    6 2    
     7    5    7 1    
     8    7    8 2    
     9    7   18 1    
    10    8    9 1    
    11    9   10 ar   
    12    9   16 ar   
    13   10   11 ar   
    14   11   12 1    
    15   11   13 ar   
    16   13   14 1    
    17   13   15 ar   
    18   15   16 ar   
    19   16   17 1    
    20   17   18 1    
    21   17   19 1    
    22   19   20 1    
    23   20   21 1    
    24   20   22 1    
    25   22   23 1    
    26   22   24 1    
    27   24   25 1    
    28   24   26 1    
    29   26   27 1    
    30   27   28 1    
    31   28   29 ar   
    32   28   30 ar   
    33   28   31 ar   
@<TRIPOS>SUBSTRUCTURE
     1 FMN502      1 GROUP   
@<TRIPOS>SET
ATOM$ORANGE STATIC     ATOMS   COLORGROUP SYSTEM 
34 2 2 5 5 7 7 9 9 10 10 11 11 12 12 13 13 14 \
14 15 15 16 16 18 18 19 19 20 20 22 22 24 24 26 26 

