#    Name: 6r3q_1_GSP
#    Modification time : Fri May 22 19:28:02 2020

@<TRIPOS>MOLECULE
6r3q_1_GSP
   32    34     1     0     0
SMALL
NO_CHARGES


@<TRIPOS>ATOM
      1 PG         54.3110  159.1790  125.6740 P.3       1 GSP501      0.0000 
      2 O3B        54.0360  160.4180  126.6230 O.3       1 GSP501      0.0000 
      3 S1G        53.0410  158.9360  124.5870 S.2       1 GSP501      0.0000 
      4 O2G        55.6300  159.5140  124.9930 O.3       1 GSP501      0.0000 
      5 O3G        54.5030  157.9230  126.5140 O.3       1 GSP501      0.0000 
      6 PB         55.3550  160.9510  127.3280 P.3       1 GSP501      0.0000 
      7 O1B        56.0600  159.7990  127.8910 O.co2     1 GSP501      0.0000 
      8 O2B        56.1890  161.6350  126.3380 O.co2     1 GSP501      0.0000 
      9 PA         54.9780  163.5000  128.2040 P.3       1 GSP501      0.0000 
     10 O1A        56.3820  163.9070  128.2870 O.co2     1 GSP501      0.0000 
     11 O2A        54.3880  163.8230  126.9040 O.co2     1 GSP501      0.0000 
     12 O3A        54.8640  161.9400  128.4780 O.3       1 GSP501      0.0000 
     13 O5'        54.1620  164.1430  129.4100 O.3       1 GSP501      0.0000 
     14 C5'        52.8000  163.8340  129.5090 C.3       1 GSP501      0.0000 
     15 C4'        52.0750  164.8360  130.3910 C.3       1 GSP501      0.0000 
     16 O4'        52.4910  164.6960  131.7260 O.3       1 GSP501      0.0000 
     17 C3'        52.3590  166.2640  130.0120 C.3       1 GSP501      0.0000 
     18 O3'        51.1450  166.9480  130.0910 O.3       1 GSP501      0.0000 
     19 C2'        53.2040  166.8130  131.1140 C.3       1 GSP501      0.0000 
     20 O2'        52.8210  168.1320  131.3620 O.3       1 GSP501      0.0000 
     21 C1'        52.7920  165.9530  132.2720 C.3       1 GSP501      0.0000 
     22 N9         53.9020  165.8340  133.2110 N.pl3     1 GSP501      0.0000 
     23 C8         55.0580  165.1450  133.0050 C.2       1 GSP501      0.0000 
     24 N7         55.8280  165.2770  134.0980 N.2       1 GSP501      0.0000 
     25 C5         55.1760  166.0430  134.9850 C.2       1 GSP501      0.0000 
     26 C6         55.5130  166.4830  136.2400 C.2       1 GSP501      0.0000 
     27 O6         56.5920  166.1700  136.7230 O.2       1 GSP501      0.0000 
     28 N1         54.6480  167.2650  136.9500 N.am      1 GSP501      0.0000 
     29 C2         53.4510  167.6110  136.3980 C.2       1 GSP501      0.0000 
     30 N2         52.6160  168.3700  137.0840 N.pl3     1 GSP501      0.0000 
     31 N3         53.1150  167.1750  135.1430 N.2       1 GSP501      0.0000 
     32 C4         53.9650  166.3980  134.4470 C.2       1 GSP501      0.0000 
@<TRIPOS>BOND
     1    1    2 1    
     2    1    3 2    
     3    1    4 1    
     4    1    5 1    
     5    2    6 1    
     6    6    7 ar   
     7    6    8 ar   
     8    6   12 1    
     9    9   10 ar   
    10    9   11 ar   
    11    9   12 1    
    12    9   13 1    
    13   13   14 1    
    14   14   15 1    
    15   15   16 1    
    16   15   17 1    
    17   16   21 1    
    18   17   18 1    
    19   17   19 1    
    20   19   20 1    
    21   19   21 1    
    22   21   22 1    
    23   22   23 1    
    24   22   32 1    
    25   23   24 2    
    26   24   25 1    
    27   25   26 1    
    28   25   32 2    
    29   26   27 2    
    30   26   28 am   
    31   28   29 1    
    32   29   30 1    
    33   29   31 2    
    34   31   32 1    
@<TRIPOS>SUBSTRUCTURE
     1 GSP501      1 GROUP   
@<TRIPOS>SET

