#    Name: 6cjl_2_RDC
#    Modification time : Fri May 22 19:25:15 2020

@<TRIPOS>MOLECULE
6cjl_2_RDC
   42    44     1     0     0
SMALL
NO_CHARGES


@<TRIPOS>ATOM
      1 C1         53.7520   71.7340  109.0700 C.2       1 RDC301      0.0000 
      2 C2         53.6740   70.7010  108.0040 C.ar      1 RDC301      0.0000 
      3 C3         52.7750   69.5390  108.1680 C.ar      1 RDC301      0.0000 
      4 C4         52.6980   68.5500  107.1990 C.ar      1 RDC301      0.0000 
      5 C5         53.4530   68.6110  106.0390 C.ar      1 RDC301      0.0000 
      6 C6         54.3780   69.7370  105.7930 C.ar      1 RDC301      0.0000 
      7 C7         54.5180   70.8220  106.7890 C.ar      1 RDC301      0.0000 
      8 C8         55.4680   71.9990  106.5840 C.3       1 RDC301      0.0000 
      9 C9         56.8590   71.5720  106.1430 C.2       1 RDC301      0.0000 
     10 C10        57.7840   70.7590  106.9680 C.2       1 RDC301      0.0000 
     11 C11        57.5150   70.3750  108.2180 C.2       1 RDC301      0.0000 
     12 C12        58.5260   69.6230  108.9680 C.2       1 RDC301      0.0000 
     13 C13        58.3970   69.3770  110.2750 C.2       1 RDC301      0.0000 
     14 C14        57.1780   69.8120  111.0410 C.3       1 RDC301      0.0000 
     15 C15        57.1500   71.3300  111.3050 C.3       1 RDC301      0.0000 
     16 C16        55.9450   72.1310  111.7590 C.3       1 RDC301      0.0000 
     17 C17        55.2960   72.8880  110.6090 C.3       1 RDC301      0.0000 
     18 C18        56.1730   73.9910  110.0410 C.3       1 RDC301      0.0000 
     19 O1         55.0830   71.9300  109.5900 O.3       1 RDC301      0.0000 
     20 O2         52.7840   72.3450  109.4800 O.2       1 RDC301      0.0000 
     21 O3         52.0120   69.4300  109.2890 O.co2     1 RDC301      0.0000 
     22 O4         53.3410   67.6200  105.1170 O.3       1 RDC301      0.0000 
     23 CL1        55.3160   69.7580  104.2780 Cl        1 RDC301      0.0000 
     24 O5         57.2380   71.9220  105.0380 O.2       1 RDC301      0.0000 
     25 O6         57.5040   70.3640  112.3190 O.3       1 RDC301      0.0000 
     26 H4         52.0320   67.7090  107.3540 H         1 RDC301      0.0000 
     27 H81        55.5480   72.5570  107.5190 H         1 RDC301      0.0000 
     28 H82        55.0470   72.6670  105.8290 H         1 RDC301      0.0000 
     29 H10        58.7250   70.4620  106.5350 H         1 RDC301      0.0000 
     30 H11        56.5680   70.6160  108.6700 H         1 RDC301      0.0000 
     31 H12        59.3970   69.2580  108.4510 H         1 RDC301      0.0000 
     32 H13        59.1840   68.8540  110.7920 H         1 RDC301      0.0000 
     33 H14        56.2250   69.2890  110.8760 H         1 RDC301      0.0000 
     34 H15        57.8330   71.8510  110.6200 H         1 RDC301      0.0000 
     35 H161       55.2110   71.4550  112.2040 H         1 RDC301      0.0000 
     36 H162       56.2550   72.8420  112.5280 H         1 RDC301      0.0000 
     37 H17        54.3760   73.3680  110.9700 H         1 RDC301      0.0000 
     38 H181       57.0240   73.5640  109.5790 H         1 RDC301      0.0000 
     39 H182       56.4820   74.6350  110.8240 H         1 RDC301      0.0000 
     40 H183       55.6230   74.5460  109.3250 H         1 RDC301      0.0000 
     41 HO3        51.4920   70.2380  109.4050 H         1 RDC301      0.0000 
     42 HO4        54.0150   66.9480  105.2830 H         1 RDC301      0.0000 
@<TRIPOS>BOND
     1    1    2 1    
     2    1   19 1    
     3    1   20 2    
     4    2    3 ar   
     5    2    7 ar   
     6    3    4 ar   
     7    3   21 ar   
     8    4    5 ar   
     9    4   26 1    
    10    5    6 ar   
    11    5   22 1    
    12    6    7 ar   
    13    6   23 1    
    14    7    8 1    
    15    8    9 1    
    16    8   27 1    
    17    8   28 1    
    18    9   10 1    
    19    9   24 2    
    20   10   11 2    
    21   10   29 1    
    22   11   12 1    
    23   11   30 1    
    24   12   13 2    
    25   12   31 1    
    26   13   14 1    
    27   13   32 1    
    28   14   15 1    
    29   14   25 1    
    30   14   33 1    
    31   15   16 1    
    32   15   25 1    
    33   15   34 1    
    34   16   17 1    
    35   16   35 1    
    36   16   36 1    
    37   17   18 1    
    38   17   19 1    
    39   17   37 1    
    40   18   38 1    
    41   18   39 1    
    42   18   40 1    
    43   21   41 1    
    44   22   42 1    
@<TRIPOS>SUBSTRUCTURE
     1 RDC301      1 GROUP   
@<TRIPOS>SET

