#    Name: 6cjl_1_RDC
#    Modification time : Fri May 22 19:25:11 2020

@<TRIPOS>MOLECULE
6cjl_1_RDC
   42    44     1     0     0
SMALL
NO_CHARGES


@<TRIPOS>ATOM
      1 C1         17.4590   70.9000   97.9700 C.2       1 RDC301      0.0000 
      2 C2         17.5730   70.1510   99.2560 C.ar      1 RDC301      0.0000 
      3 C3         18.4450   68.9550   99.3250 C.ar      1 RDC301      0.0000 
      4 C4         18.5610   68.2210  100.4940 C.ar      1 RDC301      0.0000 
      5 C5         17.8790   68.5780  101.6450 C.ar      1 RDC301      0.0000 
      6 C6         16.9890   69.7520  101.6660 C.ar      1 RDC301      0.0000 
      7 C7         16.8090   70.5800  100.4610 C.ar      1 RDC301      0.0000 
      8 C8         15.8900   71.7950  100.4600 C.3       1 RDC301      0.0000 
      9 C9         14.5280   71.4830  101.0500 C.2       1 RDC301      0.0000 
     10 C10        13.6000   70.4890  100.4700 C.2       1 RDC301      0.0000 
     11 C11        13.8690   69.8430   99.3320 C.2       1 RDC301      0.0000 
     12 C12        12.8930   68.9130   98.7650 C.2       1 RDC301      0.0000 
     13 C13        13.0500   68.4110   97.5370 C.2       1 RDC301      0.0000 
     14 C14        14.2710   68.7240   96.7110 C.3       1 RDC301      0.0000 
     15 C15        14.1980   70.0450   95.9210 C.3       1 RDC301      0.0000 
     16 C16        15.4030   70.7430   95.3270 C.3       1 RDC301      0.0000 
     17 C17        15.9370   71.8040   96.2670 C.3       1 RDC301      0.0000 
     18 C18        14.9510   72.9410   96.4670 C.3       1 RDC301      0.0000 
     19 O1         16.1190   71.2160   97.5380 O.3       1 RDC301      0.0000 
     20 O2         18.4280   71.2160   97.3130 O.2       1 RDC301      0.0000 
     21 O3         19.1390   68.5540   98.2300 O.co2     1 RDC301      0.0000 
     22 O4         18.0200   67.8290  102.7660 O.3       1 RDC301      0.0000 
     23 CL1        16.1570   70.1470  103.1790 Cl        1 RDC301      0.0000 
     24 O5         14.1860   72.0790  102.0570 O.2       1 RDC301      0.0000 
     25 O6         14.0060   68.7530   95.3050 O.3       1 RDC301      0.0000 
     26 H4         19.2000   67.3460  100.5080 H         1 RDC301      0.0000 
     27 H81        15.7640   72.1480   99.4340 H         1 RDC301      0.0000 
     28 H82        16.3550   72.5970  101.0360 H         1 RDC301      0.0000 
     29 H10        12.6760   70.2780  100.9810 H         1 RDC301      0.0000 
     30 H11        14.8080   70.0080   98.8300 H         1 RDC301      0.0000 
     31 H12        12.0330   68.6280   99.3470 H         1 RDC301      0.0000 
     32 H13        12.2880   67.7680   97.1290 H         1 RDC301      0.0000 
     33 H14        15.2550   68.4220   97.0990 H         1 RDC301      0.0000 
     34 H15        13.4010   70.7030   96.2950 H         1 RDC301      0.0000 
     35 H161       15.1250   71.2060   94.3780 H         1 RDC301      0.0000 
     36 H162       16.1860   70.0090   95.1260 H         1 RDC301      0.0000 
     37 H17        16.8690   72.1930   95.8330 H         1 RDC301      0.0000 
     38 H181       14.6190   73.2900   95.5240 H         1 RDC301      0.0000 
     39 H182       15.4250   73.7310   96.9900 H         1 RDC301      0.0000 
     40 H183       14.1220   72.5940   97.0270 H         1 RDC301      0.0000 
     41 HO3        19.7590   69.2490   97.9690 H         1 RDC301      0.0000 
     42 HO4        18.8980   67.9750  103.1440 H         1 RDC301      0.0000 
@<TRIPOS>BOND
     1    1    2 1    
     2    1   19 1    
     3    1   20 2    
     4    2    3 ar   
     5    2    7 ar   
     6    3    4 ar   
     7    3   21 ar   
     8    4    5 ar   
     9    4   26 1    
    10    5    6 ar   
    11    5   22 1    
    12    6    7 ar   
    13    6   23 1    
    14    7    8 1    
    15    8    9 1    
    16    8   27 1    
    17    8   28 1    
    18    9   10 1    
    19    9   24 2    
    20   10   11 2    
    21   10   29 1    
    22   11   12 1    
    23   11   30 1    
    24   12   13 2    
    25   12   31 1    
    26   13   14 1    
    27   13   32 1    
    28   14   15 1    
    29   14   25 1    
    30   14   33 1    
    31   15   16 1    
    32   15   25 1    
    33   15   34 1    
    34   16   17 1    
    35   16   35 1    
    36   16   36 1    
    37   17   18 1    
    38   17   19 1    
    39   17   37 1    
    40   18   38 1    
    41   18   39 1    
    42   18   40 1    
    43   21   41 1    
    44   22   42 1    
@<TRIPOS>SUBSTRUCTURE
     1 RDC301      1 GROUP   
@<TRIPOS>SET

