#    Name: 5umw_1_RBF
#    Modification time : Fri May 22 19:14:17 2020

@<TRIPOS>MOLECULE
5umw_1_RBF
   27    29     1     0     0
SMALL
NO_CHARGES


@<TRIPOS>ATOM
      1 N1         29.7930    2.1310  170.1500 N.2       1 RBF201      0.0000 
      2 C2         29.9560    3.4160  170.5240 C.2       1 RBF201      0.0000 
      3 O2         30.2140    4.2430  169.6270 O.2       1 RBF201      0.0000 
      4 N3         29.8270    3.8110  171.8020 N.am      1 RBF201      0.0000 
      5 C4         29.5330    2.9440  172.7780 C.2       1 RBF201      0.0000 
      6 O4         29.4150    3.3050  173.9690 O.2       1 RBF201      0.0000 
      7 C4A        29.3490    1.5190  172.4490 C.2       1 RBF201      0.0000 
      8 N5         29.0540    0.6290  173.4240 N.2       1 RBF201      0.0000 
      9 C5A        28.8770   -0.6610  173.0590 C.ar      1 RBF201      0.0000 
     10 C6         28.5780   -1.5850  174.0650 C.ar      1 RBF201      0.0000 
     11 C7         28.4200   -2.9280  173.7070 C.ar      1 RBF201      0.0000 
     12 C7M        28.1060   -3.9510  174.7520 C.3       1 RBF201      0.0000 
     13 C8         28.5540   -3.3610  172.2740 C.ar      1 RBF201      0.0000 
     14 C8M        28.3940   -4.7920  171.7930 C.3       1 RBF201      0.0000 
     15 C9         28.8530   -2.4390  171.2950 C.ar      1 RBF201      0.0000 
     16 C9A        29.0210   -1.1010  171.6150 C.ar      1 RBF201      0.0000 
     17 N10        29.3310   -0.1870  170.5850 N.pl3     1 RBF201      0.0000 
     18 C10        29.4890    1.1450  171.0150 C.2       1 RBF201      0.0000 
     19 C1'        29.4510   -0.6460  169.1530 C.3       1 RBF201      0.0000 
     20 C2'        30.2140    0.2000  168.0840 C.3       1 RBF201      0.0000 
     21 O2'        29.7250    1.5450  167.8400 O.3       1 RBF201      0.0000 
     22 C3'        30.3930   -0.5410  166.7320 C.3       1 RBF201      0.0000 
     23 O3'        30.9820    0.3510  165.7310 O.3       1 RBF201      0.0000 
     24 C4'        29.1690   -1.3080  166.1710 C.3       1 RBF201      0.0000 
     25 O4'        29.6830   -2.3440  165.3340 O.3       1 RBF201      0.0000 
     26 C5'        28.1890   -0.4390  165.3760 C.3       1 RBF201      0.0000 
     27 O5'        27.0940   -1.2270  164.8840 O.3       1 RBF201      0.0000 
@<TRIPOS>BOND
     1    1    2 1    
     2    1   18 2    
     3    2    3 2    
     4    2    4 am   
     5    4    5 am   
     6    5    6 2    
     7    5    7 1    
     8    7    8 2    
     9    7   18 1    
    10    8    9 1    
    11    9   10 ar   
    12    9   16 ar   
    13   10   11 ar   
    14   11   12 1    
    15   11   13 ar   
    16   13   14 1    
    17   13   15 ar   
    18   15   16 ar   
    19   16   17 1    
    20   17   18 1    
    21   17   19 1    
    22   19   20 1    
    23   20   21 1    
    24   20   22 1    
    25   22   23 1    
    26   22   24 1    
    27   24   25 1    
    28   24   26 1    
    29   26   27 1    
@<TRIPOS>SUBSTRUCTURE
     1 RBF201      1 GROUP   
@<TRIPOS>SET

