#    Name: 5umw_2_RBF
#    Modification time : Fri May 22 19:14:21 2020

@<TRIPOS>MOLECULE
5umw_2_RBF
   27    29     1     0     0
SMALL
NO_CHARGES


@<TRIPOS>ATOM
      1 N1         44.3690    1.7360  115.8890 N.2       1 RBF201      0.0000 
      2 C2         44.1060    3.0720  115.8450 C.2       1 RBF201      0.0000 
      3 O2         43.7350    3.5610  116.9460 O.2       1 RBF201      0.0000 
      4 N3         44.2370    3.8040  114.6980 N.am      1 RBF201      0.0000 
      5 C4         44.6510    3.1880  113.5680 C.2       1 RBF201      0.0000 
      6 O4         44.8150    3.8000  112.5060 O.2       1 RBF201      0.0000 
      7 C4A        44.9460    1.7290  113.5650 C.2       1 RBF201      0.0000 
      8 N5         45.3490    1.1270  112.4420 N.2       1 RBF201      0.0000 
      9 C5A        45.6260   -0.1800  112.4980 C.ar      1 RBF201      0.0000 
     10 C6         46.0450   -0.7280  111.3120 C.ar      1 RBF201      0.0000 
     11 C7         46.3360   -2.0890  111.2850 C.ar      1 RBF201      0.0000 
     12 C7M        46.8580   -2.5350  109.9690 C.3       1 RBF201      0.0000 
     13 C8         46.2050   -2.9830  112.4990 C.ar      1 RBF201      0.0000 
     14 C8M        46.5140   -4.4730  112.5150 C.3       1 RBF201      0.0000 
     15 C9         45.7760   -2.4040  113.6950 C.ar      1 RBF201      0.0000 
     16 C9A        45.4780   -1.0310  113.7520 C.ar      1 RBF201      0.0000 
     17 N10        45.0390   -0.4300  114.9580 N.pl3     1 RBF201      0.0000 
     18 C10        44.7850    0.9800  114.8450 C.2       1 RBF201      0.0000 
     19 C1'        44.9210   -1.2990  116.1920 C.3       1 RBF201      0.0000 
     20 C2'        44.3960   -0.8360  117.5910 C.3       1 RBF201      0.0000 
     21 O2'        44.5130    0.5610  117.9050 O.3       1 RBF201      0.0000 
     22 C3'        45.1020   -1.5820  118.7510 C.3       1 RBF201      0.0000 
     23 O3'        45.1360   -2.9960  118.4660 O.3       1 RBF201      0.0000 
     24 C4'        44.4360   -1.3370  120.1220 C.3       1 RBF201      0.0000 
     25 O4'        44.0960    0.0470  120.3940 O.3       1 RBF201      0.0000 
     26 C5'        45.3200   -1.8600  121.2590 C.3       1 RBF201      0.0000 
     27 O5'        44.4630   -2.2880  122.3270 O.3       1 RBF201      0.0000 
@<TRIPOS>BOND
     1    1    2 1    
     2    1   18 2    
     3    2    3 2    
     4    2    4 am   
     5    4    5 am   
     6    5    6 2    
     7    5    7 1    
     8    7    8 2    
     9    7   18 1    
    10    8    9 1    
    11    9   10 ar   
    12    9   16 ar   
    13   10   11 ar   
    14   11   12 1    
    15   11   13 ar   
    16   13   14 1    
    17   13   15 ar   
    18   15   16 ar   
    19   16   17 1    
    20   17   18 1    
    21   17   19 1    
    22   19   20 1    
    23   20   21 1    
    24   20   22 1    
    25   22   23 1    
    26   22   24 1    
    27   24   25 1    
    28   24   26 1    
    29   26   27 1    
@<TRIPOS>SUBSTRUCTURE
     1 RBF201      1 GROUP   
@<TRIPOS>SET

