#    Name: 6mzb_2_35G
#    Modification time : Fri May 22 19:33:13 2020

@<TRIPOS>MOLECULE
6mzb_2_35G
   35    38     1     0     0
SMALL
NO_CHARGES


@<TRIPOS>ATOM
      1 P         152.6460  219.6900  183.5750 P.3       1 35G901      0.0000 
      2 O1P       152.6940  220.5320  184.7710 O.co2     1 35G901      0.0000 
      3 O2P       151.9250  218.2170  183.7430 O.co2     1 35G901      0.0000 
      4 O5'       154.1710  219.3840  183.2080 O.3       1 35G901      0.0000 
      5 C5'       154.7760  219.9260  182.0400 C.3       1 35G901      0.0000 
      6 C4'       153.8260  220.8700  181.3590 C.3       1 35G901      0.0000 
      7 O4'       154.1600  221.0470  179.9650 O.3       1 35G901      0.0000 
      8 C3'       152.3950  220.3950  181.3060 C.3       1 35G901      0.0000 
      9 O3'       151.7630  220.4750  182.5670 O.3       1 35G901      0.0000 
     10 C2'       151.8010  221.2870  180.2180 C.3       1 35G901      0.0000 
     11 O2'       151.4560  222.5640  180.7350 O.3       1 35G901      0.0000 
     12 C1'       152.9970  221.4410  179.2620 C.3       1 35G901      0.0000 
     13 N9        152.8600  220.5970  178.0550 N.pl3     1 35G901      0.0000 
     14 C8        152.8040  219.3940  178.1530 C.2       1 35G901      0.0000 
     15 N7        152.6770  218.8310  176.9370 N.2       1 35G901      0.0000 
     16 C5        152.6730  220.0220  176.0900 C.2       1 35G901      0.0000 
     17 C6        152.5780  220.2430  174.7590 C.2       1 35G901      0.0000 
     18 O6        152.4730  219.3320  174.0100 O.2       1 35G901      0.0000 
     19 N1        152.6080  221.4890  174.2940 N.am      1 35G901      0.0000 
     20 C2        152.7340  222.5510  175.1830 C.2       1 35G901      0.0000 
     21 N2        152.7640  223.9120  174.6510 N.pl3     1 35G901      0.0000 
     22 N3        152.8340  222.3810  176.5650 N.2       1 35G901      0.0000 
     23 C4        152.7960  221.1240  176.9180 C.2       1 35G901      0.0000 
     24 HOP2      151.1120  218.3200  183.8840 H         1 35G901      0.0000 
     25 H5'1      155.5610  220.3840  182.2750 H         1 35G901      0.0000 
     26 H5'2      155.0070  219.2310  181.4520 H         1 35G901      0.0000 
     27 H4'       153.8570  221.7020  181.7940 H         1 35G901      0.0000 
     28 H3'       152.3800  219.5030  181.0140 H         1 35G901      0.0000 
     29 H2'       151.0740  220.8730  179.7930 H         1 35G901      0.0000 
     30 HO2'      151.9940  223.1370  180.4640 H         1 35G901      0.0000 
     31 H1'       153.0820  222.3420  179.0140 H         1 35G901      0.0000 
     32 H8        152.8420  218.9250  178.9540 H         1 35G901      0.0000 
     33 HN1       152.5480  221.6370  173.4400 H         1 35G901      0.0000 
     34 HN21      153.5060  224.2450  174.3480 H         1 35G901      0.0000 
     35 HN22      152.0390  224.3890  174.6420 H         1 35G901      0.0000 
@<TRIPOS>BOND
     1    1    2 ar   
     2    1    3 ar   
     3    1    4 1    
     4    1    9 1    
     5    4    5 1    
     6    3   24 1    
     7    5    6 1    
     8    6    7 1    
     9    5   25 1    
    10    5   26 1    
    11    6    8 1    
    12    7   12 1    
    13    6   27 1    
    14    8    9 1    
    15    8   10 1    
    16   10   11 1    
    17    8   28 1    
    18   10   12 1    
    19   12   13 1    
    20   10   29 1    
    21   11   30 1    
    22   13   14 1    
    23   12   31 1    
    24   13   23 1    
    25   14   15 2    
    26   15   16 1    
    27   14   32 1    
    28   16   17 1    
    29   16   23 2    
    30   17   18 2    
    31   17   19 am   
    32   19   20 1    
    33   20   21 1    
    34   19   33 1    
    35   20   22 2    
    36   22   23 1    
    37   21   34 1    
    38   21   35 1    
@<TRIPOS>SUBSTRUCTURE
     1 35G901      1 GROUP   
@<TRIPOS>SET

