#    Name: 6mzb_1_35G
#    Modification time : Fri May 22 19:33:05 2020

@<TRIPOS>MOLECULE
6mzb_1_35G
   35    38     1     0     0
SMALL
NO_CHARGES


@<TRIPOS>ATOM
      1 P         159.5580  166.9250  158.1290 P.3       1 35G901      0.0000 
      2 O1P       159.8290  165.5290  157.7700 O.co2     1 35G901      0.0000 
      3 O2P       160.9180  167.4190  157.3180 O.co2     1 35G901      0.0000 
      4 O5'       159.7290  166.3620  159.6160 O.3       1 35G901      0.0000 
      5 C5'       158.5760  165.9660  160.3470 C.3       1 35G901      0.0000 
      6 C4'       157.4230  165.7400  159.4090 C.3       1 35G901      0.0000 
      7 O4'       156.1550  165.7990  160.0980 O.3       1 35G901      0.0000 
      8 C3'       157.2580  166.7650  158.3090 C.3       1 35G901      0.0000 
      9 O3'       158.2600  166.6650  157.3100 O.3       1 35G901      0.0000 
     10 C2'       155.8410  166.4800  157.8350 C.3       1 35G901      0.0000 
     11 O2'       155.8270  165.3290  157.0090 O.3       1 35G901      0.0000 
     12 C1'       155.1450  166.1300  159.1640 C.3       1 35G901      0.0000 
     13 N9        154.3350  167.2400  159.7170 N.pl3     1 35G901      0.0000 
     14 C8        154.6810  168.3980  159.6350 C.2       1 35G901      0.0000 
     15 N7        153.7750  169.2000  160.2210 N.2       1 35G901      0.0000 
     16 C5        152.8010  168.2150  160.6850 C.2       1 35G901      0.0000 
     17 C6        151.6290  168.2770  161.3550 C.2       1 35G901      0.0000 
     18 O6        151.1960  169.3240  161.7000 O.2       1 35G901      0.0000 
     19 N1        150.9670  167.1580  161.6300 N.am      1 35G901      0.0000 
     20 C2        151.4840  165.9350  161.2210 C.2       1 35G901      0.0000 
     21 N2        150.7330  164.7210  161.5370 N.pl3     1 35G901      0.0000 
     22 N3        152.6890  165.8120  160.5270 N.2       1 35G901      0.0000 
     23 C4        153.2620  166.9670  160.3080 C.2       1 35G901      0.0000 
     24 HOP2      161.0220  168.2340  157.4450 H         1 35G901      0.0000 
     25 H5'1      158.7510  165.1670  160.8040 H         1 35G901      0.0000 
     26 H5'2      158.3530  166.6260  160.9750 H         1 35G901      0.0000 
     27 H4'       157.5190  164.8940  159.0170 H         1 35G901      0.0000 
     28 H3'       157.2900  167.6230  158.6870 H         1 35G901      0.0000 
     29 H2'       155.4540  167.2210  157.4080 H         1 35G901      0.0000 
     30 HO2'      156.5690  164.9550  157.0300 H         1 35G901      0.0000 
     31 H1'       154.5980  165.3790  159.0270 H         1 35G901      0.0000 
     32 H8        155.4560  168.6990  159.2210 H         1 35G901      0.0000 
     33 HN1       150.2150  167.1900  162.0610 H         1 35G901      0.0000 
     34 HN21      150.8330  164.3380  162.3100 H         1 35G901      0.0000 
     35 HN22      150.1860  164.3830  160.9520 H         1 35G901      0.0000 
@<TRIPOS>BOND
     1    1    2 ar   
     2    1    3 ar   
     3    1    4 1    
     4    1    9 1    
     5    4    5 1    
     6    3   24 1    
     7    5    6 1    
     8    6    7 1    
     9    5   25 1    
    10    5   26 1    
    11    6    8 1    
    12    7   12 1    
    13    6   27 1    
    14    8    9 1    
    15    8   10 1    
    16   10   11 1    
    17    8   28 1    
    18   10   12 1    
    19   12   13 1    
    20   10   29 1    
    21   11   30 1    
    22   13   14 1    
    23   12   31 1    
    24   13   23 1    
    25   14   15 2    
    26   15   16 1    
    27   14   32 1    
    28   16   17 1    
    29   16   23 2    
    30   17   18 2    
    31   17   19 am   
    32   19   20 1    
    33   20   21 1    
    34   19   33 1    
    35   20   22 2    
    36   22   23 1    
    37   21   34 1    
    38   21   35 1    
@<TRIPOS>SUBSTRUCTURE
     1 35G901      1 GROUP   
@<TRIPOS>SET

