#    Name: 6dgy_1_K13
#    Modification time : Fri May 22 19:34:21 2020

@<TRIPOS>MOLECULE
6dgy_1_K13
   78    81     1     0     0
SMALL
NO_CHARGES


@<TRIPOS>ATOM
      1 N1         65.4870   51.7600   12.6510 N.pl3     1 K13103      0.0000 
      2 C2         66.4210   52.4200   13.5250 C.ar      1 K13103      0.0000 
      3 C3         66.1970   53.8760   13.8910 C.ar      1 K13103      0.0000 
      4 C4         67.1720   54.5840   14.8100 C.ar      1 K13103      0.0000 
      5 C5         68.3610   53.8170   15.3660 C.ar      1 K13103      0.0000 
      6 C6         68.5970   52.3630   15.0010 C.ar      1 K13103      0.0000 
      7 C7         67.6190   51.6590   14.0780 C.ar      1 K13103      0.0000 
      8 S8         69.5140   54.6850   16.4430 S.o2      1 K13103      0.0000 
      9 O9         68.8400   55.7780   17.1500 O.2       1 K13103      0.0000 
     10 O10        70.0380   53.8380   17.5120 O.2       1 K13103      0.0000 
     11 N11        70.7510   55.2670   15.4280 N.pl3     1 K13103      0.0000 
     12 C12        71.4800   54.2180   14.7360 C.3       1 K13103      0.0000 
     13 C13        72.9620   54.5500   14.6080 C.3       1 K13103      0.0000 
     14 C14        73.6220   54.5820   15.9870 C.3       1 K13103      0.0000 
     15 C15        73.6150   53.4860   13.7250 C.3       1 K13103      0.0000 
     16 C16        70.4660   56.5040   14.7250 C.3       1 K13103      0.0000 
     17 C17        71.3700   57.6160   15.2540 C.3       1 K13103      0.0000 
     18 C18        73.6770   52.1290   14.4290 C.3       1 K13103      0.0000 
     19 O18        71.2420   58.7470   14.4400 O.3       1 K13103      0.0000 
     20 C19        71.0080   57.9830   16.6890 C.3       1 K13103      0.0000 
     21 N20        71.9840   58.9510   17.1390 N.am      1 K13103      0.0000 
     22 C21        72.9750   58.6460   18.1400 C.2       1 K13103      0.0000 
     23 O22        72.9860   57.6040   18.7200 O.2       1 K13103      0.0000 
     24 O23        73.9100   59.6550   18.3650 O.3       1 K13103      0.0000 
     25 C24        74.7840   59.5730   19.5800 C.3       1 K13103      0.0000 
     26 C25        75.9320   60.0070   19.2550 C.3       1 K13103      0.0000 
     27 O26        75.7360   61.6330   19.2210 O.3       1 K13103      0.0000 
     28 C27        74.9260   61.9210   20.1850 C.3       1 K13103      0.0000 
     29 O28        73.7060   62.7720   19.6770 O.3       1 K13103      0.0000 
     30 C29        72.6740   61.9560   19.6370 C.3       1 K13103      0.0000 
     31 C30        72.9950   60.7620   20.6900 C.3       1 K13103      0.0000 
     32 C31        74.3260   60.5870   20.6630 C.3       1 K13103      0.0000 
     33 C32        69.6480   58.6730   16.7810 C.3       1 K13103      0.0000 
     34 C33        69.5390   60.6200   18.5680 C.ar      1 K13103      0.0000 
     35 C34        69.3310   61.0820   20.0070 C.ar      1 K13103      0.0000 
     36 C35        69.0170   60.0660   21.0990 C.ar      1 K13103      0.0000 
     37 C36        68.9130   58.5850   20.7520 C.ar      1 K13103      0.0000 
     38 C37        69.1210   58.1230   19.3110 C.ar      1 K13103      0.0000 
     39 C38        69.4350   59.1400   18.2180 C.ar      1 K13103      0.0000 
     40 HN1        65.7550   51.1270   12.1340 H         1 K13103      0.0000 
     41 HN1A       64.6610   51.9990   12.6450 H         1 K13103      0.0000 
     42 H3         65.4630   54.3340   13.5490 H         1 K13103      0.0000 
     43 H4         67.0410   55.4770   15.0370 H         1 K13103      0.0000 
     44 H6         69.3330   51.9070   15.3420 H         1 K13103      0.0000 
     45 H7         67.7500   50.7670   13.8520 H         1 K13103      0.0000 
     46 H12        71.1040   54.1040   13.8490 H         1 K13103      0.0000 
     47 H12A       71.3830   53.3880   15.2280 H         1 K13103      0.0000 
     48 H13        73.0600   55.4180   14.1870 H         1 K13103      0.0000 
     49 H14        73.4940   55.4570   16.3870 H         1 K13103      0.0000 
     50 H14A       73.2200   53.9060   16.5540 H         1 K13103      0.0000 
     51 H14B       74.5710   54.4050   15.8960 H         1 K13103      0.0000 
     52 H15        74.5170   53.7690   13.5040 H         1 K13103      0.0000 
     53 H15A       73.1020   53.3960   12.9070 H         1 K13103      0.0000 
     54 H16        70.6270   56.3810   13.7760 H         1 K13103      0.0000 
     55 H16A       69.5380   56.7490   14.8660 H         1 K13103      0.0000 
     56 H17        72.2910   57.3120   15.2290 H         1 K13103      0.0000 
     57 H18        72.7790   51.8430   14.6570 H         1 K13103      0.0000 
     58 H18A       74.2070   52.2080   15.2370 H         1 K13103      0.0000 
     59 H18B       74.0840   51.4770   13.8380 H         1 K13103      0.0000 
     60 HO18       71.9480   59.2170   14.4960 H         1 K13103      0.0000 
     61 H19        71.0280   57.1960   17.2550 H         1 K13103      0.0000 
     62 HN20       71.9730   59.7390   16.7950 H         1 K13103      0.0000 
     63 H24        74.8320   58.6710   19.9330 H         1 K13103      0.0000 
     64 H25        76.5880   59.7580   19.9240 H         1 K13103      0.0000 
     65 H25A       76.1860   59.6770   18.3790 H         1 K13103      0.0000 
     66 H27        75.3900   62.3720   20.9080 H         1 K13103      0.0000 
     67 H29        72.5720   61.5920   18.7440 H         1 K13103      0.0000 
     68 H29A       71.8690   62.4260   19.9050 H         1 K13103      0.0000 
     69 H30        72.5470   59.9470   20.4140 H         1 K13103      0.0000 
     70 H30A       72.7110   61.0190   21.5810 H         1 K13103      0.0000 
     71 H31        74.6670   60.3440   21.5380 H         1 K13103      0.0000 
     72 H32        68.9480   58.0480   16.5340 H         1 K13103      0.0000 
     73 H32A       69.6280   59.4370   16.1840 H         1 K13103      0.0000 
     74 H33        69.7320   61.2420   17.9040 H         1 K13103      0.0000 
     75 H34        69.3940   61.9850   20.2190 H         1 K13103      0.0000 
     76 H35        68.8890   60.3490   21.9760 H         1 K13103      0.0000 
     77 H36        68.7210   57.9640   21.4170 H         1 K13103      0.0000 
     78 H37        69.0580   57.2190   19.1000 H         1 K13103      0.0000 
@<TRIPOS>BOND
     1    1    2 1    
     2    2    3 ar   
     3    1   40 1    
     4    1   41 1    
     5    2    7 ar   
     6    3    4 ar   
     7    4    5 ar   
     8    3   42 1    
     9    5    6 ar   
    10    4   43 1    
    11    5    8 1    
    12    6    7 ar   
    13    8    9 2    
    14    6   44 1    
    15    7   45 1    
    16    8   10 2    
    17    8   11 1    
    18   11   12 1    
    19   11   16 1    
    20   12   13 1    
    21   12   46 1    
    22   12   47 1    
    23   13   14 1    
    24   13   15 1    
    25   13   48 1    
    26   14   49 1    
    27   14   50 1    
    28   14   51 1    
    29   15   18 1    
    30   15   52 1    
    31   15   53 1    
    32   16   17 1    
    33   16   54 1    
    34   16   55 1    
    35   17   19 1    
    36   17   20 1    
    37   17   56 1    
    38   19   60 1    
    39   18   57 1    
    40   18   58 1    
    41   18   59 1    
    42   20   21 1    
    43   20   33 1    
    44   20   61 1    
    45   21   22 am   
    46   22   23 2    
    47   21   62 1    
    48   22   24 1    
    49   24   25 1    
    50   25   26 1    
    51   25   32 1    
    52   25   63 1    
    53   26   64 1    
    54   26   65 1    
    55   26   27 1    
    56   27   28 1    
    57   28   29 1    
    58   28   32 1    
    59   28   66 1    
    60   29   30 1    
    61   30   31 1    
    62   30   67 1    
    63   30   68 1    
    64   31   32 1    
    65   31   69 1    
    66   31   70 1    
    67   32   71 1    
    68   33   39 1    
    69   33   72 1    
    70   33   73 1    
    71   34   35 ar   
    72   34   39 ar   
    73   35   36 ar   
    74   34   74 1    
    75   36   37 ar   
    76   35   75 1    
    77   37   38 ar   
    78   36   76 1    
    79   38   39 ar   
    80   37   77 1    
    81   38   78 1    
@<TRIPOS>SUBSTRUCTURE
     1 K13103      1 GROUP   
@<TRIPOS>SET

