#    Name: 6t2b_1_NAD
#    Modification time : Fri May 22 19:26:14 2020

@<TRIPOS>MOLECULE
6t2b_1_NAD
   44    48     1     0     1
SMALL
NO_CHARGES


@<TRIPOS>ATOM
      1 PA          2.1690   85.7330   24.3640 P.3       1 NAD502      0.0000 
      2 O1A         1.2560   86.7320   25.0430 O.co2     1 NAD502      0.0000 
      3 O2A         2.0600   84.3530   24.9960 O.co2     1 NAD502      0.0000 
      4 O5B         1.8150   85.6750   22.7540 O.3       1 NAD502      0.0000 
      5 C5B         2.1600   84.4970   22.0240 C.3       1 NAD502      0.0000 
      6 C4B         1.0140   84.1480   21.0770 C.3       1 NAD502      0.0000 
      7 O4B         1.5540   83.3320   19.9580 O.3       1 NAD502      0.0000 
      8 C3B        -0.0150   83.3370   21.7660 C.3       1 NAD502      0.0000 
      9 O3B        -1.2490   84.0880   21.7950 O.3       1 NAD502      0.0000 
     10 C2B        -0.1600   82.0790   21.0130 C.3       1 NAD502      0.0000 
     11 O2B        -1.5830   81.7530   20.7820 O.3       1 NAD502      0.0000 
     12 C1B         0.4790   82.3240   19.7090 C.3       1 NAD502      0.0000 
     13 N9A         1.0330   81.1570   19.0840 N.pl3     1 NAD502      0.0000 
     14 C8A         1.9410   80.3410   19.6190 C.2       1 NAD502      0.0000 
     15 N7A         2.2280   79.3810   18.7230 N.2       1 NAD502      0.0000 
     16 C5A         1.4180   79.6480   17.5300 C.ar      1 NAD502      0.0000 
     17 C6A         1.2340   79.0680   16.2940 C.ar      1 NAD502      0.0000 
     18 N6A         1.9590   77.8810   15.9250 N.pl3     1 NAD502      0.0000 
     19 N1A         0.3740   79.6360   15.4450 N.ar      1 NAD502      0.0000 
     20 C2A        -0.3030   80.7250   15.7550 C.ar      1 NAD502      0.0000 
     21 N3A        -0.1600   81.3180   16.9320 N.ar      1 NAD502      0.0000 
     22 C4A         0.6670   80.8240   17.8290 C.ar      1 NAD502      0.0000 
     23 O3          3.7660   86.2180   24.4790 O.3       1 NAD502      0.0000 
     24 PN          4.2590   87.7120   24.0150 P.3       1 NAD502      0.0000 
     25 O1N         3.2820   88.3620   23.1690 O.co2     1 NAD502      0.0000 
     26 O2N         4.3220   88.6060   25.1700 O.co2     1 NAD502      0.0000 
     27 O5D         5.7080   87.5850   23.2580 O.3       1 NAD502      0.0000 
     28 C5D         5.8350   86.8110   22.1200 C.3       1 NAD502      0.0000 
     29 C4D         7.2380   87.0130   21.5750 C.3       1 NAD502      0.0000 
     30 O4D         7.5660   88.4690   21.4420 O.3       1 NAD502      0.0000 
     31 C3D         8.2290   86.4560   22.5030 C.3       1 NAD502      0.0000 
     32 O3D         9.2780   85.9290   21.6530 O.3       1 NAD502      0.0000 
     33 C2D         8.7410   87.5590   23.3090 C.3       1 NAD502      0.0000 
     34 O2D        10.1230   87.2780   23.7950 O.3       1 NAD502      0.0000 
     35 C1D         8.7390   88.6790   22.3860 C.3       1 NAD502      0.0000 
     36 N1N         8.5200   89.9710   22.9770 N.pl3     1 NAD502      0.0000 
     37 C2N         9.3510   91.0060   22.5710 C.ar      1 NAD502      0.0000 
     38 C3N         9.1810   92.2910   23.0730 C.ar      1 NAD502      0.0000 
     39 C7N        10.1300   93.4070   22.5940 C.2       1 NAD502      0.0000 
     40 O7N        10.2190   94.4320   23.1780 O.2       1 NAD502      0.0000 
     41 N7N        10.8930   93.1730   21.4120 N.am      1 NAD502      0.0000 
     42 C4N         8.0860   92.5510   24.0190 C.ar      1 NAD502      0.0000 
     43 C5N         7.2410   91.4380   24.4080 C.ar      1 NAD502      0.0000 
     44 C6N         7.4750   90.1800   23.8680 C.ar      1 NAD502      0.0000 
@<TRIPOS>BOND
     1    1    2 ar   
     2    1    3 ar   
     3    1    4 1    
     4    1   23 1    
     5    4    5 1    
     6    5    6 1    
     7    6    7 1    
     8    6    8 1    
     9    7   12 1    
    10    8    9 1    
    11    8   10 1    
    12   10   11 1    
    13   10   12 1    
    14   12   13 1    
    15   13   14 1    
    16   13   22 1    
    17   14   15 2    
    18   15   16 1    
    19   16   17 ar   
    20   16   22 ar   
    21   17   18 1    
    22   17   19 ar   
    23   19   20 ar   
    24   20   21 ar   
    25   21   22 ar   
    26   23   24 1    
    27   24   25 ar   
    28   24   26 ar   
    29   24   27 1    
    30   27   28 1    
    31   28   29 1    
    32   29   30 1    
    33   29   31 1    
    34   30   35 1    
    35   31   32 1    
    36   31   33 1    
    37   33   34 1    
    38   33   35 1    
    39   35   36 1    
    40   36   37 ar   
    41   36   44 ar   
    42   37   38 ar   
    43   38   39 1    
    44   38   42 ar   
    45   39   40 2    
    46   39   41 am   
    47   42   43 ar   
    48   43   44 ar   
@<TRIPOS>SUBSTRUCTURE
     1 NAD502      1 GROUP   
@<TRIPOS>SET
ATOM$ORANGE STATIC     ATOMS   COLORGROUP SYSTEM 
42 5 5 6 6 8 8 10 10 12 12 14 14 16 16 17 17 20 \
20 22 22 28 28 29 29 31 31 33 33 35 35 37 37 38 38 39 \
39 42 42 43 43 44 44 

