#    Name: 6t2b_2_NAD_CAVITY_N1_4
#    Modification time : Fri May 22 19:26:21 2020

@<TRIPOS>MOLECULE
6t2b_2_NAD_CAVITY_N1_4
   77     0     7     0     0
SMALL
NO_CHARGES


@<TRIPOS>ATOM
      1 OG          6.6300   48.1900   44.8500 O.3       1 SER1        0.0000 
      2 OG         10.3800   44.3300   45.4000 O.3       1 SER1        0.0000 
      3 OG          9.1000   44.9100   45.9200 O.3       1 SER1        0.0000 
      4 OG          7.8200   45.4900   46.4500 O.3       1 SER1        0.0000 
      5 OG          6.5400   46.0800   46.9700 O.3       1 SER1        0.0000 
      6 OG         10.3300   43.2700   46.4600 O.3       1 SER1        0.0000 
      7 OG          8.6900   48.5000   45.2400 O.3       1 SER1        0.0000 
      8 OG          7.4100   49.0800   45.7700 O.3       1 SER1        0.0000 
      9 OG          8.6400   47.4400   46.3000 O.3       1 SER1        0.0000 
     10 OG          7.3700   48.0200   46.8300 O.3       1 SER1        0.0000 
     11 OG          9.8800   45.8000   46.8400 O.3       1 SER1        0.0000 
     12 OG          8.6000   46.3900   47.3700 O.3       1 SER1        0.0000 
     13 OG          7.3200   46.9700   47.8900 O.3       1 SER1        0.0000 
     14 OG          9.4300   48.3300   47.2200 O.3       1 SER1        0.0000 
     15 OG          8.1500   48.9200   47.7500 O.3       1 SER1        0.0000 
     16 OG          6.8700   49.5000   48.2700 O.3       1 SER1        0.0000 
     17 OG         10.6600   46.7000   47.7600 O.3       1 SER1        0.0000 
     18 OG         10.2100   49.2200   48.1400 O.3       1 SER1        0.0000 
     19 OG          8.9300   49.8100   48.6700 O.3       1 SER1        0.0000 
     20 N           8.2800   38.8800   37.7700 N.am      2 ALA2        0.0000 
     21 O           9.0600   39.7700   38.6900 O.2       2 ALA2        0.0000 
     22 O          10.3000   38.1300   39.2300 O.2       2 ALA2        0.0000 
     23 O           9.0200   38.7100   39.7500 O.2       2 ALA2        0.0000 
     24 O           8.6100   42.3000   39.0700 O.2       2 ALA2        0.0000 
     25 N           9.8500   40.6600   39.6100 N.am      2 ALA2        0.0000 
     26 O           9.8000   39.6000   40.6700 O.2       2 ALA2        0.0000 
     27 O           9.3900   43.1900   39.9900 O.2       2 ALA2        0.0000 
     28 N          10.6300   41.5500   40.5300 N.am      2 ALA2        0.0000 
     29 N          10.5900   40.5000   41.5900 N.am      2 ALA2        0.0000 
     30 N          11.4100   42.4400   41.4400 N.am      2 ALA2        0.0000 
     31 N          11.3700   41.3900   42.5100 N.am      2 ALA2        0.0000 
     32 N          12.1500   42.2800   43.4300 N.am      2 ALA2        0.0000 
     33 N          12.1100   41.2200   44.4900 N.am      2 ALA2        0.0000 
     34 N          10.8300   41.8000   45.0200 N.am      2 ALA2        0.0000 
     35 N          11.6100   42.6900   45.9300 N.am      2 ALA2        0.0000 
     36 O          10.2500   50.2800   47.0800 O.2       2 ALA2        0.0000 
     37 OD1         9.9200   46.8600   45.7800 O.co2     3 ASP3        0.0000 
     38 OD1        10.7500   48.8100   45.6300 O.co2     3 ASP3        0.0000 
     39 OD1        10.7100   47.7500   46.7000 O.co2     3 ASP3        0.0000 
     40 NZ          8.0700   42.7200   41.5800 N.4       4 LYS4        0.0000 
     41 NZ          8.8500   43.6100   42.5000 N.4       4 LYS4        0.0000 
     42 NZ          8.4000   46.1400   42.8800 N.4       4 LYS4        0.0000 
     43 NZ          7.1200   46.7200   43.4000 N.4       4 LYS4        0.0000 
     44 NZ          8.3600   45.0800   43.9400 N.4       4 LYS4        0.0000 
     45 NZ          5.8000   46.2400   44.9900 N.4       4 LYS4        0.0000 
     46 NZ          9.5900   43.4400   44.4800 N.4       4 LYS4        0.0000 
     47 NZ          5.7600   45.1800   46.0600 N.4       4 LYS4        0.0000 
     48 NZ          9.5500   42.3800   45.5400 N.4       4 LYS4        0.0000 
     49 NZ          9.1400   45.9700   44.8600 N.4       4 LYS4        0.0000 
     50 NZ          7.8600   46.5500   45.3900 N.4       4 LYS4        0.0000 
     51 NZ         11.1600   45.2200   46.3100 N.4       4 LYS4        0.0000 
     52 NZ         11.9900   47.1700   46.1700 N.4       4 LYS4        0.0000 
     53 CZ          8.5200   40.1900   41.2000 C.ar      5 PHE5        0.0000 
     54 CZ          9.3100   41.0800   42.1200 C.ar      5 PHE5        0.0000 
     55 CZ         10.0900   41.9700   43.0300 C.ar      5 PHE5        0.0000 
     56 CZ         10.0500   40.9100   44.1000 C.ar      5 PHE5        0.0000 
     57 CZ          9.4700   49.3900   46.1600 C.ar      5 PHE5        0.0000 
     58 CA          9.1100   40.8300   37.6300 C.3       6 GLY6        0.0000 
     59 CA          7.8300   41.4100   38.1500 C.3       6 GLY6        0.0000 
     60 CA          7.7800   40.3500   39.2200 C.3       6 GLY6        0.0000 
     61 CA          9.8900   41.7200   38.5500 C.3       6 GLY6        0.0000 
     62 CA          8.5700   41.2400   40.1300 C.3       6 GLY6        0.0000 
     63 CA          7.2900   41.8200   40.6600 C.3       6 GLY6        0.0000 
     64 CA         11.0800   39.0200   40.1500 C.3       6 GLY6        0.0000 
     65 CA         10.1300   43.0300   41.9700 C.3       6 GLY6        0.0000 
     66 CA          9.6400   44.5000   43.4200 C.3       6 GLY6        0.0000 
     67 CA         10.8700   42.8600   43.9500 C.3       6 GLY6        0.0000 
     68 CA          9.1800   47.0300   43.8000 C.3       6 GLY6        0.0000 
     69 CA         10.4200   45.3900   44.3300 C.3       6 GLY6        0.0000 
     70 CA         11.6500   43.7500   44.8700 C.3       6 GLY6        0.0000 
     71 CA          9.9700   47.9200   44.7100 C.3       6 GLY6        0.0000 
     72 CA         11.2000   46.2800   45.2500 C.3       6 GLY6        0.0000 
     73 DU          9.5600   38.3000   37.2500 H         7 CUB7        0.0000 
     74 DU         10.3400   39.1900   38.1600 H         7 CUB7        0.0000 
     75 DU          9.3500   42.1300   41.0500 H         7 CUB7        0.0000 
     76 DU          7.9000   47.6100   44.3200 H         7 CUB7        0.0000 
     77 DU          6.5800   47.1300   45.9100 H         7 CUB7        0.0000 
@<TRIPOS>BOND
@<TRIPOS>SUBSTRUCTURE
     1 SER1        1 GROUP   
     2 ALA2       20 GROUP   
     3 ASP3       37 GROUP   
     4 LYS4       40 GROUP   
     5 PHE5       53 GROUP   
     6 GLY6       58 GROUP   
     7 CUB7       73 GROUP   
@<TRIPOS>SET

