#    Name: 6t2b_2_NAD
#    Modification time : Fri May 22 19:26:19 2020

@<TRIPOS>MOLECULE
6t2b_2_NAD
   44    48     1     0     1
SMALL
NO_CHARGES


@<TRIPOS>ATOM
      1 PA          8.4580   40.7470   39.0710 P.3       1 NAD502      0.0000 
      2 O1A         7.8330   41.8200   38.2050 O.co2     1 NAD502      0.0000 
      3 O2A         7.7580   39.4020   39.0010 O.co2     1 NAD502      0.0000 
      4 O5B        10.0360   40.6610   38.6280 O.3       1 NAD502      0.0000 
      5 C5B        10.7960   39.5050   38.9360 C.3       1 NAD502      0.0000 
      6 C4B        11.6290   39.1650   37.7110 C.3       1 NAD502      0.0000 
      7 O4B        12.7380   38.2980   38.1730 O.3       1 NAD502      0.0000 
      8 C3B        10.8090   38.3900   36.7540 C.3       1 NAD502      0.0000 
      9 O3B        10.6690   39.1410   35.5330 O.3       1 NAD502      0.0000 
     10 C2B        11.5050   37.1180   36.5300 C.3       1 NAD502      0.0000 
     11 O2B        11.5300   36.7720   35.0880 O.3       1 NAD502      0.0000 
     12 C1B        12.8750   37.3220   37.0580 C.3       1 NAD502      0.0000 
     13 N9A        13.4710   36.1090   37.5360 N.pl3     1 NAD502      0.0000 
     14 C8A        12.9090   35.2820   38.4190 C.2       1 NAD502      0.0000 
     15 N7A        13.7510   34.2570   38.6220 N.2       1 NAD502      0.0000 
     16 C5A        14.9380   34.4830   37.7900 C.ar      1 NAD502      0.0000 
     17 C6A        16.1260   33.8320   37.5390 C.ar      1 NAD502      0.0000 
     18 N6A        16.4500   32.5870   38.1810 N.pl3     1 NAD502      0.0000 
     19 N1A        16.9860   34.3830   36.6840 N.ar      1 NAD502      0.0000 
     20 C2A        16.7200   35.5230   36.0680 C.ar      1 NAD502      0.0000 
     21 N3A        15.5880   36.1850   36.2710 N.ar      1 NAD502      0.0000 
     22 C4A        14.6890   35.7130   37.1050 C.ar      1 NAD502      0.0000 
     23 O3          8.4420   41.2480   40.6620 O.3       1 NAD502      0.0000 
     24 PN          9.0210   42.7070   41.1240 P.3       1 NAD502      0.0000 
     25 O1N         9.8670   43.3010   40.1080 O.co2     1 NAD502      0.0000 
     26 O2N         7.9460   43.6890   41.2670 O.co2     1 NAD502      0.0000 
     27 O5D         9.8510   42.5230   42.5310 O.3       1 NAD502      0.0000 
     28 C5D        10.9560   41.6890   42.5980 C.3       1 NAD502      0.0000 
     29 C4D        11.5930   41.8760   43.9630 C.3       1 NAD502      0.0000 
     30 O4D        11.7370   43.3370   44.2360 O.3       1 NAD502      0.0000 
     31 C3D        10.7410   41.3420   45.0310 C.3       1 NAD502      0.0000 
     32 O3D        11.6330   40.8450   46.0650 O.3       1 NAD502      0.0000 
     33 C2D         9.9750   42.4650   45.5490 C.3       1 NAD502      0.0000 
     34 O2D         9.5260   42.1790   46.9380 O.3       1 NAD502      0.0000 
     35 C1D        10.9240   43.5620   45.4970 C.3       1 NAD502      0.0000 
     36 N1N        10.3860   44.8880   45.3520 N.pl3     1 NAD502      0.0000 
     37 C2N        10.8770   45.8800   46.1920 C.ar      1 NAD502      0.0000 
     38 C3N        10.4240   47.1880   46.0750 C.ar      1 NAD502      0.0000 
     39 C7N        10.9710   48.2620   47.0280 C.2       1 NAD502      0.0000 
     40 O7N        10.4070   49.2920   47.1480 O.2       1 NAD502      0.0000 
     41 N7N        12.1720   47.9970   47.7530 N.am      1 NAD502      0.0000 
     42 C4N         9.4430   47.5240   45.0320 C.ar      1 NAD502      0.0000 
     43 C5N         8.9710   46.4540   44.1800 C.ar      1 NAD502      0.0000 
     44 C6N         9.4670   45.1710   44.3520 C.ar      1 NAD502      0.0000 
@<TRIPOS>BOND
     1    1    2 ar   
     2    1    3 ar   
     3    1    4 1    
     4    1   23 1    
     5    4    5 1    
     6    5    6 1    
     7    6    7 1    
     8    6    8 1    
     9    7   12 1    
    10    8    9 1    
    11    8   10 1    
    12   10   11 1    
    13   10   12 1    
    14   12   13 1    
    15   13   14 1    
    16   13   22 1    
    17   14   15 2    
    18   15   16 1    
    19   16   17 ar   
    20   16   22 ar   
    21   17   18 1    
    22   17   19 ar   
    23   19   20 ar   
    24   20   21 ar   
    25   21   22 ar   
    26   23   24 1    
    27   24   25 ar   
    28   24   26 ar   
    29   24   27 1    
    30   27   28 1    
    31   28   29 1    
    32   29   30 1    
    33   29   31 1    
    34   30   35 1    
    35   31   32 1    
    36   31   33 1    
    37   33   34 1    
    38   33   35 1    
    39   35   36 1    
    40   36   37 ar   
    41   36   44 ar   
    42   37   38 ar   
    43   38   39 1    
    44   38   42 ar   
    45   39   40 2    
    46   39   41 am   
    47   42   43 ar   
    48   43   44 ar   
@<TRIPOS>SUBSTRUCTURE
     1 NAD502      1 GROUP   
@<TRIPOS>SET
ATOM$ORANGE STATIC     ATOMS   COLORGROUP SYSTEM 
42 5 5 6 6 8 8 10 10 12 12 14 14 16 16 17 17 20 \
20 22 22 28 28 29 29 31 31 33 33 35 35 37 37 38 38 39 \
39 42 42 43 43 44 44 

