#    Name: 6t2b_1_NAD_CAVITY_N1_6
#    Modification time : Fri May 22 19:26:16 2020

@<TRIPOS>MOLECULE
6t2b_1_NAD_CAVITY_N1_6
   75     0     7     0     0
SMALL
NO_CHARGES


@<TRIPOS>ATOM
      1 OG          9.0300   88.3100   23.4700 O.3       1 SER1        0.0000 
      2 OG          8.5700   90.8400   23.8500 O.3       1 SER1        0.0000 
      3 OG         10.6800   92.2000   23.1800 O.3       1 SER1        0.0000 
      4 OG          9.3600   91.7300   24.7700 O.3       1 SER1        0.0000 
      5 OG          9.3100   90.6700   25.8300 O.3       1 SER1        0.0000 
      6 OG         10.1800   93.6800   24.6200 O.3       1 SER1        0.0000 
      7 OG         10.1400   92.6200   25.6800 O.3       1 SER1        0.0000 
      8 OG          8.8600   93.2000   26.2100 O.3       1 SER1        0.0000 
      9 OG          7.5800   93.7800   26.7400 O.3       1 SER1        0.0000 
     10 OG         10.1000   91.5600   26.7500 O.3       1 SER1        0.0000 
     11 OG          8.7700   91.0800   28.3400 O.3       1 SER1        0.0000 
     12 OG          9.6400   94.0900   27.1300 O.3       1 SER1        0.0000 
     13 OG         10.8800   92.4500   27.6600 O.3       1 SER1        0.0000 
     14 OG          9.6000   93.0300   28.1900 O.3       1 SER1        0.0000 
     15 OG          9.5600   91.9800   29.2500 O.3       1 SER1        0.0000 
     16 N           3.2900   84.8500   21.9100 N.am      2 ALA2        0.0000 
     17 N           5.3500   85.1600   22.3000 N.am      2 ALA2        0.0000 
     18 N           4.0800   85.7400   22.8300 N.am      2 ALA2        0.0000 
     19 O           1.5200   86.9000   23.8800 O.2       2 ALA2        0.0000 
     20 O           4.0300   84.6800   23.8900 O.2       2 ALA2        0.0000 
     21 O           2.7500   85.2600   24.4200 O.2       2 ALA2        0.0000 
     22 N           8.7400   85.9400   21.1000 N.am      2 ALA2        0.0000 
     23 N           7.4600   86.5200   21.6300 N.am      2 ALA2        0.0000 
     24 N           6.1800   87.1000   22.1600 N.am      2 ALA2        0.0000 
     25 N           7.4200   85.4700   22.6900 N.am      2 ALA2        0.0000 
     26 N           9.5200   86.8300   22.0200 N.am      2 ALA2        0.0000 
     27 N           8.2400   87.4100   22.5500 N.am      2 ALA2        0.0000 
     28 OD1         8.6200   91.8900   22.7800 O.co2     3 ASP3        0.0000 
     29 OD1         9.4400   93.8400   22.6400 O.co2     3 ASP3        0.0000 
     30 OD1         9.4000   92.7800   23.7000 O.co2     3 ASP3        0.0000 
     31 OD1         9.2700   89.6100   26.8900 O.co2     3 ASP3        0.0000 
     32 OD1        10.0500   90.5000   27.8100 O.co2     3 ASP3        0.0000 
     33 NZ          6.9600   88.0000   23.0700 N.4       4 LYS4        0.0000 
     34 NZ          5.6900   88.5800   23.6000 N.4       4 LYS4        0.0000 
     35 NZ          6.9200   86.9400   24.1400 N.4       4 LYS4        0.0000 
     36 NZ          9.0700   89.3600   22.4000 N.4       4 LYS4        0.0000 
     37 NZ          7.7500   88.8900   23.9900 N.4       4 LYS4        0.0000 
     38 NZ          8.9800   87.2500   24.5300 N.4       4 LYS4        0.0000 
     39 NZ          9.8900   91.3100   22.2600 N.4       4 LYS4        0.0000 
     40 NZ          8.5300   89.7800   24.9100 N.4       4 LYS4        0.0000 
     41 NZ          7.2500   90.3600   25.4400 N.4       4 LYS4        0.0000 
     42 NZ          8.0300   91.2500   26.3600 N.4       4 LYS4        0.0000 
     43 NZ          6.7500   91.8300   26.8800 N.4       4 LYS4        0.0000 
     44 NZ          7.9900   90.1900   27.4200 N.4       4 LYS4        0.0000 
     45 NZ          6.7100   90.7700   27.9400 N.4       4 LYS4        0.0000 
     46 NZ          8.7300   90.0300   29.4000 N.4       4 LYS4        0.0000 
     47 CZ          6.1400   86.0500   23.2200 C.ar      5 PHE5        0.0000 
     48 CZ          4.8600   86.6300   23.7500 C.ar      5 PHE5        0.0000 
     49 CZ          4.8200   85.5700   24.8100 C.ar      5 PHE5        0.0000 
     50 CZ          8.2000   86.3600   23.6100 C.ar      5 PHE5        0.0000 
     51 CZ          8.1600   94.4200   23.1700 C.ar      5 PHE5        0.0000 
     52 CZ          8.1200   93.3700   24.2300 C.ar      5 PHE5        0.0000 
     53 CZ          6.8400   93.9500   24.7500 C.ar      5 PHE5        0.0000 
     54 CZ         10.2200   94.7300   23.5600 C.ar      5 PHE5        0.0000 
     55 CZ          8.3200   93.6100   28.7200 C.ar      5 PHE5        0.0000 
     56 CA          1.4800   85.8400   24.9400 C.3       6 GLY6        0.0000 
     57 CA          7.5000   87.5800   20.5700 C.3       6 GLY6        0.0000 
     58 CA          6.2200   88.1600   21.0900 C.3       6 GLY6        0.0000 
     59 CA          4.9000   87.6900   22.6800 C.3       6 GLY6        0.0000 
     60 CA          3.5800   87.2100   24.2700 C.3       6 GLY6        0.0000 
     61 CA          3.5400   86.1500   25.3400 C.3       6 GLY6        0.0000 
     62 CA          9.5600   87.8900   20.9600 C.3       6 GLY6        0.0000 
     63 CA          8.2900   88.4700   21.4900 C.3       6 GLY6        0.0000 
     64 CA          7.0100   89.0500   22.0100 C.3       6 GLY6        0.0000 
     65 CA          7.7900   89.9400   22.9300 C.3       6 GLY6        0.0000 
     66 CA          6.5100   90.5300   23.4600 C.3       6 GLY6        0.0000 
     67 CA          7.3400   92.4700   23.3100 C.3       6 GLY6        0.0000 
     68 CA          6.0600   93.0600   23.8400 C.3       6 GLY6        0.0000 
     69 CA          7.2900   91.4200   24.3700 C.3       6 GLY6        0.0000 
     70 CA          6.0200   92.0000   24.9000 C.3       6 GLY6        0.0000 
     71 DU          2.8000   86.3200   23.3500 H         7 CUB7        0.0000 
     72 DU          8.0800   92.3100   25.2900 H         7 CUB7        0.0000 
     73 DU          6.8000   92.8900   25.8200 H         7 CUB7        0.0000 
     74 DU          8.8200   92.1400   27.2700 H         7 CUB7        0.0000 
     75 DU          7.5400   92.7200   27.8000 H         7 CUB7        0.0000 
@<TRIPOS>BOND
@<TRIPOS>SUBSTRUCTURE
     1 SER1        1 GROUP   
     2 ALA2       16 GROUP   
     3 ASP3       28 GROUP   
     4 LYS4       33 GROUP   
     5 PHE5       47 GROUP   
     6 GLY6       56 GROUP   
     7 CUB7       71 GROUP   
@<TRIPOS>SET

