#    Name: 6t2b_3_NAD
#    Modification time : Fri May 22 19:26:24 2020

@<TRIPOS>MOLECULE
6t2b_3_NAD
   44    48     1     0     1
SMALL
NO_CHARGES


@<TRIPOS>ATOM
      1 PA         55.3530  106.6520   45.0350 P.3       1 NAD502      0.0000 
      2 O1A        54.9950  108.1190   45.1220 O.co2     1 NAD502      0.0000 
      3 O2A        56.2400  106.3340   43.8490 O.co2     1 NAD502      0.0000 
      4 O5B        55.9820  106.2140   46.4860 O.3       1 NAD502      0.0000 
      5 C5B        56.8000  105.0560   46.5550 C.3       1 NAD502      0.0000 
      6 C4B        57.9770  105.3570   47.4660 C.3       1 NAD502      0.0000 
      7 O4B        58.5290  104.0500   47.9090 O.3       1 NAD502      0.0000 
      8 C3B        59.0270  106.0810   46.7170 C.3       1 NAD502      0.0000 
      9 O3B        59.2900  107.3410   47.3770 O.3       1 NAD502      0.0000 
     10 C2B        60.2150  105.2220   46.7430 C.3       1 NAD502      0.0000 
     11 O2B        61.4250  106.0370   46.9760 O.3       1 NAD502      0.0000 
     12 C1B        59.9890  104.3150   47.8870 C.3       1 NAD502      0.0000 
     13 N9A        60.7090  103.0860   47.7950 N.pl3     1 NAD502      0.0000 
     14 C8A        60.6990  102.2620   46.7510 C.2       1 NAD502      0.0000 
     15 N7A        61.4950  101.2260   47.0500 N.2       1 NAD502      0.0000 
     16 C5A        62.0320  101.4440   48.3970 C.ar      1 NAD502      0.0000 
     17 C6A        62.8840  100.7860   49.2640 C.ar      1 NAD502      0.0000 
     18 N6A        63.4850   99.5330   48.8960 N.pl3     1 NAD502      0.0000 
     19 N1A        63.1390  101.3320   50.4560 N.ar      1 NAD502      0.0000 
     20 C2A        62.6010  102.4830   50.8190 C.ar      1 NAD502      0.0000 
     21 N3A        61.7780  103.1540   50.0180 N.ar      1 NAD502      0.0000 
     22 C4A        61.4740  102.6800   48.8280 C.ar      1 NAD502      0.0000 
     23 O3         53.9920  105.7280   44.8370 O.3       1 NAD502      0.0000 
     24 PN         52.7200  105.8350   45.8500 P.3       1 NAD502      0.0000 
     25 O1N        53.0430  106.4870   47.1040 O.co2     1 NAD502      0.0000 
     26 O2N        51.6630  106.6520   45.2550 O.co2     1 NAD502      0.0000 
     27 O5D        52.1720  104.3130   46.1000 O.3       1 NAD502      0.0000 
     28 C5D        52.9410  103.4090   46.8130 C.3       1 NAD502      0.0000 
     29 C4D        52.0550  102.1960   47.0460 C.3       1 NAD502      0.0000 
     30 O4D        50.7850  102.6290   47.7190 O.3       1 NAD502      0.0000 
     31 C3D        51.6380  101.5530   45.7940 C.3       1 NAD502      0.0000 
     32 O3D        51.5350  100.1380   46.1260 O.3       1 NAD502      0.0000 
     33 C2D        50.3230  102.0920   45.4520 C.3       1 NAD502      0.0000 
     34 O2D        49.5990  101.1290   44.5780 O.3       1 NAD502      0.0000 
     35 C1D        49.6750  102.2660   46.7490 C.3       1 NAD502      0.0000 
     36 N1N        48.7000  103.3250   46.8850 N.pl3     1 NAD502      0.0000 
     37 C2N        47.4960  103.0150   47.5030 C.ar      1 NAD502      0.0000 
     38 C3N        46.5190  103.9810   47.7070 C.ar      1 NAD502      0.0000 
     39 C7N        45.1980  103.5520   48.3860 C.2       1 NAD502      0.0000 
     40 O7N        44.2340  104.2390   48.3230 O.2       1 NAD502      0.0000 
     41 N7N        45.1730  102.3060   49.0920 N.am      1 NAD502      0.0000 
     42 C4N        46.7710  105.3640   47.2770 C.ar      1 NAD502      0.0000 
     43 C5N        48.0500  105.6460   46.6480 C.ar      1 NAD502      0.0000 
     44 C6N        48.9790  104.6210   46.4800 C.ar      1 NAD502      0.0000 
@<TRIPOS>BOND
     1    1    2 ar   
     2    1    3 ar   
     3    1    4 1    
     4    1   23 1    
     5    4    5 1    
     6    5    6 1    
     7    6    7 1    
     8    6    8 1    
     9    7   12 1    
    10    8    9 1    
    11    8   10 1    
    12   10   11 1    
    13   10   12 1    
    14   12   13 1    
    15   13   14 1    
    16   13   22 1    
    17   14   15 2    
    18   15   16 1    
    19   16   17 ar   
    20   16   22 ar   
    21   17   18 1    
    22   17   19 ar   
    23   19   20 ar   
    24   20   21 ar   
    25   21   22 ar   
    26   23   24 1    
    27   24   25 ar   
    28   24   26 ar   
    29   24   27 1    
    30   27   28 1    
    31   28   29 1    
    32   29   30 1    
    33   29   31 1    
    34   30   35 1    
    35   31   32 1    
    36   31   33 1    
    37   33   34 1    
    38   33   35 1    
    39   35   36 1    
    40   36   37 ar   
    41   36   44 ar   
    42   37   38 ar   
    43   38   39 1    
    44   38   42 ar   
    45   39   40 2    
    46   39   41 am   
    47   42   43 ar   
    48   43   44 ar   
@<TRIPOS>SUBSTRUCTURE
     1 NAD502      1 GROUP   
@<TRIPOS>SET
ATOM$ORANGE STATIC     ATOMS   COLORGROUP SYSTEM 
42 5 5 6 6 8 8 10 10 12 12 14 14 16 16 17 17 20 \
20 22 22 28 28 29 29 31 31 33 33 35 35 37 37 38 38 39 \
39 42 42 43 43 44 44 

