#    Name: 6t2b_4_NAD_CAVITY_N1_8
#    Modification time : Fri May 22 19:26:32 2020

@<TRIPOS>MOLECULE
6t2b_4_NAD_CAVITY_N1_8
   73     0     7     0     0
SMALL
NO_CHARGES


@<TRIPOS>ATOM
      1 OG         -9.8300   59.1300   82.5700 O.3       1 SER1        0.0000 
      2 OG        -11.1100   59.7100   83.1000 O.3       1 SER1        0.0000 
      3 OG         -9.8700   58.0700   83.6400 O.3       1 SER1        0.0000 
      4 OG        -11.1500   58.6500   84.1600 O.3       1 SER1        0.0000 
      5 OG         -9.0000   61.0800   82.4300 O.3       1 SER1        0.0000 
      6 OG         -7.7700   59.4400   82.9600 O.3       1 SER1        0.0000 
      7 OG         -9.0500   60.0200   83.4900 O.3       1 SER1        0.0000 
      8 OG        -10.3200   60.6000   84.0200 O.3       1 SER1        0.0000 
      9 OG         -7.8100   58.3800   84.0300 O.3       1 SER1        0.0000 
     10 OG         -9.0900   58.9600   84.5500 O.3       1 SER1        0.0000 
     11 OG        -10.4100   58.4900   86.1400 O.3       1 SER1        0.0000 
     12 OG        -10.4500   57.4300   87.2100 O.3       1 SER1        0.0000 
     13 OG         -8.2200   61.9700   83.3500 O.3       1 SER1        0.0000 
     14 OG         -9.5000   62.5500   83.8700 O.3       1 SER1        0.0000 
     15 OG         -6.9800   60.3300   83.8800 O.3       1 SER1        0.0000 
     16 OG         -9.5400   61.4900   84.9300 O.3       1 SER1        0.0000 
     17 OG         -5.7500   58.6900   84.4200 O.3       1 SER1        0.0000 
     18 OG         -7.0700   58.2200   86.0100 O.3       1 SER1        0.0000 
     19 OG         -8.4400   56.6800   88.6600 O.3       1 SER1        0.0000 
     20 OG         -4.9200   60.6400   84.2700 O.3       1 SER1        0.0000 
     21 O          -8.4800   55.6300   89.7200 O.2       2 ALA2        0.0000 
     22 N          -9.7600   56.2100   90.2500 N.am      2 ALA2        0.0000 
     23 N         -11.0400   56.7900   90.7800 N.am      2 ALA2        0.0000 
     24 N         -10.2500   57.6800   91.6900 N.am      2 ALA2        0.0000 
     25 N          -9.4700   58.5700   92.6100 N.am      2 ALA2        0.0000 
     26 O          -8.6000   61.5800   91.4000 O.2       2 ALA2        0.0000 
     27 O          -9.9200   61.1000   92.9900 O.2       2 ALA2        0.0000 
     28 N          -9.9700   60.0400   94.0600 N.am      2 ALA2        0.0000 
     29 O          -8.7300   58.4000   94.5900 O.2       2 ALA2        0.0000 
     30 O          -7.8600   61.4100   93.3900 O.2       2 ALA2        0.0000 
     31 O          -9.1400   61.9900   93.9100 O.2       2 ALA2        0.0000 
     32 O          -7.9000   60.3500   94.4500 O.2       2 ALA2        0.0000 
     33 OD1       -12.4300   59.2300   84.6900 O.co2     3 ASP3        0.0000 
     34 OD1       -12.4700   58.1800   85.7500 O.co2     3 ASP3        0.0000 
     35 OD1        -7.0300   59.2700   84.9500 O.co2     3 ASP3        0.0000 
     36 OD1        -4.9700   59.5800   85.3400 O.co2     3 ASP3        0.0000 
     37 NZ        -11.1900   57.6000   85.2200 N.4       4 LYS4        0.0000 
     38 NZ        -10.5000   56.3700   88.2700 N.4       4 LYS4        0.0000 
     39 NZ         -8.3100   59.8500   85.4700 N.4       4 LYS4        0.0000 
     40 NZ         -9.5800   60.4400   86.0000 N.4       4 LYS4        0.0000 
     41 NZ         -8.3500   58.8000   86.5300 N.4       4 LYS4        0.0000 
     42 NZ         -9.6300   59.3800   87.0600 N.4       4 LYS4        0.0000 
     43 NZ         -8.3900   57.7400   87.6000 N.4       4 LYS4        0.0000 
     44 NZ         -9.6700   58.3200   88.1200 N.4       4 LYS4        0.0000 
     45 NZ         -9.7100   57.2600   89.1900 N.4       4 LYS4        0.0000 
     46 NZ         -6.2400   60.1600   85.8600 N.4       4 LYS4        0.0000 
     47 NZ         -7.5200   60.7500   86.3900 N.4       4 LYS4        0.0000 
     48 NZ         -7.6500   57.5700   89.5800 N.4       4 LYS4        0.0000 
     49 NZ         -8.9300   58.1500   90.1100 N.4       4 LYS4        0.0000 
     50 NZ         -9.3800   60.6800   90.4900 N.4       4 LYS4        0.0000 
     51 NZ         -8.1500   59.0500   91.0200 N.4       4 LYS4        0.0000 
     52 CZ        -11.9300   57.7600   83.2400 C.ar      5 PHE5        0.0000 
     53 CZ         -6.1600   62.2800   83.7400 C.ar      5 PHE5        0.0000 
     54 CZ         -8.9700   57.1000   91.1700 C.ar      5 PHE5        0.0000 
     55 CZ         -8.6900   59.4600   93.5300 C.ar      5 PHE5        0.0000 
     56 CA        -11.6500   60.1300   85.6100 C.3       6 GLY6        0.0000 
     57 CA        -11.6900   59.0700   86.6700 C.3       6 GLY6        0.0000 
     58 CA        -11.7300   58.0100   87.7300 C.3       6 GLY6        0.0000 
     59 CA        -11.7800   56.9500   88.8000 C.3       6 GLY6        0.0000 
     60 CA        -10.5400   55.3200   89.3300 C.3       6 GLY6        0.0000 
     61 CA        -10.8600   61.0200   86.5200 C.3       6 GLY6        0.0000 
     62 CA        -10.9100   59.9600   87.5900 C.3       6 GLY6        0.0000 
     63 CA        -10.9900   57.8500   89.7100 C.3       6 GLY6        0.0000 
     64 CA        -10.1700   59.7900   89.5700 C.3       6 GLY6        0.0000 
     65 CA        -10.2100   58.7400   90.6300 C.3       6 GLY6        0.0000 
     66 CA         -9.4300   59.6300   91.5500 C.3       6 GLY6        0.0000 
     67 CA         -9.5100   57.5100   93.6800 C.3       6 GLY6        0.0000 
     68 CA         -7.3700   59.9400   91.9400 C.3       6 GLY6        0.0000 
     69 CA         -8.6400   60.5200   92.4700 C.3       6 GLY6        0.0000 
     70 CA         -9.1800   60.9300   94.9700 C.3       6 GLY6        0.0000 
     71 DU        -10.3700   59.5400   85.0800 H         7 CUB7        0.0000 
     72 DU         -8.2600   60.9100   84.4100 H         7 CUB7        0.0000 
     73 DU         -6.2000   61.2200   84.8000 H         7 CUB7        0.0000 
@<TRIPOS>BOND
@<TRIPOS>SUBSTRUCTURE
     1 SER1        1 GROUP   
     2 ALA2       21 GROUP   
     3 ASP3       33 GROUP   
     4 LYS4       37 GROUP   
     5 PHE5       52 GROUP   
     6 GLY6       56 GROUP   
     7 CUB7       71 GROUP   
@<TRIPOS>SET

