#    Name: 6t2b_4_NAD
#    Modification time : Fri May 22 19:26:30 2020

@<TRIPOS>MOLECULE
6t2b_4_NAD
   44    48     1     0     1
SMALL
NO_CHARGES


@<TRIPOS>ATOM
      1 PA         -8.0320   60.8540   94.1160 P.3       1 NAD502      0.0000 
      2 O1A        -8.1530   62.3290   93.8260 O.co2     1 NAD502      0.0000 
      3 O2A        -6.8010   60.5170   94.9360 O.co2     1 NAD502      0.0000 
      4 O5B        -9.4460   60.3740   94.8000 O.3       1 NAD502      0.0000 
      5 C5B        -9.4800   59.1710   95.5570 C.3       1 NAD502      0.0000 
      6 C4B       -10.2930   59.4310   96.8180 C.3       1 NAD502      0.0000 
      7 O4B       -10.7590   58.1240   97.3540 O.3       1 NAD502      0.0000 
      8 C3B        -9.4130   60.0520   97.8300 C.3       1 NAD502      0.0000 
      9 O3B        -9.9060   61.3760   98.1200 O.3       1 NAD502      0.0000 
     10 C2B        -9.4370   59.1800   99.0130 C.3       1 NAD502      0.0000 
     11 O2B        -9.5980   59.9550  100.2640 O.3       1 NAD502      0.0000 
     12 C1B       -10.6060   58.3010   98.8240 C.3       1 NAD502      0.0000 
     13 N9A       -10.4520   57.0420   99.4780 N.pl3     1 NAD502      0.0000 
     14 C8A        -9.4050   56.2260   99.3560 C.2       1 NAD502      0.0000 
     15 N7A        -9.6280   55.1460  100.1250 N.2       1 NAD502      0.0000 
     16 C5A       -10.9330   55.3290  100.7770 C.ar      1 NAD502      0.0000 
     17 C6A       -11.7270   54.6270  101.6650 C.ar      1 NAD502      0.0000 
     18 N6A       -11.3100   53.3530  102.1840 N.pl3     1 NAD502      0.0000 
     19 N1A       -12.9020   55.1510  102.0300 N.ar      1 NAD502      0.0000 
     20 C2A       -13.3080   56.3210  101.5720 C.ar      1 NAD502      0.0000 
     21 N3A       -12.5800   57.0380  100.7220 N.ar      1 NAD502      0.0000 
     22 C4A       -11.4160   56.5900  100.3080 C.ar      1 NAD502      0.0000 
     23 O3         -7.9150   59.9910   92.7020 O.3       1 NAD502      0.0000 
     24 PN         -9.0530   60.1170   91.5360 P.3       1 NAD502      0.0000 
     25 O1N       -10.2970   60.6980   91.9860 O.co2     1 NAD502      0.0000 
     26 O2N        -8.5880   61.0310   90.4950 O.co2     1 NAD502      0.0000 
     27 O5D        -9.3680   58.6250   90.9500 O.3       1 NAD502      0.0000 
     28 C5D       -10.0450   57.7080   91.7320 C.3       1 NAD502      0.0000 
     29 C4D       -10.3700   56.5580   90.8060 C.3       1 NAD502      0.0000 
     30 O4D       -11.0820   57.1140   89.6130 O.3       1 NAD502      0.0000 
     31 C3D        -9.1510   55.9160   90.3050 C.3       1 NAD502      0.0000 
     32 O3D        -9.4860   54.5110   90.1440 O.3       1 NAD502      0.0000 
     33 C2D        -8.8760   56.4900   88.9970 C.3       1 NAD502      0.0000 
     34 O2D        -8.0890   55.5290   88.1850 O.3       1 NAD502      0.0000 
     35 C1D       -10.2070   56.6960   88.4520 C.3       1 NAD502      0.0000 
     36 N1N       -10.3690   57.7740   87.5220 N.pl3     1 NAD502      0.0000 
     37 C2N       -11.1110   57.4940   86.3820 C.ar      1 NAD502      0.0000 
     38 C3N       -11.3640   58.4810   85.4470 C.ar      1 NAD502      0.0000 
     39 C7N       -12.1800   58.1060   84.1840 C.2       1 NAD502      0.0000 
     40 O7N       -12.1910   58.8120   83.2400 O.2       1 NAD502      0.0000 
     41 N7N       -12.9050   56.8750   84.1610 N.am      1 NAD502      0.0000 
     42 C4N       -10.8450   59.8360   85.6970 C.ar      1 NAD502      0.0000 
     43 C5N       -10.0750   60.0780   86.9050 C.ar      1 NAD502      0.0000 
     44 C6N        -9.8730   59.0360   87.7990 C.ar      1 NAD502      0.0000 
@<TRIPOS>BOND
     1    1    2 ar   
     2    1    3 ar   
     3    1    4 1    
     4    1   23 1    
     5    4    5 1    
     6    5    6 1    
     7    6    7 1    
     8    6    8 1    
     9    7   12 1    
    10    8    9 1    
    11    8   10 1    
    12   10   11 1    
    13   10   12 1    
    14   12   13 1    
    15   13   14 1    
    16   13   22 1    
    17   14   15 2    
    18   15   16 1    
    19   16   17 ar   
    20   16   22 ar   
    21   17   18 1    
    22   17   19 ar   
    23   19   20 ar   
    24   20   21 ar   
    25   21   22 ar   
    26   23   24 1    
    27   24   25 ar   
    28   24   26 ar   
    29   24   27 1    
    30   27   28 1    
    31   28   29 1    
    32   29   30 1    
    33   29   31 1    
    34   30   35 1    
    35   31   32 1    
    36   31   33 1    
    37   33   34 1    
    38   33   35 1    
    39   35   36 1    
    40   36   37 ar   
    41   36   44 ar   
    42   37   38 ar   
    43   38   39 1    
    44   38   42 ar   
    45   39   40 2    
    46   39   41 am   
    47   42   43 ar   
    48   43   44 ar   
@<TRIPOS>SUBSTRUCTURE
     1 NAD502      1 GROUP   
@<TRIPOS>SET
ATOM$ORANGE STATIC     ATOMS   COLORGROUP SYSTEM 
42 5 5 6 6 8 8 10 10 12 12 14 14 16 16 17 17 20 \
20 22 22 28 28 29 29 31 31 33 33 35 35 37 37 38 38 39 \
39 42 42 43 43 44 44 

