#    Name: 6gw3_1_COA
#    Modification time : Fri May 22 19:26:42 2020

@<TRIPOS>MOLECULE
6gw3_1_COA
   48    50     1     0     1
SMALL
NO_CHARGES


@<TRIPOS>ATOM
      1 N1A       -29.2430    2.2830  -27.2000 N.ar      1 COA401      0.0000 
      2 C2A       -30.1470    1.2900  -26.9480 C.ar      1 COA401      0.0000 
      3 N3A       -31.4590    1.4400  -26.8800 N.ar      1 COA401      0.0000 
      4 C4A       -31.9680    2.6970  -27.1030 C.ar      1 COA401      0.0000 
      5 C5A       -31.0950    3.8290  -27.3650 C.ar      1 COA401      0.0000 
      6 C6A       -29.6520    3.5620  -27.4550 C.ar      1 COA401      0.0000 
      7 N6A       -28.7570    4.5380  -27.7070 N.pl3     1 COA401      0.0000 
      8 N7A       -31.9060    4.9240  -27.4840 N.2       1 COA401      0.0000 
      9 C8A       -33.2090    4.5220  -27.3650 C.2       1 COA401      0.0000 
     10 N9A       -33.2140    3.1860  -27.0980 N.pl3     1 COA401      0.0000 
     11 C1B       -34.3730    2.3530  -26.8210 C.3       1 COA401      0.0000 
     12 C2B       -34.9170    2.6310  -25.3990 C.3       1 COA401      0.0000 
     13 O2B       -34.3030    1.8500  -24.3480 O.3       1 COA401      0.0000 
     14 C3B       -36.4170    2.3270  -25.6210 C.3       1 COA401      0.0000 
     15 O3B       -36.5890    0.9030  -25.4770 O.3       1 COA401      0.0000 
     16 P3B       -37.3950    0.2100  -24.2320 P.3       1 COA401      0.0000 
     17 O7A       -37.4700   -1.2770  -24.6140 O.co2     1 COA401      0.0000 
     18 O8A       -36.4060    0.5560  -23.1160 O.co2     1 COA401      0.0000 
     19 O9A       -38.6840    1.0230  -24.1090 O.co2     1 COA401      0.0000 
     20 C4B       -36.7290    2.7420  -27.0650 C.3       1 COA401      0.0000 
     21 O4B       -35.4060    2.7850  -27.6970 O.3       1 COA401      0.0000 
     22 C5B       -37.3990    4.1100  -27.2590 C.3       1 COA401      0.0000 
     23 O5B       -36.5490    5.1110  -26.6410 O.3       1 COA401      0.0000 
     24 P1A       -37.1670    6.3130  -25.6780 P.3       1 COA401      0.0000 
     25 O1A       -35.9900    6.7600  -24.7130 O.co2     1 COA401      0.0000 
     26 O2A       -38.5730    5.8940  -25.2730 O.co2     1 COA401      0.0000 
     27 O3A       -37.2800    7.5610  -26.7580 O.3       1 COA401      0.0000 
     28 P2A       -38.3010    7.8360  -27.9790 P.3       1 COA401      0.0000 
     29 O4A       -39.1550    9.0860  -27.5610 O.co2     1 COA401      0.0000 
     30 O5A       -39.0030    6.4700  -28.3210 O.co2     1 COA401      0.0000 
     31 O6A       -37.2430    8.3320  -29.1060 O.3       1 COA401      0.0000 
     32 CBP       -35.1220    8.2120  -30.2500 C.3       1 COA401      0.0000 
     33 CCP       -36.2700    7.4150  -29.6280 C.3       1 COA401      0.0000 
     34 CDP       -35.6160    9.0690  -31.4710 C.3       1 COA401      0.0000 
     35 CEP       -34.1040    7.1580  -30.7460 C.3       1 COA401      0.0000 
     36 CAP       -34.4910    9.1310  -29.1670 C.3       1 COA401      0.0000 
     37 OAP       -34.1310    8.3150  -28.0070 O.3       1 COA401      0.0000 
     38 C9P       -33.2850    9.9500  -29.6380 C.2       1 COA401      0.0000 
     39 O9P       -33.4590   10.9510  -30.3710 O.2       1 COA401      0.0000 
     40 N8P       -32.0690    9.5560  -29.1500 N.am      1 COA401      0.0000 
     41 C7P       -30.8050   10.2340  -29.4660 C.3       1 COA401      0.0000 
     42 C6P       -30.1050    9.5190  -30.6160 C.3       1 COA401      0.0000 
     43 C5P       -28.6330    9.8850  -30.6780 C.2       1 COA401      0.0000 
     44 O5P       -27.8620    9.6580  -29.7600 O.2       1 COA401      0.0000 
     45 N4P       -28.1920   10.4510  -31.8260 N.am      1 COA401      0.0000 
     46 C3P       -26.7680   10.8090  -32.0310 C.3       1 COA401      0.0000 
     47 C2P       -26.1500    9.9430  -33.2110 C.3       1 COA401      0.0000 
     48 S1P       -24.3630   10.0450  -33.2430 S.3       1 COA401      0.0000 
@<TRIPOS>BOND
     1    1    2 ar   
     2    1    6 ar   
     3    2    3 ar   
     4    3    4 ar   
     5    4    5 ar   
     6    4   10 1    
     7    5    6 ar   
     8    5    8 1    
     9    6    7 1    
    10    8    9 2    
    11    9   10 1    
    12   10   11 1    
    13   11   12 1    
    14   11   21 1    
    15   12   13 1    
    16   12   14 1    
    17   14   15 1    
    18   14   20 1    
    19   15   16 1    
    20   16   17 ar   
    21   16   18 ar   
    22   16   19 ar   
    23   20   21 1    
    24   20   22 1    
    25   22   23 1    
    26   23   24 1    
    27   24   25 ar   
    28   24   26 ar   
    29   24   27 1    
    30   27   28 1    
    31   28   29 ar   
    32   28   30 ar   
    33   28   31 1    
    34   31   33 1    
    35   32   33 1    
    36   32   34 1    
    37   32   35 1    
    38   32   36 1    
    39   36   37 1    
    40   36   38 1    
    41   38   39 2    
    42   38   40 am   
    43   40   41 1    
    44   41   42 1    
    45   42   43 1    
    46   43   44 2    
    47   43   45 am   
    48   45   46 1    
    49   46   47 1    
    50   47   48 1    
@<TRIPOS>SUBSTRUCTURE
     1 COA401      1 GROUP   
@<TRIPOS>SET
ATOM$ORANGE STATIC     ATOMS   COLORGROUP SYSTEM 
42 2 2 4 4 5 5 6 6 9 9 11 11 12 12 14 14 20 \
20 22 22 32 32 33 33 34 34 35 35 36 36 38 38 41 41 42 \
42 43 43 46 46 47 47 

