#    Name: 6gw3_2_COA
#    Modification time : Fri May 22 19:26:48 2020

@<TRIPOS>MOLECULE
6gw3_2_COA
   48    50     1     0     1
SMALL
NO_CHARGES


@<TRIPOS>ATOM
      1 N1A         6.5600   -2.5850  -59.3960 N.ar      1 COA401      0.0000 
      2 C2A         6.9580   -3.8220  -59.8440 C.ar      1 COA401      0.0000 
      3 N3A         8.2690   -4.1940  -59.9360 N.ar      1 COA401      0.0000 
      4 C4A         9.2310   -3.2560  -59.5870 C.ar      1 COA401      0.0000 
      5 C5A         8.8630   -1.9010  -59.0980 C.ar      1 COA401      0.0000 
      6 C6A         7.4460   -1.6170  -59.0240 C.ar      1 COA401      0.0000 
      7 N6A         7.0420   -0.3810  -58.6280 N.pl3     1 COA401      0.0000 
      8 N7A        10.0200   -1.1900  -58.8350 N.2       1 COA401      0.0000 
      9 C8A        11.0400   -2.0390  -59.1280 C.2       1 COA401      0.0000 
     10 N9A        10.5890   -3.2480  -59.5570 N.pl3     1 COA401      0.0000 
     11 C1B        11.4300   -4.4000  -59.9700 C.3       1 COA401      0.0000 
     12 C2B        12.1000   -4.1520  -61.3370 C.3       1 COA401      0.0000 
     13 O2B        11.2610   -4.4150  -62.4920 O.3       1 COA401      0.0000 
     14 C3B        13.3130   -5.0570  -61.2400 C.3       1 COA401      0.0000 
     15 O3B        12.9540   -6.3930  -61.6020 O.3       1 COA401      0.0000 
     16 P3B        13.3090   -7.1280  -62.9980 P.3       1 COA401      0.0000 
     17 O7A        12.8470   -8.5990  -62.7650 O.co2     1 COA401      0.0000 
     18 O8A        12.4520   -6.3090  -63.9680 O.co2     1 COA401      0.0000 
     19 O9A        14.8290   -7.0290  -63.2910 O.co2     1 COA401      0.0000 
     20 C4B        13.6670   -4.9940  -59.7480 C.3       1 COA401      0.0000 
     21 O4B        12.4780   -4.5290  -59.0360 O.3       1 COA401      0.0000 
     22 C5B        14.8290   -4.0240  -59.5360 C.3       1 COA401      0.0000 
     23 O5B        14.4050   -2.7010  -59.9660 O.3       1 COA401      0.0000 
     24 P1A        15.5000   -1.6490  -60.6360 P.3       1 COA401      0.0000 
     25 O1A        14.6300   -0.6350  -61.4110 O.co2     1 COA401      0.0000 
     26 O2A        16.5490   -2.4230  -61.4010 O.co2     1 COA401      0.0000 
     27 O3A        16.0520   -0.7570  -59.3400 O.3       1 COA401      0.0000 
     28 P2A        17.0720   -1.1440  -58.1580 P.3       1 COA401      0.0000 
     29 O4A        18.3870   -0.2990  -58.2990 O.co2     1 COA401      0.0000 
     30 O5A        17.0990   -2.6680  -57.9140 O.co2     1 COA401      0.0000 
     31 O6A        16.2250   -0.4970  -56.9590 O.3       1 COA401      0.0000 
     32 CBP        14.1930   -0.0080  -55.7680 C.3       1 COA401      0.0000 
     33 CCP        14.9530   -1.0760  -56.5460 C.3       1 COA401      0.0000 
     34 CDP        14.9700    0.3840  -54.4880 C.3       1 COA401      0.0000 
     35 CEP        12.8770   -0.6440  -55.3520 C.3       1 COA401      0.0000 
     36 CAP        13.9790    1.2390  -56.6710 C.3       1 COA401      0.0000 
     37 OAP        13.3680    0.8800  -57.9360 O.3       1 COA401      0.0000 
     38 C9P        13.2540    2.4230  -56.0410 C.2       1 COA401      0.0000 
     39 O9P        13.7890    3.1830  -55.2020 O.2       1 COA401      0.0000 
     40 N8P        12.0450    2.6390  -56.5260 N.am      1 COA401      0.0000 
     41 C7P        11.1070    3.6940  -56.0530 C.3       1 COA401      0.0000 
     42 C6P        10.1800    3.1950  -54.9140 C.3       1 COA401      0.0000 
     43 C5P         8.9740    4.0820  -54.7990 C.2       1 COA401      0.0000 
     44 O5P         8.2310    4.2950  -55.7940 O.2       1 COA401      0.0000 
     45 N4P         8.7090    4.6500  -53.6450 N.am      1 COA401      0.0000 
     46 C3P         7.5660    5.4790  -53.4000 C.3       1 COA401      0.0000 
     47 C2P         6.6350    4.8280  -52.2760 C.3       1 COA401      0.0000 
     48 S1P         5.0060    5.5820  -52.1570 S.3       1 COA401      0.0000 
@<TRIPOS>BOND
     1    1    2 ar   
     2    1    6 ar   
     3    2    3 ar   
     4    3    4 ar   
     5    4    5 ar   
     6    4   10 1    
     7    5    6 ar   
     8    5    8 1    
     9    6    7 1    
    10    8    9 2    
    11    9   10 1    
    12   10   11 1    
    13   11   12 1    
    14   11   21 1    
    15   12   13 1    
    16   12   14 1    
    17   14   15 1    
    18   14   20 1    
    19   15   16 1    
    20   16   17 ar   
    21   16   18 ar   
    22   16   19 ar   
    23   20   21 1    
    24   20   22 1    
    25   22   23 1    
    26   23   24 1    
    27   24   25 ar   
    28   24   26 ar   
    29   24   27 1    
    30   27   28 1    
    31   28   29 ar   
    32   28   30 ar   
    33   28   31 1    
    34   31   33 1    
    35   32   33 1    
    36   32   34 1    
    37   32   35 1    
    38   32   36 1    
    39   36   37 1    
    40   36   38 1    
    41   38   39 2    
    42   38   40 am   
    43   40   41 1    
    44   41   42 1    
    45   42   43 1    
    46   43   44 2    
    47   43   45 am   
    48   45   46 1    
    49   46   47 1    
    50   47   48 1    
@<TRIPOS>SUBSTRUCTURE
     1 COA401      1 GROUP   
@<TRIPOS>SET
ATOM$ORANGE STATIC     ATOMS   COLORGROUP SYSTEM 
42 2 2 4 4 5 5 6 6 9 9 11 11 12 12 14 14 20 \
20 22 22 32 32 33 33 34 34 35 35 36 36 38 38 41 41 42 \
42 43 43 46 46 47 47 

