#    Name: 6gw3_3_COA
#    Modification time : Fri May 22 19:26:55 2020

@<TRIPOS>MOLECULE
6gw3_3_COA
   48    50     1     0     1
SMALL
NO_CHARGES


@<TRIPOS>ATOM
      1 N1A         5.3080   58.4880   18.0160 N.ar      1 COA400      0.0000 
      2 C2A         6.1670   59.4370   18.4290 C.ar      1 COA400      0.0000 
      3 N3A         7.4810   59.2240   18.5120 N.ar      1 COA400      0.0000 
      4 C4A         7.9890   57.9830   18.1680 C.ar      1 COA400      0.0000 
      5 C5A         7.1120   56.8890   17.7160 C.ar      1 COA400      0.0000 
      6 C6A         5.6770   57.2210   17.6780 C.ar      1 COA400      0.0000 
      7 N6A         4.7660   56.2840   17.2600 N.pl3     1 COA400      0.0000 
      8 N7A         7.8800   55.7800   17.4510 N.2       1 COA400      0.0000 
      9 C8A         9.1590   56.1320   17.6970 C.2       1 COA400      0.0000 
     10 N9A         9.2320   57.4390   18.1370 N.pl3     1 COA400      0.0000 
     11 C1B        10.4300   58.1900   18.5130 C.3       1 COA400      0.0000 
     12 C2B        11.0260   57.6470   19.8310 C.3       1 COA400      0.0000 
     13 O2B        10.3730   58.2230   20.9630 O.3       1 COA400      0.0000 
     14 C3B        12.5000   58.0420   19.6380 C.3       1 COA400      0.0000 
     15 O3B        12.6740   59.4260   20.0090 O.3       1 COA400      0.0000 
     16 P3B        13.2680   59.8560   21.4600 P.3       1 COA400      0.0000 
     17 O7A        13.4820   61.3880   21.3610 O.co2     1 COA400      0.0000 
     18 O8A        12.1690   59.4230   22.4430 O.co2     1 COA400      0.0000 
     19 O9A        14.5550   59.0530   21.5750 O.co2     1 COA400      0.0000 
     20 C4B        12.7150   57.8770   18.1260 C.3       1 COA400      0.0000 
     21 O4B        11.4050   57.9650   17.5050 O.3       1 COA400      0.0000 
     22 C5B        13.3390   56.5390   17.7670 C.3       1 COA400      0.0000 
     23 O5B        12.5030   55.5190   18.3610 O.3       1 COA400      0.0000 
     24 P1A        13.1150   54.1780   19.0580 P.3       1 COA400      0.0000 
     25 O1A        12.0630   53.4840   19.9570 O.co2     1 COA400      0.0000 
     26 O2A        14.5040   54.5350   19.6250 O.co2     1 COA400      0.0000 
     27 O3A        13.1650   53.1750   17.7860 O.3       1 COA400      0.0000 
     28 P2A        14.2850   52.9850   16.6260 P.3       1 COA400      0.0000 
     29 O4A        15.1010   51.7080   16.8340 O.co2     1 COA400      0.0000 
     30 O5A        14.9880   54.3370   16.3860 O.co2     1 COA400      0.0000 
     31 O6A        13.2250   52.7030   15.4030 O.3       1 COA400      0.0000 
     32 CBP        11.1160   53.0540   14.2490 C.3       1 COA400      0.0000 
     33 CCP        12.3200   53.7270   14.9630 C.3       1 COA400      0.0000 
     34 CDP        11.5610   52.4750   12.8580 C.3       1 COA400      0.0000 
     35 CEP        10.1410   54.1860   13.9780 C.3       1 COA400      0.0000 
     36 CAP        10.4740   51.9910   15.2040 C.3       1 COA400      0.0000 
     37 OAP        10.0900   52.6020   16.4300 O.3       1 COA400      0.0000 
     38 C9P         9.2760   51.2230   14.6520 C.2       1 COA400      0.0000 
     39 O9P         9.4750   50.3470   13.7660 O.2       1 COA400      0.0000 
     40 N8P         8.0460   51.5510   15.1980 N.am      1 COA400      0.0000 
     41 C7P         6.8210   50.9330   14.6960 C.3       1 COA400      0.0000 
     42 C6P         6.1070   51.8460   13.6700 C.3       1 COA400      0.0000 
     43 C5P         4.6050   51.4660   13.5960 C.2       1 COA400      0.0000 
     44 O5P         3.8970   51.5690   14.6050 O.2       1 COA400      0.0000 
     45 N4P         4.0990   51.0580   12.4090 N.am      1 COA400      0.0000 
     46 C3P         2.6700   50.8270   12.1830 C.3       1 COA400      0.0000 
     47 C2P         2.1400   51.8110   11.0750 C.3       1 COA400      0.0000 
     48 S1P         0.3550   51.7110   10.9270 S.3       1 COA400      0.0000 
@<TRIPOS>BOND
     1    1    2 ar   
     2    1    6 ar   
     3    2    3 ar   
     4    3    4 ar   
     5    4    5 ar   
     6    4   10 1    
     7    5    6 ar   
     8    5    8 1    
     9    6    7 1    
    10    8    9 2    
    11    9   10 1    
    12   10   11 1    
    13   11   12 1    
    14   11   21 1    
    15   12   13 1    
    16   12   14 1    
    17   14   15 1    
    18   14   20 1    
    19   15   16 1    
    20   16   17 ar   
    21   16   18 ar   
    22   16   19 ar   
    23   20   21 1    
    24   20   22 1    
    25   22   23 1    
    26   23   24 1    
    27   24   25 ar   
    28   24   26 ar   
    29   24   27 1    
    30   27   28 1    
    31   28   29 ar   
    32   28   30 ar   
    33   28   31 1    
    34   31   33 1    
    35   32   33 1    
    36   32   34 1    
    37   32   35 1    
    38   32   36 1    
    39   36   37 1    
    40   36   38 1    
    41   38   39 2    
    42   38   40 am   
    43   40   41 1    
    44   41   42 1    
    45   42   43 1    
    46   43   44 2    
    47   43   45 am   
    48   45   46 1    
    49   46   47 1    
    50   47   48 1    
@<TRIPOS>SUBSTRUCTURE
     1 COA400      1 GROUP   
@<TRIPOS>SET
ATOM$ORANGE STATIC     ATOMS   COLORGROUP SYSTEM 
42 2 2 4 4 5 5 6 6 9 9 11 11 12 12 14 14 20 \
20 22 22 32 32 33 33 34 34 35 35 36 36 38 38 41 41 42 \
42 43 43 46 46 47 47 

