#    Name: 6gw3_4_COA
#    Modification time : Fri May 22 19:27:01 2020

@<TRIPOS>MOLECULE
6gw3_4_COA
   48    50     1     0     1
SMALL
NO_CHARGES


@<TRIPOS>ATOM
      1 N1A       -30.3620   67.8310  -13.1010 N.ar      1 COA400      0.0000 
      2 C2A       -30.7650   69.1190  -13.3880 C.ar      1 COA400      0.0000 
      3 N3A       -32.0480   69.5280  -13.4490 N.ar      1 COA400      0.0000 
      4 C4A       -33.0220   68.6120  -13.1860 C.ar      1 COA400      0.0000 
      5 C5A       -32.7040   67.2120  -12.8980 C.ar      1 COA400      0.0000 
      6 C6A       -31.2920   66.8570  -12.8430 C.ar      1 COA400      0.0000 
      7 N6A       -30.9350   65.6140  -12.5870 N.pl3     1 COA400      0.0000 
      8 N7A       -33.8630   66.5230  -12.6930 N.2       1 COA400      0.0000 
      9 C8A       -34.8610   67.4380  -12.8770 C.2       1 COA400      0.0000 
     10 N9A       -34.3290   68.6740  -13.1640 N.pl3     1 COA400      0.0000 
     11 C1B       -35.0630   69.9580  -13.4580 C.3       1 COA400      0.0000 
     12 C2B       -35.7810   69.9740  -14.8370 C.3       1 COA400      0.0000 
     13 O2B       -34.7760   70.2400  -15.8510 O.3       1 COA400      0.0000 
     14 C3B       -36.9130   70.9920  -14.5730 C.3       1 COA400      0.0000 
     15 O3B       -36.4090   72.2770  -14.4920 O.3       1 COA400      0.0000 
     16 P3B       -37.1530   73.4230  -15.3080 P.3       1 COA400      0.0000 
     17 O7A       -36.1810   74.6060  -15.5400 O.co2     1 COA400      0.0000 
     18 O8A       -37.3890   72.7560  -16.6760 O.co2     1 COA400      0.0000 
     19 O9A       -38.6960   74.2570  -15.0780 O.co2     1 COA400      0.0000 
     20 C4B       -37.2630   70.6630  -13.0990 C.3       1 COA400      0.0000 
     21 O4B       -36.0540   70.1270  -12.4690 O.3       1 COA400      0.0000 
     22 C5B       -38.3880   69.6410  -12.9200 C.3       1 COA400      0.0000 
     23 O5B       -38.0070   68.3670  -13.5080 O.3       1 COA400      0.0000 
     24 P1A       -39.1610   67.4690  -14.3120 P.3       1 COA400      0.0000 
     25 O1A       -38.4880   66.4860  -15.2800 O.co2     1 COA400      0.0000 
     26 O2A       -40.3540   68.3570  -14.7450 O.co2     1 COA400      0.0000 
     27 O3A       -39.6390   66.4520  -13.1190 O.3       1 COA400      0.0000 
     28 P2A       -40.7700   66.6750  -11.9730 P.3       1 COA400      0.0000 
     29 O4A       -42.0300   65.8850  -12.3790 O.co2     1 COA400      0.0000 
     30 O5A       -40.8860   68.2190  -11.6110 O.co2     1 COA400      0.0000 
     31 O6A       -40.0350   65.8190  -10.8120 O.3       1 COA400      0.0000 
     32 CBP       -38.0280   64.9650   -9.6840 C.3       1 COA400      0.0000 
     33 CCP       -38.7570   66.1890  -10.2630 C.3       1 COA400      0.0000 
     34 CDP       -38.7920   64.3880   -8.4820 C.3       1 COA400      0.0000 
     35 CEP       -36.6460   65.4600   -9.2400 C.3       1 COA400      0.0000 
     36 CAP       -37.8770   63.8500  -10.7690 C.3       1 COA400      0.0000 
     37 OAP       -37.2500   64.4420  -11.9010 O.3       1 COA400      0.0000 
     38 C9P       -37.1530   62.5810  -10.3470 C.2       1 COA400      0.0000 
     39 O9P       -37.7320   61.7290   -9.6090 O.2       1 COA400      0.0000 
     40 N8P       -35.9040   62.3990  -10.8390 N.am      1 COA400      0.0000 
     41 C7P       -35.0800   61.2130  -10.5430 C.3       1 COA400      0.0000 
     42 C6P       -34.1040   61.5270   -9.4070 C.3       1 COA400      0.0000 
     43 C5P       -32.8620   60.6770   -9.4320 C.2       1 COA400      0.0000 
     44 O5P       -32.1230   60.6550  -10.4240 O.2       1 COA400      0.0000 
     45 N4P       -32.5960   59.9660   -8.3160 N.am      1 COA400      0.0000 
     46 C3P       -31.3870   59.1320   -8.1290 C.3       1 COA400      0.0000 
     47 C2P       -30.5340   59.6300   -6.9090 C.3       1 COA400      0.0000 
     48 S1P       -28.9640   58.8050   -6.9530 S.3       1 COA400      0.0000 
@<TRIPOS>BOND
     1    1    2 ar   
     2    1    6 ar   
     3    2    3 ar   
     4    3    4 ar   
     5    4    5 ar   
     6    4   10 1    
     7    5    6 ar   
     8    5    8 1    
     9    6    7 1    
    10    8    9 2    
    11    9   10 1    
    12   10   11 1    
    13   11   12 1    
    14   11   21 1    
    15   12   13 1    
    16   12   14 1    
    17   14   15 1    
    18   14   20 1    
    19   15   16 1    
    20   16   17 ar   
    21   16   18 ar   
    22   16   19 ar   
    23   20   21 1    
    24   20   22 1    
    25   22   23 1    
    26   23   24 1    
    27   24   25 ar   
    28   24   26 ar   
    29   24   27 1    
    30   27   28 1    
    31   28   29 ar   
    32   28   30 ar   
    33   28   31 1    
    34   31   33 1    
    35   32   33 1    
    36   32   34 1    
    37   32   35 1    
    38   32   36 1    
    39   36   37 1    
    40   36   38 1    
    41   38   39 2    
    42   38   40 am   
    43   40   41 1    
    44   41   42 1    
    45   42   43 1    
    46   43   44 2    
    47   43   45 am   
    48   45   46 1    
    49   46   47 1    
    50   47   48 1    
@<TRIPOS>SUBSTRUCTURE
     1 COA400      1 GROUP   
@<TRIPOS>SET
ATOM$ORANGE STATIC     ATOMS   COLORGROUP SYSTEM 
42 2 2 4 4 5 5 6 6 9 9 11 11 12 12 14 14 20 \
20 22 22 32 32 33 33 34 34 35 35 36 36 38 38 41 41 42 \
42 43 43 46 46 47 47 

