#    Name: 6ji2_2_GTP_CAVITY_N1_4
#    Modification time : Fri May 22 19:25:02 2020

@<TRIPOS>MOLECULE
6ji2_2_GTP_CAVITY_N1_4
   81     0     7     0     0
SMALL
NO_CHARGES


@<TRIPOS>ATOM
      1 OG         39.2300  -44.3900  -44.7600 O.3       1 SER1        0.0000 
      2 OG         40.9300  -45.1200  -45.7900 O.3       1 SER1        0.0000 
      3 OG         41.7700  -46.3600  -45.7000 O.3       1 SER1        0.0000 
      4 OG         42.6200  -47.6000  -45.6100 O.3       1 SER1        0.0000 
      5 OG         40.1300  -43.7000  -43.7700 O.3       1 SER1        0.0000 
      6 OG         41.8300  -44.4400  -44.8100 O.3       1 SER1        0.0000 
      7 OG         40.9800  -44.9400  -43.6800 O.3       1 SER1        0.0000 
      8 OG         42.6700  -45.6800  -44.7200 O.3       1 SER1        0.0000 
      9 OG         42.7900  -41.8300  -42.9300 O.3       1 SER1        0.0000 
     10 OG         41.9300  -42.3300  -41.8000 O.3       1 SER1        0.0000 
     11 OG         43.6300  -43.0700  -42.8400 O.3       1 SER1        0.0000 
     12 N          40.1400  -41.9700  -44.9900 N.am      2 ALA2        0.0000 
     13 N          39.2800  -44.2000  -42.6400 N.am      2 ALA2        0.0000 
     14 N          41.0400  -41.2800  -44.0000 N.am      2 ALA2        0.0000 
     15 N          40.1800  -43.5200  -41.6600 N.am      2 ALA2        0.0000 
     16 N          41.8800  -44.2600  -42.6900 N.am      2 ALA2        0.0000 
     17 N          42.7200  -45.4900  -42.6000 N.am      2 ALA2        0.0000 
     18 O          45.3800  -41.8900  -42.9800 O.2       2 ALA2        0.0000 
     19 O          46.2300  -43.1200  -42.8900 O.2       2 ALA2        0.0000 
     20 OD1        40.1000  -42.1500  -47.1000 O.co2     3 ASP3        0.0000 
     21 OD1        41.8000  -42.8900  -48.1400 O.co2     3 ASP3        0.0000 
     22 OD1        41.7800  -44.6200  -46.9200 O.co2     3 ASP3        0.0000 
     23 OD1        43.4800  -45.3600  -47.9600 O.co2     3 ASP3        0.0000 
     24 OD1        42.6300  -45.8600  -46.8300 O.co2     3 ASP3        0.0000 
     25 OD1        45.1800  -46.1000  -48.9900 O.co2     3 ASP3        0.0000 
     26 OD1        44.3300  -46.6000  -47.8700 O.co2     3 ASP3        0.0000 
     27 OD1        41.8400  -42.7000  -46.0200 O.co2     3 ASP3        0.0000 
     28 OD1        38.5500  -39.1200  -40.9400 O.co2     3 ASP3        0.0000 
     29 OD1        39.3900  -40.3600  -40.8500 O.co2     3 ASP3        0.0000 
     30 NZ         46.0700  -47.1500  -46.7900 N.4       4 LYS4        0.0000 
     31 NZ         39.3500  -40.5400  -42.9600 N.4       4 LYS4        0.0000 
     32 NZ         46.9800  -44.7300  -47.0200 N.4       4 LYS4        0.0000 
     33 NZ         46.1200  -45.2300  -45.9000 N.4       4 LYS4        0.0000 
     34 NZ         47.0200  -44.5400  -44.9100 N.4       4 LYS4        0.0000 
     35 CZ         38.3900  -43.1500  -44.8500 C.ar      5 PHE5        0.0000 
     36 CZ         39.2900  -42.4700  -43.8600 C.ar      5 PHE5        0.0000 
     37 CZ         38.4400  -42.9700  -42.7300 C.ar      5 PHE5        0.0000 
     38 CZ         43.5200  -46.9100  -44.6300 C.ar      5 PHE5        0.0000 
     39 CZ         45.2100  -47.6500  -45.6700 C.ar      5 PHE5        0.0000 
     40 CZ         44.3600  -48.1500  -44.5400 C.ar      5 PHE5        0.0000 
     41 CZ         46.0600  -48.8900  -45.5800 C.ar      5 PHE5        0.0000 
     42 CZ         38.4900  -41.0400  -41.8400 C.ar      5 PHE5        0.0000 
     43 CZ         39.3300  -42.2800  -41.7500 C.ar      5 PHE5        0.0000 
     44 CZ         46.1100  -46.9700  -44.6800 C.ar      5 PHE5        0.0000 
     45 CA         38.4000  -41.4100  -46.0600 C.3       6 GLY6        0.0000 
     46 CA         46.0200  -47.3400  -48.9000 C.3       6 GLY6        0.0000 
     47 CA         43.5400  -43.4400  -47.0600 C.3       6 GLY6        0.0000 
     48 CA         42.6800  -43.9400  -45.9300 C.3       6 GLY6        0.0000 
     49 CA         45.2400  -44.1800  -48.1000 C.3       6 GLY6        0.0000 
     50 CA         44.3800  -44.6800  -46.9700 C.3       6 GLY6        0.0000 
     51 CA         46.0800  -45.4100  -48.0100 C.3       6 GLY6        0.0000 
     52 CA         42.6600  -47.4200  -43.5000 C.3       6 GLY6        0.0000 
     53 CA         46.9200  -46.6500  -47.9200 C.3       6 GLY6        0.0000 
     54 CA         41.8900  -42.5200  -43.9100 C.3       6 GLY6        0.0000 
     55 CA         41.0300  -43.0200  -42.7800 C.3       6 GLY6        0.0000 
     56 CA         43.5800  -43.2600  -44.9500 C.3       6 GLY6        0.0000 
     57 CA         45.2800  -43.9900  -45.9900 C.3       6 GLY6        0.0000 
     58 CA         44.4300  -44.4900  -44.8600 C.3       6 GLY6        0.0000 
     59 CA         43.5700  -44.9900  -43.7300 C.3       6 GLY6        0.0000 
     60 CA         45.2700  -45.7300  -44.7700 C.3       6 GLY6        0.0000 
     61 CA         44.4200  -46.2300  -43.6400 C.3       6 GLY6        0.0000 
     62 CA         39.4000  -38.6200  -42.0700 C.3       6 GLY6        0.0000 
     63 CA         40.2500  -39.8600  -41.9800 C.3       6 GLY6        0.0000 
     64 CA         41.9400  -40.6000  -43.0100 C.3       6 GLY6        0.0000 
     65 CA         41.0900  -41.1000  -41.8900 C.3       6 GLY6        0.0000 
     66 CA         40.2300  -41.6000  -40.7600 C.3       6 GLY6        0.0000 
     67 CA         44.4800  -42.5700  -43.9600 C.3       6 GLY6        0.0000 
     68 CA         42.7700  -43.5700  -41.7100 C.3       6 GLY6        0.0000 
     69 CA         46.1800  -43.3100  -45.0000 C.3       6 GLY6        0.0000 
     70 CA         45.3300  -43.8100  -43.8700 C.3       6 GLY6        0.0000 
     71 CA         44.4700  -44.3100  -42.7500 C.3       6 GLY6        0.0000 
     72 CA         43.6200  -44.8100  -41.6200 C.3       6 GLY6        0.0000 
     73 DU         40.0900  -43.8900  -45.8800 H         7 CUB7        0.0000 
     74 DU         43.4700  -47.1000  -46.7400 H         7 CUB7        0.0000 
     75 DU         45.1700  -47.8400  -47.7800 H         7 CUB7        0.0000 
     76 DU         40.9900  -43.2000  -44.9000 H         7 CUB7        0.0000 
     77 DU         43.5300  -45.1800  -45.8400 H         7 CUB7        0.0000 
     78 DU         45.2200  -45.9100  -46.8800 H         7 CUB7        0.0000 
     79 DU         44.3700  -46.4100  -45.7500 H         7 CUB7        0.0000 
     80 DU         40.1900  -41.7800  -42.8700 H         7 CUB7        0.0000 
     81 DU         42.7300  -43.7600  -43.8200 H         7 CUB7        0.0000 
@<TRIPOS>BOND
@<TRIPOS>SUBSTRUCTURE
     1 SER1        1 GROUP   
     2 ALA2       12 GROUP   
     3 ASP3       20 GROUP   
     4 LYS4       30 GROUP   
     5 PHE5       35 GROUP   
     6 GLY6       45 GROUP   
     7 CUB7       73 GROUP   
@<TRIPOS>SET

