#    Name: 6ji2_1_GTP_CAVITY_N1_6
#    Modification time : Fri May 22 19:24:53 2020

@<TRIPOS>MOLECULE
6ji2_1_GTP_CAVITY_N1_6
   86     0     7     0     0
SMALL
NO_CHARGES


@<TRIPOS>ATOM
      1 OG        -28.9700    8.8400    1.0600 O.3       1 SER1        0.0000 
      2 OG        -29.8200    8.3400    2.1800 O.3       1 SER1        0.0000 
      3 OG        -30.6800    7.8400    3.3100 O.3       1 SER1        0.0000 
      4 OG        -28.1200    7.6000    1.1400 O.3       1 SER1        0.0000 
      5 OG        -28.9800    7.1000    2.2700 O.3       1 SER1        0.0000 
      6 OG        -28.1400    5.8600    2.3600 O.3       1 SER1        0.0000 
      7 OG        -28.0600   11.2600    0.8200 O.3       1 SER1        0.0000 
      8 OG        -27.2100   10.0200    0.9100 O.3       1 SER1        0.0000 
      9 OG        -24.6600    9.7800   -1.2500 O.3       1 SER1        0.0000 
     10 OG        -25.5200    9.2800   -0.1200 O.3       1 SER1        0.0000 
     11 O         -33.2600    9.6300    2.1400 O.2       2 ALA2        0.0000 
     12 N         -30.7100    9.3900   -0.0200 N.am      2 ALA2        0.0000 
     13 N         -27.2700    8.1000    0.0200 N.am      2 ALA2        0.0000 
     14 O         -28.0000   13.1800    1.7200 O.2       2 ALA2        0.0000 
     15 N         -25.4700    9.4700    1.9900 N.am      2 ALA2        0.0000 
     16 N         -25.4800    7.7300    3.2100 N.am      2 ALA2        0.0000 
     17 OD1       -32.3200   10.4900    5.2400 O.co2     3 ASP3        0.0000 
     18 OD1       -33.1700    9.9900    6.3700 O.co2     3 ASP3        0.0000 
     19 OD1       -30.6200    9.7600    4.2000 O.co2     3 ASP3        0.0000 
     20 OD1       -31.4700    9.2600    5.3300 O.co2     3 ASP3        0.0000 
     21 OD1       -29.7800    8.5200    4.2900 O.co2     3 ASP3        0.0000 
     22 OD1       -27.2200    8.2800    2.1300 O.co2     3 ASP3        0.0000 
     23 OD1       -28.0800    7.7800    3.2600 O.co2     3 ASP3        0.0000 
     24 OD1       -30.5600   11.6800    5.1000 O.co2     3 ASP3        0.0000 
     25 OD1       -31.4200   11.1800    6.2300 O.co2     3 ASP3        0.0000 
     26 OD1       -29.7200   10.4400    5.1900 O.co2     3 ASP3        0.0000 
     27 OD1       -28.0200    9.7000    4.1500 O.co2     3 ASP3        0.0000 
     28 OD1       -28.8800    9.2000    5.2800 O.co2     3 ASP3        0.0000 
     29 OD1       -26.3300    8.9700    3.1200 O.co2     3 ASP3        0.0000 
     30 OD1       -26.3400    7.2300    4.3300 O.co2     3 ASP3        0.0000 
     31 NZ        -34.9000   12.2800    4.0800 N.4       4 LYS4        0.0000 
     32 NZ        -32.3100   12.2300    4.0300 N.4       4 LYS4        0.0000 
     33 NZ        -33.1600   11.7300    5.1500 N.4       4 LYS4        0.0000 
     34 NZ        -24.6700    8.0500   -0.0300 N.4       4 LYS4        0.0000 
     35 NZ        -25.5300    7.5500    1.0900 N.4       4 LYS4        0.0000 
     36 NZ        -22.9800    7.3100   -1.0700 N.4       4 LYS4        0.0000 
     37 NZ        -26.3900    5.3100    3.4400 N.4       4 LYS4        0.0000 
     38 NZ        -29.7000   13.9200    2.7600 N.4       4 LYS4        0.0000 
     39 NZ        -30.5500   13.4200    3.8800 N.4       4 LYS4        0.0000 
     40 NZ        -31.4100   12.9200    5.0100 N.4       4 LYS4        0.0000 
     41 CZ        -34.1100   10.8600    2.0500 C.ar      5 PHE5        0.0000 
     42 CZ        -32.4100   10.1300    1.0200 C.ar      5 PHE5        0.0000 
     43 CZ        -33.2100   11.5500    3.0400 C.ar      5 PHE5        0.0000 
     44 CZ        -31.5100   10.8100    2.0000 C.ar      5 PHE5        0.0000 
     45 CZ        -25.5700    7.3600   -1.0200 C.ar      5 PHE5        0.0000 
     46 CZ        -26.4300    6.8600    0.1100 C.ar      5 PHE5        0.0000 
     47 CZ        -27.2800    6.3600    1.2300 C.ar      5 PHE5        0.0000 
     48 CZ        -27.2900    4.6200    2.4500 C.ar      5 PHE5        0.0000 
     49 CZ        -26.4500    3.3900    2.5400 C.ar      5 PHE5        0.0000 
     50 CA        -31.5600    8.8900    1.1100 C.3       6 GLY6        0.0000 
     51 CA        -28.9600   10.5700   -0.1600 C.3       6 GLY6        0.0000 
     52 CA        -29.8100   10.0700    0.9700 C.3       6 GLY6        0.0000 
     53 CA        -28.1100    9.3400   -0.0700 C.3       6 GLY6        0.0000 
     54 CA        -26.4200    8.6000   -1.1100 C.3       6 GLY6        0.0000 
     55 CA        -24.7200    7.8600   -2.1500 C.3       6 GLY6        0.0000 
     56 CA        -31.4500   12.7300    2.9000 C.3       6 GLY6        0.0000 
     57 CA        -34.0100   11.2300    6.2800 C.3       6 GLY6        0.0000 
     58 CA        -28.9000   12.5000    0.7300 C.3       6 GLY6        0.0000 
     59 CA        -29.7500   12.0000    1.8600 C.3       6 GLY6        0.0000 
     60 CA        -30.6100   11.5000    2.9900 C.3       6 GLY6        0.0000 
     61 CA        -28.0700    9.5200    2.0400 C.3       6 GLY6        0.0000 
     62 CA        -23.8200    8.5500   -1.1600 C.3       6 GLY6        0.0000 
     63 CA        -25.5400    5.8100    2.3100 C.3       6 GLY6        0.0000 
     64 CA        -32.2600   12.4200    6.1400 C.3       6 GLY6        0.0000 
     65 CA        -28.8500   12.6800    2.8500 C.3       6 GLY6        0.0000 
     66 CA        -29.7100   12.1800    3.9700 C.3       6 GLY6        0.0000 
     67 CA        -27.1600   11.9400    1.8100 C.3       6 GLY6        0.0000 
     68 CA        -28.0100   11.4400    2.9400 C.3       6 GLY6        0.0000 
     69 CA        -28.8700   10.9400    4.0600 C.3       6 GLY6        0.0000 
     70 CA        -26.3100   10.7100    1.9000 C.3       6 GLY6        0.0000 
     71 CA        -22.9200    9.2300   -0.1700 C.3       6 GLY6        0.0000 
     72 CA        -23.7700    8.7300    0.9500 C.3       6 GLY6        0.0000 
     73 CA        -25.4900    5.9900    4.4200 C.3       6 GLY6        0.0000 
     74 DU        -34.0600   11.0500    4.1700 H         7 CUB7        0.0000 
     75 DU        -32.3600   10.3100    3.1300 H         7 CUB7        0.0000 
     76 DU        -33.2200    9.8100    4.2600 H         7 CUB7        0.0000 
     77 DU        -30.6600    9.5700    2.0900 H         7 CUB7        0.0000 
     78 DU        -31.5200    9.0700    3.2200 H         7 CUB7        0.0000 
     79 DU        -31.4600   10.9900    4.1200 H         7 CUB7        0.0000 
     80 DU        -28.9100   10.7600    1.9500 H         7 CUB7        0.0000 
     81 DU        -29.7700   10.2600    3.0800 H         7 CUB7        0.0000 
     82 DU        -28.9200    9.0200    3.1700 H         7 CUB7        0.0000 
     83 DU        -26.3700    8.7800    1.0000 H         7 CUB7        0.0000 
     84 DU        -28.9300    7.2800    4.3800 H         7 CUB7        0.0000 
     85 DU        -26.3800    7.0500    2.2200 H         7 CUB7        0.0000 
     86 DU        -27.2400    6.5500    3.3500 H         7 CUB7        0.0000 
@<TRIPOS>BOND
@<TRIPOS>SUBSTRUCTURE
     1 SER1        1 GROUP   
     2 ALA2       11 GROUP   
     3 ASP3       17 GROUP   
     4 LYS4       31 GROUP   
     5 PHE5       41 GROUP   
     6 GLY6       50 GROUP   
     7 CUB7       74 GROUP   
@<TRIPOS>SET

