#    Name: 6ji2_1_GTP
#    Modification time : Fri May 22 19:24:51 2020

@<TRIPOS>MOLECULE
6ji2_1_GTP
   32    34     1     0     1
SMALL
NO_CHARGES


@<TRIPOS>ATOM
      1 PG        -19.1460    6.9500   -0.7470 P.3       1 GTP501      0.0000 
      2 O1G       -18.5640    7.3980    0.5660 O.co2     1 GTP501      0.0000 
      3 O2G       -18.7440    7.7810   -1.9400 O.co2     1 GTP501      0.0000 
      4 O3G       -19.0510    5.4570   -0.9290 O.co2     1 GTP501      0.0000 
      5 O3B       -20.6910    7.3240   -0.5710 O.3       1 GTP501      0.0000 
      6 PB        -21.1450    8.8610   -0.7030 P.3       1 GTP501      0.0000 
      7 O1B       -20.4200    9.6970    0.3160 O.co2     1 GTP501      0.0000 
      8 O2B       -21.1040    9.2970   -2.1440 O.co2     1 GTP501      0.0000 
      9 O3A       -22.6780    8.8010   -0.2370 O.3       1 GTP501      0.0000 
     10 PA        -23.8840    8.5750   -1.2750 P.3       1 GTP501      0.0000 
     11 O1A       -23.6860    7.2390   -1.9480 O.co2     1 GTP501      0.0000 
     12 O2A       -24.0560    9.8410   -2.0960 O.co2     1 GTP501      0.0000 
     13 O5'       -25.1180    8.3960   -0.2540 O.3       1 GTP501      0.0000 
     14 C5'       -25.1020    7.3530    0.7270 C.3       1 GTP501      0.0000 
     15 C4'       -26.3730    7.3690    1.5650 C.3       1 GTP501      0.0000 
     16 O4'       -26.5520    8.6510    2.1720 O.3       1 GTP501      0.0000 
     17 C3'       -27.6020    7.1100    0.7180 C.3       1 GTP501      0.0000 
     18 O3'       -28.4590    6.1930    1.3960 O.3       1 GTP501      0.0000 
     19 C2'       -28.2240    8.4790    0.5620 C.3       1 GTP501      0.0000 
     20 O2'       -29.6400    8.4260    0.4220 O.3       1 GTP501      0.0000 
     21 C1'       -27.8310    9.1790    1.8420 C.3       1 GTP501      0.0000 
     22 N9        -27.7570   10.6380    1.6610 N.pl3     1 GTP501      0.0000 
     23 C8        -26.8620   11.2790    0.9000 C.2       1 GTP501      0.0000 
     24 N7        -27.0660   12.6190    0.9480 N.2       1 GTP501      0.0000 
     25 C5        -28.1060   12.8450    1.7590 C.2       1 GTP501      0.0000 
     26 C6        -28.8370   14.0390    2.2490 C.2       1 GTP501      0.0000 
     27 O6        -28.5020   15.1900    1.8860 O.2       1 GTP501      0.0000 
     28 N1        -29.8720   13.8440    3.0870 N.am      1 GTP501      0.0000 
     29 C2        -30.2520   12.6050    3.4910 C.2       1 GTP501      0.0000 
     30 N2        -31.3060   12.4860    4.3410 N.pl3     1 GTP501      0.0000 
     31 N3        -29.6140   11.4660    3.0820 N.2       1 GTP501      0.0000 
     32 C4        -28.5570   11.5280    2.2340 C.2       1 GTP501      0.0000 
@<TRIPOS>BOND
     1    1    2 ar   
     2    1    3 ar   
     3    1    4 ar   
     4    1    5 1    
     5    5    6 1    
     6    6    7 ar   
     7    6    8 ar   
     8    6    9 1    
     9    9   10 1    
    10   10   11 ar   
    11   10   12 ar   
    12   10   13 1    
    13   13   14 1    
    14   14   15 1    
    15   15   16 1    
    16   15   17 1    
    17   16   21 1    
    18   17   18 1    
    19   17   19 1    
    20   19   20 1    
    21   19   21 1    
    22   21   22 1    
    23   22   23 1    
    24   22   32 1    
    25   23   24 2    
    26   24   25 1    
    27   25   26 1    
    28   25   32 2    
    29   26   27 2    
    30   26   28 am   
    31   28   29 1    
    32   29   30 1    
    33   29   31 2    
    34   31   32 1    
@<TRIPOS>SUBSTRUCTURE
     1 GTP501      1 GROUP   
@<TRIPOS>SET
ATOM$ORANGE STATIC     ATOMS   COLORGROUP SYSTEM 
20 14 14 15 15 17 17 19 19 21 21 23 23 25 25 26 26 29 \
29 32 32 

