#    Name: 6ji2_2_GTP
#    Modification time : Fri May 22 19:25:00 2020

@<TRIPOS>MOLECULE
6ji2_2_GTP
   32    34     1     0     1
SMALL
NO_CHARGES


@<TRIPOS>ATOM
      1 PG         37.3560  -35.8220  -41.0220 P.3       1 GTP501      0.0000 
      2 O1G        37.9530  -34.8800  -42.0270 O.co2     1 GTP501      0.0000 
      3 O2G        37.7230  -35.5280  -39.5960 O.co2     1 GTP501      0.0000 
      4 O3G        35.8880  -36.0690  -41.2620 O.co2     1 GTP501      0.0000 
      5 O3B        38.1230  -37.2020  -41.3330 O.3       1 GTP501      0.0000 
      6 PB         39.6850  -37.3810  -40.9710 P.3       1 GTP501      0.0000 
      7 O1B        40.4670  -36.3610  -41.7590 O.co2     1 GTP501      0.0000 
      8 O2B        39.8570  -37.4330  -39.4710 O.co2     1 GTP501      0.0000 
      9 O3A        40.0590  -38.8350  -41.5710 O.3       1 GTP501      0.0000 
     10 PA         39.8320  -40.2380  -40.7930 P.3       1 GTP501      0.0000 
     11 O1A        38.3790  -40.3710  -40.4000 O.co2     1 GTP501      0.0000 
     12 O2A        40.9210  -40.4120  -39.7560 O.co2     1 GTP501      0.0000 
     13 O5'        40.0980  -41.3150  -41.9610 O.3       1 GTP501      0.0000 
     14 C5'        39.3170  -41.3550  -43.1610 C.3       1 GTP501      0.0000 
     15 C4'        39.7400  -42.5270  -44.0500 C.3       1 GTP501      0.0000 
     16 O4'        41.0860  -42.3480  -44.5100 O.3       1 GTP501      0.0000 
     17 C3'        39.7020  -43.8620  -43.3140 C.3       1 GTP501      0.0000 
     18 O3'        39.1490  -44.8840  -44.1450 O.3       1 GTP501      0.0000 
     19 C2'        41.1540  -44.1390  -42.9990 C.3       1 GTP501      0.0000 
     20 O2'        41.4610  -45.5260  -42.9040 O.3       1 GTP501      0.0000 
     21 C1'        41.8660  -43.4950  -44.1680 C.3       1 GTP501      0.0000 
     22 N9         43.2450  -43.1320  -43.7870 N.pl3     1 GTP501      0.0000 
     23 C8         43.5980  -42.1600  -42.9350 C.2       1 GTP501      0.0000 
     24 N7         44.9500  -42.0930  -42.8100 N.2       1 GTP501      0.0000 
     25 C5         45.4800  -43.0450  -43.5960 C.2       1 GTP501      0.0000 
     26 C6         46.8420  -43.5280  -43.9440 C.2       1 GTP501      0.0000 
     27 O6         47.8700  -43.0120  -43.4510 O.2       1 GTP501      0.0000 
     28 N1         46.9450  -44.5430  -44.8130 N.am      1 GTP501      0.0000 
     29 C2         45.8650  -45.1350  -45.3730 C.2       1 GTP501      0.0000 
     30 N2         46.0380  -46.1570  -46.2430 N.pl3     1 GTP501      0.0000 
     31 N3         44.5900  -44.7440  -45.1020 N.2       1 GTP501      0.0000 
     32 C4         44.3440  -43.7260  -44.2410 C.2       1 GTP501      0.0000 
@<TRIPOS>BOND
     1    1    2 ar   
     2    1    3 ar   
     3    1    4 ar   
     4    1    5 1    
     5    5    6 1    
     6    6    7 ar   
     7    6    8 ar   
     8    6    9 1    
     9    9   10 1    
    10   10   11 ar   
    11   10   12 ar   
    12   10   13 1    
    13   13   14 1    
    14   14   15 1    
    15   15   16 1    
    16   15   17 1    
    17   16   21 1    
    18   17   18 1    
    19   17   19 1    
    20   19   20 1    
    21   19   21 1    
    22   21   22 1    
    23   22   23 1    
    24   22   32 1    
    25   23   24 2    
    26   24   25 1    
    27   25   26 1    
    28   25   32 2    
    29   26   27 2    
    30   26   28 am   
    31   28   29 1    
    32   29   30 1    
    33   29   31 2    
    34   31   32 1    
@<TRIPOS>SUBSTRUCTURE
     1 GTP501      1 GROUP   
@<TRIPOS>SET
ATOM$ORANGE STATIC     ATOMS   COLORGROUP SYSTEM 
20 14 14 15 15 17 17 19 19 21 21 23 23 25 25 26 26 29 \
29 32 32 

