#    Name: 6g3u_1_NAP
#    Modification time : Fri May 22 19:25:20 2020

@<TRIPOS>MOLECULE
6g3u_1_NAP
   48    52     1     0     1
SMALL
NO_CHARGES


@<TRIPOS>ATOM
      1 PA          2.7280   49.4210   -8.1970 P.3       1 NAP801      0.0000 
      2 O1A         3.7190   49.0130   -9.2040 O.co2     1 NAP801      0.0000 
      3 O2A         3.3170   49.9270   -6.9380 O.co2     1 NAP801      0.0000 
      4 O5B         1.8610   50.6420   -8.7380 O.3       1 NAP801      0.0000 
      5 C5B         0.4740   50.5790   -8.9050 C.3       1 NAP801      0.0000 
      6 C4B         0.0650   52.0090   -9.2050 C.3       1 NAP801      0.0000 
      7 O4B         0.9000   52.9410   -8.5350 O.3       1 NAP801      0.0000 
      8 C3B         0.2350   52.3380  -10.6710 C.3       1 NAP801      0.0000 
      9 O3B        -0.9080   51.8720  -11.3420 O.3       1 NAP801      0.0000 
     10 C2B         0.4390   53.8500  -10.6540 C.3       1 NAP801      0.0000 
     11 O2B        -0.7670   54.5520  -10.5120 O.3       1 NAP801      0.0000 
     12 C1B         1.1180   54.0880   -9.3270 C.3       1 NAP801      0.0000 
     13 N9A         2.5420   54.2370   -9.5740 N.pl3     1 NAP801      0.0000 
     14 C8A         3.5680   53.4020   -9.2010 C.2       1 NAP801      0.0000 
     15 N7A         4.7380   53.9340   -9.6340 N.2       1 NAP801      0.0000 
     16 C5A         4.4600   55.0940  -10.2790 C.ar      1 NAP801      0.0000 
     17 C6A         5.2520   56.0460  -10.9050 C.ar      1 NAP801      0.0000 
     18 N6A         6.5740   55.9130  -10.9810 N.pl3     1 NAP801      0.0000 
     19 N1A         4.6460   57.1480  -11.4700 N.ar      1 NAP801      0.0000 
     20 C2A         3.2810   57.3210  -11.4160 C.ar      1 NAP801      0.0000 
     21 N3A         2.4920   56.3760  -10.7930 N.ar      1 NAP801      0.0000 
     22 C4A         3.0800   55.2900  -10.2390 C.ar      1 NAP801      0.0000 
     23 O3          1.6460   48.3040   -7.8590 O.3       1 NAP801      0.0000 
     24 PN          1.5770   46.7260   -8.0750 P.3       1 NAP801      0.0000 
     25 O1N         0.6470   46.5100   -9.2180 O.co2     1 NAP801      0.0000 
     26 O2N         1.3540   46.1180   -6.7390 O.co2     1 NAP801      0.0000 
     27 O5D         3.0570   46.2560   -8.4800 O.3       1 NAP801      0.0000 
     28 C5D         3.3720   45.7870   -9.7740 C.3       1 NAP801      0.0000 
     29 C4D         4.6340   44.9380   -9.8140 C.3       1 NAP801      0.0000 
     30 O4D         5.7320   45.5470   -9.1580 O.3       1 NAP801      0.0000 
     31 C3D         4.3830   43.6050   -9.1400 C.3       1 NAP801      0.0000 
     32 O3D         4.8070   42.6220  -10.0510 O.3       1 NAP801      0.0000 
     33 C2D         5.1980   43.6460   -7.8500 C.3       1 NAP801      0.0000 
     34 O2D         5.7420   42.3890   -7.4520 O.3       1 NAP801      0.0000 
     35 C1D         6.2750   44.6590   -8.1790 C.3       1 NAP801      0.0000 
     36 N1N         6.8260   45.4330   -7.0430 N.pl3     1 NAP801      0.0000 
     37 C2N         8.1870   45.4900   -6.9190 C.ar      1 NAP801      0.0000 
     38 C3N         8.8150   46.2250   -5.9210 C.ar      1 NAP801      0.0000 
     39 C7N        10.3040   46.3270   -5.9220 C.2       1 NAP801      0.0000 
     40 O7N        10.9720   46.9670   -4.8930 O.2       1 NAP801      0.0000 
     41 N7N        10.9920   45.7900   -6.9140 N.am      1 NAP801      0.0000 
     42 C4N         8.0480   46.9440   -5.0140 C.ar      1 NAP801      0.0000 
     43 C5N         6.6630   46.8660   -5.1490 C.ar      1 NAP801      0.0000 
     44 C6N         6.0570   46.1190   -6.1720 C.ar      1 NAP801      0.0000 
     45 P2B        -1.7610   55.0540  -11.6700 P.3       1 NAP801      0.0000 
     46 O1X        -2.6990   55.9430  -10.8910 O.co2     1 NAP801      0.0000 
     47 O2X        -1.0350   55.8550  -12.7230 O.co2     1 NAP801      0.0000 
     48 O3X        -2.5350   53.9180  -12.3010 O.co2     1 NAP801      0.0000 
@<TRIPOS>BOND
     1    1    2 ar   
     2    1    3 ar   
     3    1    4 1    
     4    1   23 1    
     5    4    5 1    
     6    5    6 1    
     7    6    7 1    
     8    6    8 1    
     9    7   12 1    
    10    8    9 1    
    11    8   10 1    
    12   10   11 1    
    13   10   12 1    
    14   11   45 1    
    15   12   13 1    
    16   13   14 1    
    17   13   22 1    
    18   14   15 2    
    19   15   16 1    
    20   16   17 ar   
    21   16   22 ar   
    22   17   18 1    
    23   17   19 ar   
    24   19   20 ar   
    25   20   21 ar   
    26   21   22 ar   
    27   23   24 1    
    28   24   25 ar   
    29   24   26 ar   
    30   24   27 1    
    31   27   28 1    
    32   28   29 1    
    33   29   30 1    
    34   29   31 1    
    35   30   35 1    
    36   31   32 1    
    37   31   33 1    
    38   33   34 1    
    39   33   35 1    
    40   35   36 1    
    41   36   37 ar   
    42   36   44 ar   
    43   37   38 ar   
    44   38   39 1    
    45   38   42 ar   
    46   39   40 2    
    47   39   41 am   
    48   42   43 ar   
    49   43   44 ar   
    50   45   46 ar   
    51   45   47 ar   
    52   45   48 ar   
@<TRIPOS>SUBSTRUCTURE
     1 NAP801      1 GROUP   
@<TRIPOS>SET
ATOM$ORANGE STATIC     ATOMS   COLORGROUP SYSTEM 
42 5 5 6 6 8 8 10 10 12 12 14 14 16 16 17 17 20 \
20 22 22 28 28 29 29 31 31 33 33 35 35 37 37 38 38 39 \
39 42 42 43 43 44 44 

