#    Name: 5zqk_1_SAM
#    Modification time : Fri May 22 19:27:40 2020

@<TRIPOS>MOLECULE
5zqk_1_SAM
   27    29     1     0     0
SMALL
NO_CHARGES


@<TRIPOS>ATOM
      1 N          51.5830    1.8600   41.1820 N.4       1 SAM1001     0.0000 
      2 CA         50.2510    1.5000   41.6920 C.3       1 SAM1001     0.0000 
      3 C          49.1190    2.5100   41.3240 C.2       1 SAM1001     0.0000 
      4 O          49.5050    3.6590   41.0050 O.co2     1 SAM1001     0.0000 
      5 OXT        47.9180    2.1190   41.3690 O.co2     1 SAM1001     0.0000 
      6 CB         50.2610    1.3860   43.2100 C.3       1 SAM1001     0.0000 
      7 CG         50.9760    0.0480   43.5060 C.3       1 SAM1001     0.0000 
      8 SD         50.6590   -0.5920   45.1330 S.3       1 SAM1001     0.0000 
      9 CE         51.6750    0.3840   46.1910 C.3       1 SAM1001     0.0000 
     10 C5'        51.5840   -2.1470   45.0530 C.3       1 SAM1001     0.0000 
     11 C4'        50.7590   -3.3260   44.4940 C.3       1 SAM1001     0.0000 
     12 O4'        51.6060   -4.4830   44.3520 O.3       1 SAM1001     0.0000 
     13 C3'        49.5840   -3.7530   45.3840 C.3       1 SAM1001     0.0000 
     14 O3'        48.3240   -3.4310   44.8030 O.3       1 SAM1001     0.0000 
     15 C2'        49.8220   -5.2530   45.6390 C.3       1 SAM1001     0.0000 
     16 O2'        48.6300   -6.0190   45.5150 O.3       1 SAM1001     0.0000 
     17 C1'        50.7990   -5.6230   44.5300 C.3       1 SAM1001     0.0000 
     18 N9         51.6610   -6.7800   44.7940 N.pl3     1 SAM1001     0.0000 
     19 C8         52.2280   -7.1500   45.9870 C.2       1 SAM1001     0.0000 
     20 N7         53.0140   -8.1940   45.9060 N.2       1 SAM1001     0.0000 
     21 C5         52.9510   -8.5500   44.5650 C.ar      1 SAM1001     0.0000 
     22 C6         53.5690   -9.5790   43.8230 C.ar      1 SAM1001     0.0000 
     23 N6         54.3980  -10.4800   44.3460 N.pl3     1 SAM1001     0.0000 
     24 N1         53.3140   -9.6380   42.4960 N.ar      1 SAM1001     0.0000 
     25 C2         52.5100   -8.7160   41.9550 C.ar      1 SAM1001     0.0000 
     26 N3         51.8680   -7.7100   42.5530 N.ar      1 SAM1001     0.0000 
     27 C4         52.1240   -7.6850   43.8680 C.ar      1 SAM1001     0.0000 
@<TRIPOS>BOND
     1    1    2 1    
     2    2    3 1    
     3    2    6 1    
     4    3    4 ar   
     5    3    5 ar   
     6    6    7 1    
     7    7    8 1    
     8    8    9 1    
     9    8   10 1    
    10   10   11 1    
    11   11   12 1    
    12   11   13 1    
    13   12   17 1    
    14   13   14 1    
    15   13   15 1    
    16   15   16 1    
    17   15   17 1    
    18   17   18 1    
    19   18   19 1    
    20   18   27 1    
    21   19   20 2    
    22   20   21 1    
    23   21   22 ar   
    24   21   27 ar   
    25   22   23 1    
    26   22   24 ar   
    27   24   25 ar   
    28   25   26 ar   
    29   26   27 ar   
@<TRIPOS>SUBSTRUCTURE
     1 SAM1001     1 GROUP   
@<TRIPOS>SET

