#    Name: 5zqk_2_SAM_CAVITY_N1_8
#    Modification time : Fri May 22 19:27:54 2020

@<TRIPOS>MOLECULE
5zqk_2_SAM_CAVITY_N1_8
  104     0     7     0     0
SMALL
NO_CHARGES


@<TRIPOS>ATOM
      1 OG         43.4700  -59.5500   32.8900 O.3       1 SER1        0.0000 
      2 OG         40.9500  -48.9200   27.5000 O.3       1 SER1        0.0000 
      3 OG         39.1600  -47.8000   27.6400 O.3       1 SER1        0.0000 
      4 OG         41.5800  -48.0400   28.5300 O.3       1 SER1        0.0000 
      5 OG         41.0300  -46.8300   27.8300 O.3       1 SER1        0.0000 
      6 OG         42.5400  -52.9500   32.1600 O.3       1 SER1        0.0000 
      7 OG         41.9900  -51.7400   31.4600 O.3       1 SER1        0.0000 
      8 OG         43.3200  -49.5700   30.9600 O.3       1 SER1        0.0000 
      9 OG         40.9800  -47.2300   30.4000 O.3       1 SER1        0.0000 
     10 OG         40.4300  -46.0200   29.7000 O.3       1 SER1        0.0000 
     11 N          42.4300  -56.7300   28.9300 N.am      2 ALA2        0.0000 
     12 N          41.8800  -55.5200   28.2300 N.am      2 ALA2        0.0000 
     13 N          43.0600  -55.8500   29.9600 N.am      2 ALA2        0.0000 
     14 N          42.5100  -54.6400   29.2600 N.am      2 ALA2        0.0000 
     15 N          37.6900  -52.4700   30.3700 N.am      2 ALA2        0.0000 
     16 N          44.3900  -53.6700   29.4600 N.am      2 ALA2        0.0000 
     17 N          44.8000  -57.3800   32.3900 N.am      2 ALA2        0.0000 
     18 N          44.2500  -56.1700   31.6900 N.am      2 ALA2        0.0000 
     19 N          43.7000  -54.9600   30.9900 N.am      2 ALA2        0.0000 
     20 N          43.1500  -53.7500   30.2900 N.am      2 ALA2        0.0000 
     21 O          38.8700  -52.7900   32.1000 O.2       2 ALA2        0.0000 
     22 N          43.7800  -52.8700   31.3300 N.am      2 ALA2        0.0000 
     23 O          40.7500  -51.8200   32.3000 O.2       2 ALA2        0.0000 
     24 O          45.3400  -46.1000   28.9200 O.2       2 ALA2        0.0000 
     25 OD1        41.0900  -46.4200   25.2700 O.co2     3 ASP3        0.0000 
     26 OD1        41.7300  -45.5400   26.3000 O.co2     3 ASP3        0.0000 
     27 NZ         41.1000  -58.9100   29.4300 N.4       4 LYS4        0.0000 
     28 NZ         42.9800  -57.9400   29.6300 N.4       4 LYS4        0.0000 
     29 NZ         42.2900  -59.2300   31.1600 N.4       4 LYS4        0.0000 
     30 NZ         41.7400  -58.0200   30.4600 N.4       4 LYS4        0.0000 
     31 NZ         44.8600  -56.9700   29.8200 N.4       4 LYS4        0.0000 
     32 NZ         44.7100  -59.4700   32.0600 N.4       4 LYS4        0.0000 
     33 NZ         44.1600  -58.2600   31.3600 N.4       4 LYS4        0.0000 
     34 NZ         43.6100  -57.0500   30.6600 N.4       4 LYS4        0.0000 
     35 NZ         39.7600  -48.6000   25.7700 N.4       4 LYS4        0.0000 
     36 NZ         39.0700  -49.8900   27.3000 N.4       4 LYS4        0.0000 
     37 NZ         42.9100  -45.8600   28.0300 N.4       4 LYS4        0.0000 
     38 NZ         42.3600  -44.6500   27.3300 N.4       4 LYS4        0.0000 
     39 NZ         43.5500  -44.9700   29.0600 N.4       4 LYS4        0.0000 
     40 NZ         43.0000  -43.7700   28.3600 N.4       4 LYS4        0.0000 
     41 CZ         38.9300  -52.3900   29.5400 C.ar      5 PHE5        0.0000 
     42 CZ         42.8900  -47.5500   25.1300 C.ar      5 PHE5        0.0000 
     43 CZ         40.8100  -51.4200   29.7300 C.ar      5 PHE5        0.0000 
     44 CZ         40.2600  -50.2100   29.0300 C.ar      5 PHE5        0.0000 
     45 CZ         39.5600  -51.5000   30.5700 C.ar      5 PHE5        0.0000 
     46 CZ         44.0700  -47.8700   26.8600 C.ar      5 PHE5        0.0000 
     47 CZ         42.9700  -45.4500   25.4600 C.ar      5 PHE5        0.0000 
     48 CZ         42.2800  -46.7500   27.0000 C.ar      5 PHE5        0.0000 
     49 CZ         42.1300  -49.2400   29.2300 C.ar      5 PHE5        0.0000 
     50 CZ         41.4400  -50.5300   30.7600 C.ar      5 PHE5        0.0000 
     51 CZ         44.7000  -46.9900   27.8900 C.ar      5 PHE5        0.0000 
     52 CZ         44.1500  -45.7800   27.1900 C.ar      5 PHE5        0.0000 
     53 CZ         42.0800  -49.6500   31.7900 C.ar      5 PHE5        0.0000 
     54 CA         39.1300  -49.4800   24.7400 C.3       6 GLY6        0.0000 
     55 CA         41.5600  -49.7200   25.6300 C.3       6 GLY6        0.0000 
     56 CA         41.0100  -48.5200   24.9300 C.3       6 GLY6        0.0000 
     57 CA         43.8400  -52.4600   28.7600 C.3       6 GLY6        0.0000 
     58 CA         43.2900  -51.2500   28.0600 C.3       6 GLY6        0.0000 
     59 CA         42.7400  -50.0500   27.3600 C.3       6 GLY6        0.0000 
     60 CA         42.1900  -48.8400   26.6600 C.3       6 GLY6        0.0000 
     61 CA         41.5000  -50.1300   28.2000 C.3       6 GLY6        0.0000 
     62 CA         43.0100  -56.2500   32.5300 C.3       6 GLY6        0.0000 
     63 CA         42.4600  -55.0400   31.8300 C.3       6 GLY6        0.0000 
     64 CA         41.2100  -55.1300   32.6600 C.3       6 GLY6        0.0000 
     65 CA         44.4800  -51.5800   29.7900 C.3       6 GLY6        0.0000 
     66 CA         43.9300  -50.3700   29.0900 C.3       6 GLY6        0.0000 
     67 CA         43.3800  -49.1600   28.3900 C.3       6 GLY6        0.0000 
     68 CA         42.8300  -47.9500   27.6900 C.3       6 GLY6        0.0000 
     69 CA         43.2300  -51.6600   30.6300 C.3       6 GLY6        0.0000 
     70 CA         45.2500  -48.1900   28.5900 C.3       6 GLY6        0.0000 
     71 CA         44.5600  -49.4800   30.1200 C.3       6 GLY6        0.0000 
     72 CA         44.0100  -48.2800   29.4200 C.3       6 GLY6        0.0000 
     73 CA         42.7700  -48.3600   30.2600 C.3       6 GLY6        0.0000 
     74 CA         42.2200  -47.1500   29.5600 C.3       6 GLY6        0.0000 
     75 CA         41.6700  -45.9400   28.8600 C.3       6 GLY6        0.0000 
     76 CA         45.8900  -47.3100   29.6200 C.3       6 GLY6        0.0000 
     77 CA         44.6500  -47.3900   30.4600 C.3       6 GLY6        0.0000 
     78 CA         44.1000  -46.1800   29.7600 C.3       6 GLY6        0.0000 
     79 CA         42.3000  -45.0600   29.8900 C.3       6 GLY6        0.0000 
     80 CA         41.7500  -43.8500   29.2000 C.3       6 GLY6        0.0000 
     81 DU         41.1900  -56.8100   29.7700 H         7 CUB7        0.0000 
     82 DU         40.6400  -55.6100   29.0700 H         7 CUB7        0.0000 
     83 DU         40.0900  -54.4000   28.3700 H         7 CUB7        0.0000 
     84 DU         41.0400  -59.3100   32.0000 H         7 CUB7        0.0000 
     85 DU         40.3100  -49.8100   26.4700 H         7 CUB7        0.0000 
     86 DU         42.9200  -58.3400   32.1900 H         7 CUB7        0.0000 
     87 DU         42.3700  -57.1400   31.5000 H         7 CUB7        0.0000 
     88 DU         41.8200  -55.9300   30.8000 H         7 CUB7        0.0000 
     89 DU         41.2700  -54.7200   30.1000 H         7 CUB7        0.0000 
     90 DU         39.6200  -51.1000   28.0000 H         7 CUB7        0.0000 
     91 DU         41.1300  -57.2200   32.3300 H         7 CUB7        0.0000 
     92 DU         40.5800  -56.0100   31.6300 H         7 CUB7        0.0000 
     93 DU         39.4800  -53.6000   30.2400 H         7 CUB7        0.0000 
     94 DU         41.6400  -47.6300   25.9600 H         7 CUB7        0.0000 
     95 DU         42.6000  -52.5500   29.6000 H         7 CUB7        0.0000 
     96 DU         42.0500  -51.3400   28.9000 H         7 CUB7        0.0000 
     97 DU         40.4000  -47.7100   26.8000 H         7 CUB7        0.0000 
     98 DU         41.9100  -53.8400   31.1300 H         7 CUB7        0.0000 
     99 DU         41.3600  -52.6300   30.4300 H         7 CUB7        0.0000 
    100 DU         40.6600  -53.9200   31.9700 H         7 CUB7        0.0000 
    101 DU         40.1100  -52.7100   31.2700 H         7 CUB7        0.0000 
    102 DU         42.6800  -50.4500   29.9300 H         7 CUB7        0.0000 
    103 DU         43.4600  -47.0700   28.7300 H         7 CUB7        0.0000 
    104 DU         41.1200  -44.7300   28.1600 H         7 CUB7        0.0000 
@<TRIPOS>BOND
@<TRIPOS>SUBSTRUCTURE
     1 SER1        1 GROUP   
     2 ALA2       11 GROUP   
     3 ASP3       25 GROUP   
     4 LYS4       27 GROUP   
     5 PHE5       41 GROUP   
     6 GLY6       54 GROUP   
     7 CUB7       81 GROUP   
@<TRIPOS>SET

