#    Name: 5zqk_2_SAM
#    Modification time : Fri May 22 19:27:53 2020

@<TRIPOS>MOLECULE
5zqk_2_SAM
   27    29     1     0     0
SMALL
NO_CHARGES


@<TRIPOS>ATOM
      1 N          46.3400  -58.6830   31.1260 N.4       1 SAM1001     0.0000 
      2 CA         45.3260  -58.2840   32.1160 C.3       1 SAM1001     0.0000 
      3 C          45.0730  -59.3100   33.2940 C.2       1 SAM1001     0.0000 
      4 O          44.3960  -58.9610   34.2960 O.co2     1 SAM1001     0.0000 
      5 OXT        45.6010  -60.4270   33.1350 O.co2     1 SAM1001     0.0000 
      6 CB         44.0080  -58.0500   31.4090 C.3       1 SAM1001     0.0000 
      7 CG         44.1300  -56.7430   30.5930 C.3       1 SAM1001     0.0000 
      8 SD         42.5300  -56.2340   30.0390 S.3       1 SAM1001     0.0000 
      9 CE         42.1950  -57.1080   28.5590 C.3       1 SAM1001     0.0000 
     10 C5'        42.9790  -54.5800   29.4220 C.3       1 SAM1001     0.0000 
     11 C4'        43.0090  -53.4840   30.5110 C.3       1 SAM1001     0.0000 
     12 O4'        43.5170  -52.2580   29.9480 O.3       1 SAM1001     0.0000 
     13 C3'        41.6830  -53.1360   31.2020 C.3       1 SAM1001     0.0000 
     14 O3'        41.7450  -53.3780   32.6050 O.3       1 SAM1001     0.0000 
     15 C2'        41.4540  -51.6610   30.8360 C.3       1 SAM1001     0.0000 
     16 O2'        40.8460  -50.9290   31.8900 O.3       1 SAM1001     0.0000 
     17 C1'        42.8800  -51.1830   30.6040 C.3       1 SAM1001     0.0000 
     18 N9         43.0250  -49.9810   29.7840 N.pl3     1 SAM1001     0.0000 
     19 C8         42.3500  -49.6620   28.6310 C.2       1 SAM1001     0.0000 
     20 N7         42.7350  -48.5410   28.0760 N.2       1 SAM1001     0.0000 
     21 C5         43.7330  -48.0800   28.9220 C.ar      1 SAM1001     0.0000 
     22 C6         44.5600  -46.9360   28.8860 C.ar      1 SAM1001     0.0000 
     23 N6         44.5100  -46.0170   27.9180 N.pl3     1 SAM1001     0.0000 
     24 N1         45.4750  -46.7890   29.8740 N.ar      1 SAM1001     0.0000 
     25 C2         45.5590  -47.7320   30.8220 C.ar      1 SAM1001     0.0000 
     26 N3         44.8300  -48.8460   30.9650 N.ar      1 SAM1001     0.0000 
     27 C4         43.9260  -48.9600   29.9780 C.ar      1 SAM1001     0.0000 
@<TRIPOS>BOND
     1    1    2 1    
     2    2    3 1    
     3    2    6 1    
     4    3    4 ar   
     5    3    5 ar   
     6    6    7 1    
     7    7    8 1    
     8    8    9 1    
     9    8   10 1    
    10   10   11 1    
    11   11   12 1    
    12   11   13 1    
    13   12   17 1    
    14   13   14 1    
    15   13   15 1    
    16   15   16 1    
    17   15   17 1    
    18   17   18 1    
    19   18   19 1    
    20   18   27 1    
    21   19   20 2    
    22   20   21 1    
    23   21   22 ar   
    24   21   27 ar   
    25   22   23 1    
    26   22   24 ar   
    27   24   25 ar   
    28   25   26 ar   
    29   26   27 ar   
@<TRIPOS>SUBSTRUCTURE
     1 SAM1001     1 GROUP   
@<TRIPOS>SET

