#    Name: 5zqk_1_SAM_CAVITY_N1_8
#    Modification time : Fri May 22 19:27:42 2020

@<TRIPOS>MOLECULE
5zqk_1_SAM_CAVITY_N1_8
   76     0     6     0     0
SMALL
NO_CHARGES


@<TRIPOS>ATOM
      1 OG         51.0700   -6.8100   44.0300 O.3       1 SER1        0.0000 
      2 OG         50.5200   -5.6000   43.3300 O.3       1 SER1        0.0000 
      3 OG         51.4800  -10.5200   46.9600 O.3       1 SER1        0.0000 
      4 OG         50.9300   -9.3100   46.2600 O.3       1 SER1        0.0000 
      5 OG         52.1100   -9.6300   47.9900 O.3       1 SER1        0.0000 
      6 OG         51.5600   -8.4300   47.2900 O.3       1 SER1        0.0000 
      7 OG         52.2000   -7.5400   48.3200 O.3       1 SER1        0.0000 
      8 OG         48.4300    3.0100   43.7600 O.3       1 SER1        0.0000 
      9 O          54.0200   -9.9500   42.7200 O.2       2 ALA2        0.0000 
     10 O          52.2300   -8.8200   42.8600 O.2       2 ALA2        0.0000 
     11 N          50.6100   -3.5100   43.6600 N.am      2 ALA2        0.0000 
     12 N          51.2400   -2.6300   44.6900 N.am      2 ALA2        0.0000 
     13 N          50.6900   -1.4200   43.9900 N.am      2 ALA2        0.0000 
     14 N          50.1400   -0.2100   43.2900 N.am      2 ALA2        0.0000 
     15 N          49.5900    1.0000   42.5900 N.am      2 ALA2        0.0000 
     16 N          51.8800   -1.7400   45.7200 N.am      2 ALA2        0.0000 
     17 N          51.3300   -0.5300   45.0200 N.am      2 ALA2        0.0000 
     18 N          52.5100   -0.8500   46.7500 N.am      2 ALA2        0.0000 
     19 NZ         53.3300  -11.2400   44.2600 N.4       3 LYS4        0.0000 
     20 NZ         52.6400  -12.5300   45.7900 N.4       3 LYS4        0.0000 
     21 NZ         50.7800    0.6800   44.3200 N.4       3 LYS4        0.0000 
     22 NZ         50.2300    1.8800   43.6300 N.4       3 LYS4        0.0000 
     23 NZ         51.9600    0.3500   46.0500 N.4       3 LYS4        0.0000 
     24 NZ         50.1700    1.4800   46.1900 N.4       3 LYS4        0.0000 
     25 NZ         50.8000    2.3600   47.2200 N.4       3 LYS4        0.0000 
     26 CZ         55.2100  -10.2700   44.4500 C.ar      4 PHE5        0.0000 
     27 CZ         53.9700  -10.3500   45.2900 C.ar      4 PHE5        0.0000 
     28 CZ         50.3800   -8.1000   45.5600 C.ar      4 PHE5        0.0000 
     29 CZ         49.8300   -6.9000   44.8600 C.ar      4 PHE5        0.0000 
     30 CZ         51.0100   -7.2200   46.5900 C.ar      4 PHE5        0.0000 
     31 CZ         50.4600   -6.0100   45.8900 C.ar      4 PHE5        0.0000 
     32 CZ         48.6700   -4.8800   46.0300 C.ar      4 PHE5        0.0000 
     33 CZ         51.6500   -6.3300   47.6200 C.ar      4 PHE5        0.0000 
     34 CZ         51.1000   -5.1200   46.9200 C.ar      4 PHE5        0.0000 
     35 CZ         50.4100   -6.4100   48.4600 C.ar      4 PHE5        0.0000 
     36 CZ         49.8600   -5.2100   47.7600 C.ar      4 PHE5        0.0000 
     37 CZ         48.6100   -5.2900   48.5900 C.ar      4 PHE5        0.0000 
     38 CA         53.4700   -8.7400   42.0200 C.3       5 GLY6        0.0000 
     39 CA         52.7800  -10.0300   43.5600 C.3       5 GLY6        0.0000 
     40 CA         52.0900  -11.3200   45.0900 C.3       5 GLY6        0.0000 
     41 CA         54.6600   -9.0600   43.7500 C.3       5 GLY6        0.0000 
     42 CA         52.8700   -7.9400   43.8900 C.3       5 GLY6        0.0000 
     43 CA         52.3200   -6.7300   43.1900 C.3       5 GLY6        0.0000 
     44 CA         52.1700   -9.2300   45.4200 C.3       5 GLY6        0.0000 
     45 CA         51.6200   -8.0200   44.7200 C.3       5 GLY6        0.0000 
     46 CA         54.0500   -8.2600   45.6200 C.3       5 GLY6        0.0000 
     47 CA         53.5000   -7.0500   44.9200 C.3       5 GLY6        0.0000 
     48 CA         52.9500   -5.8400   44.2200 C.3       5 GLY6        0.0000 
     49 CA         51.1600   -4.7200   44.3600 C.3       5 GLY6        0.0000 
     50 CA         49.3600   -3.5900   44.4900 C.3       5 GLY6        0.0000 
     51 CA         48.8100   -2.3900   43.8000 C.3       5 GLY6        0.0000 
     52 CA         52.8900   -6.2500   46.7900 C.3       5 GLY6        0.0000 
     53 CA         52.3400   -5.0400   46.0900 C.3       5 GLY6        0.0000 
     54 CA         48.9000   -0.2900   44.1300 C.3       5 GLY6        0.0000 
     55 DU         53.4200   -9.1500   44.5900 H         6 CUB7        0.0000 
     56 DU         52.7200  -10.4400   46.1200 H         6 CUB7        0.0000 
     57 DU         52.8100   -8.3400   46.4500 H         6 CUB7        0.0000 
     58 DU         52.2600   -7.1400   45.7600 H         6 CUB7        0.0000 
     59 DU         51.7100   -5.9300   45.0600 H         6 CUB7        0.0000 
     60 DU         49.9100   -4.8000   45.1900 H         6 CUB7        0.0000 
     61 DU         51.7900   -3.8300   45.3900 H         6 CUB7        0.0000 
     62 DU         50.5500   -3.9200   46.2200 H         6 CUB7        0.0000 
     63 DU         50.0000   -2.7100   45.5300 H         6 CUB7        0.0000 
     64 DU         49.4500   -1.5000   44.8300 H         6 CUB7        0.0000 
     65 DU         49.3100   -4.0000   47.0600 H         6 CUB7        0.0000 
     66 DU         48.2100   -1.5800   45.6600 H         6 CUB7        0.0000 
     67 DU         51.1800   -3.0300   47.2600 H         6 CUB7        0.0000 
     68 DU         50.6300   -1.8200   46.5600 H         6 CUB7        0.0000 
     69 DU         50.0800   -0.6100   45.8600 H         6 CUB7        0.0000 
     70 DU         49.5300    0.5900   45.1600 H         6 CUB7        0.0000 
     71 DU         48.9800    1.8000   44.4600 H         6 CUB7        0.0000 
     72 DU         50.4900   -4.3200   48.7900 H         6 CUB7        0.0000 
     73 DU         47.7400    1.7200   45.3000 H         6 CUB7        0.0000 
     74 DU         51.2700   -0.9400   47.5900 H         6 CUB7        0.0000 
     75 DU         50.7200    0.2700   46.8900 H         6 CUB7        0.0000 
     76 DU         48.3700    2.6000   46.3300 H         6 CUB7        0.0000 
@<TRIPOS>BOND
@<TRIPOS>SUBSTRUCTURE
     1 SER1        1 GROUP   
     2 ALA2        9 GROUP   
     3 LYS4       19 GROUP   
     4 PHE5       26 GROUP   
     5 GLY6       38 GROUP   
     6 CUB7       55 GROUP   
@<TRIPOS>SET

