#    Name: 6pfg_6_NDP
#    Modification time : Fri May 22 19:36:36 2020

@<TRIPOS>MOLECULE
6pfg_6_NDP
   48    52     1     0     1
SMALL
NO_CHARGES


@<TRIPOS>ATOM
      1 PA        -13.0360 -116.1120  307.6290 P.3       1 NDP601      0.0000 
      2 O1A       -13.8230 -116.4280  306.3740 O.co2     1 NDP601      0.0000 
      3 O2A       -13.7930 -116.5670  308.8420 O.co2     1 NDP601      0.0000 
      4 O5B       -11.7170 -116.8860  307.5900 O.3       1 NDP601      0.0000 
      5 C5B       -10.9000 -116.8330  306.4540 C.3       1 NDP601      0.0000 
      6 C4B        -9.8700 -117.8760  306.3600 C.3       1 NDP601      0.0000 
      7 O4B       -10.4670 -119.1080  306.0240 O.3       1 NDP601      0.0000 
      8 C3B        -8.8990 -117.6230  305.2950 C.3       1 NDP601      0.0000 
      9 O3B        -7.8910 -116.7710  305.7110 O.3       1 NDP601      0.0000 
     10 C2B        -8.4030 -118.9500  305.0300 C.3       1 NDP601      0.0000 
     11 O2B        -7.5350 -119.3690  306.0420 O.3       1 NDP601      0.0000 
     12 C1B        -9.5970 -119.7690  305.1220 C.3       1 NDP601      0.0000 
     13 N9A       -10.2070 -119.9100  303.8480 N.pl3     1 NDP601      0.0000 
     14 C8A       -11.2400 -119.1780  303.3610 C.2       1 NDP601      0.0000 
     15 N7A       -11.5440 -119.6100  302.1220 N.2       1 NDP601      0.0000 
     16 C5A       -10.6920 -120.6430  301.8080 C.ar      1 NDP601      0.0000 
     17 C6A       -10.5230 -121.4810  300.6790 C.ar      1 NDP601      0.0000 
     18 N6A       -11.4050 -121.3010  299.5000 N.pl3     1 NDP601      0.0000 
     19 N1A        -9.5590 -122.4420  300.6800 N.ar      1 NDP601      0.0000 
     20 C2A        -8.7610 -122.5840  301.7740 C.ar      1 NDP601      0.0000 
     21 N3A        -8.8820 -121.8200  302.8630 N.ar      1 NDP601      0.0000 
     22 C4A        -9.8490 -120.8320  302.9050 C.ar      1 NDP601      0.0000 
     23 O3        -12.7100 -114.5540  307.7670 O.3       1 NDP601      0.0000 
     24 PN        -13.7520 -113.3980  307.4300 P.3       1 NDP601      0.0000 
     25 O1N       -13.0420 -112.0370  307.3770 O.co2     1 NDP601      0.0000 
     26 O2N       -14.3800 -113.6460  306.0730 O.co2     1 NDP601      0.0000 
     27 O5D       -14.8790 -113.3740  308.5920 O.3       1 NDP601      0.0000 
     28 C5D       -14.5390 -112.9720  309.8930 C.3       1 NDP601      0.0000 
     29 C4D       -15.1830 -111.7690  310.3890 C.3       1 NDP601      0.0000 
     30 O4D       -16.5970 -111.9400  310.3240 O.3       1 NDP601      0.0000 
     31 C3D       -14.8620 -111.5350  311.8000 C.3       1 NDP601      0.0000 
     32 O3D       -14.9500 -110.1770  312.0810 O.3       1 NDP601      0.0000 
     33 C2D       -15.9020 -112.2090  312.4940 C.3       1 NDP601      0.0000 
     34 O2D       -16.0780 -111.6500  313.7590 O.3       1 NDP601      0.0000 
     35 C1D       -17.0760 -111.9660  311.6280 C.3       1 NDP601      0.0000 
     36 N1N       -18.0470 -112.9970  311.8220 N.pl3     1 NDP601      0.0000 
     37 C2N       -19.3380 -112.6520  311.9890 C.2       1 NDP601      0.0000 
     38 C3N       -20.3240 -113.6310  312.1830 C.2       1 NDP601      0.0000 
     39 C7N       -21.7710 -113.2080  312.3700 C.2       1 NDP601      0.0000 
     40 O7N       -22.6590 -114.0750  312.3710 O.2       1 NDP601      0.0000 
     41 N7N       -22.1320 -111.8310  312.5520 N.am      1 NDP601      0.0000 
     42 C4N       -19.9610 -114.9890  312.2050 C.3       1 NDP601      0.0000 
     43 C5N       -18.6090 -115.3060  312.0330 C.2       1 NDP601      0.0000 
     44 C6N       -17.6600 -114.3080  311.8380 C.2       1 NDP601      0.0000 
     45 P2B        -5.9920 -119.3590  305.8310 P.3       1 NDP601      0.0000 
     46 O1X        -5.5150 -117.8950  305.7620 O.co2     1 NDP601      0.0000 
     47 O2X        -5.3560 -120.0550  306.9620 O.co2     1 NDP601      0.0000 
     48 O3X        -5.6400 -120.0740  304.5670 O.co2     1 NDP601      0.0000 
@<TRIPOS>BOND
     1    1    2 ar   
     2    1    3 ar   
     3    1    4 1    
     4    1   23 1    
     5    4    5 1    
     6    5    6 1    
     7    6    7 1    
     8    6    8 1    
     9    7   12 1    
    10    8    9 1    
    11    8   10 1    
    12   10   11 1    
    13   10   12 1    
    14   11   45 1    
    15   12   13 1    
    16   13   14 1    
    17   13   22 1    
    18   14   15 2    
    19   15   16 1    
    20   16   17 ar   
    21   16   22 ar   
    22   17   18 1    
    23   17   19 ar   
    24   19   20 ar   
    25   20   21 ar   
    26   21   22 ar   
    27   23   24 1    
    28   24   25 ar   
    29   24   26 ar   
    30   24   27 1    
    31   27   28 1    
    32   28   29 1    
    33   29   30 1    
    34   29   31 1    
    35   30   35 1    
    36   31   32 1    
    37   31   33 1    
    38   33   34 1    
    39   33   35 1    
    40   35   36 1    
    41   36   37 1    
    42   36   44 1    
    43   37   38 2    
    44   38   39 1    
    45   38   42 1    
    46   39   40 2    
    47   39   41 am   
    48   42   43 1    
    49   43   44 2    
    50   45   46 ar   
    51   45   47 ar   
    52   45   48 ar   
@<TRIPOS>SUBSTRUCTURE
     1 NDP601      1 GROUP   
@<TRIPOS>SET
ATOM$ORANGE STATIC     ATOMS   COLORGROUP SYSTEM 
42 5 5 6 6 8 8 10 10 12 12 14 14 16 16 17 17 20 \
20 22 22 28 28 29 29 31 31 33 33 35 35 37 37 38 38 39 \
39 42 42 43 43 44 44 

