#    Name: 6pfg_1_MTX
#    Modification time : Fri May 22 19:36:03 2020

@<TRIPOS>MOLECULE
6pfg_1_MTX
   33    35     1     0     0
SMALL
NO_CHARGES


@<TRIPOS>ATOM
      1 N1         25.8010  -53.0680  286.7920 N.ar      1 MTX604      0.0000 
      2 C2         25.7050  -53.2460  285.4640 C.ar      1 MTX604      0.0000 
      3 NA2        24.7680  -54.2170  284.9630 N.pl3     1 MTX604      0.0000 
      4 N3         26.4520  -52.5490  284.5940 N.ar      1 MTX604      0.0000 
      5 C4         27.3400  -51.6320  285.0320 C.ar      1 MTX604      0.0000 
      6 NA4        28.1420  -50.8840  284.1170 N.pl3     1 MTX604      0.0000 
      7 C4A        27.4760  -51.4110  286.4220 C.ar      1 MTX604      0.0000 
      8 N5         28.3580  -50.4930  286.9110 N.ar      1 MTX604      0.0000 
      9 C6         28.4430  -50.3180  288.2460 C.ar      1 MTX604      0.0000 
     10 C7         27.6620  -51.0540  289.1440 C.ar      1 MTX604      0.0000 
     11 N8         26.7930  -51.9580  288.6420 N.ar      1 MTX604      0.0000 
     12 C8A        26.6880  -52.1480  287.2860 C.ar      1 MTX604      0.0000 
     13 C9         29.4340  -49.3060  288.7550 C.3       1 MTX604      0.0000 
     14 N10        30.7760  -49.6510  288.3460 N.pl3     1 MTX604      0.0000 
     15 CM         31.4440  -48.8780  287.3350 C.3       1 MTX604      0.0000 
     16 C11        32.6700  -53.0700  289.9700 C.ar      1 MTX604      0.0000 
     17 C12        31.8520  -52.2840  290.7790 C.ar      1 MTX604      0.0000 
     18 C13        31.2260  -51.1560  290.2490 C.ar      1 MTX604      0.0000 
     19 C14        31.4280  -50.8160  288.9170 C.ar      1 MTX604      0.0000 
     20 C15        32.2380  -51.6050  288.1080 C.ar      1 MTX604      0.0000 
     21 C16        32.8590  -52.7300  288.6390 C.ar      1 MTX604      0.0000 
     22 C          33.3560  -54.3040  290.4960 C.2       1 MTX604      0.0000 
     23 O          33.7190  -54.3600  291.6580 O.2       1 MTX604      0.0000 
     24 N          33.5790  -55.4200  289.6040 N.am      1 MTX604      0.0000 
     25 CA         34.2270  -56.6260  290.0420 C.3       1 MTX604      0.0000 
     26 CT         34.8180  -57.2680  288.8480 C.2       1 MTX604      0.0000 
     27 O1         34.4550  -56.8890  287.7040 O.co2     1 MTX604      0.0000 
     28 O2         35.6820  -58.1890  288.9730 O.co2     1 MTX604      0.0000 
     29 CB         33.1880  -57.5440  290.5880 C.3       1 MTX604      0.0000 
     30 CG         33.5670  -58.5570  291.6240 C.3       1 MTX604      0.0000 
     31 CD         32.5430  -59.6050  291.9250 C.2       1 MTX604      0.0000 
     32 OE1        32.6100  -60.7040  291.3290 O.co2     1 MTX604      0.0000 
     33 OE2        31.4550  -59.2600  292.4530 O.co2     1 MTX604      0.0000 
@<TRIPOS>BOND
     1    1    2 ar   
     2    1   12 ar   
     3    2    3 1    
     4    2    4 ar   
     5    4    5 ar   
     6    5    6 1    
     7    5    7 ar   
     8    7    8 ar   
     9    7   12 ar   
    10    8    9 ar   
    11    9   10 ar   
    12    9   13 1    
    13   10   11 ar   
    14   11   12 ar   
    15   13   14 1    
    16   14   15 1    
    17   14   19 1    
    18   16   17 ar   
    19   16   21 ar   
    20   16   22 1    
    21   17   18 ar   
    22   18   19 ar   
    23   19   20 ar   
    24   20   21 ar   
    25   22   23 2    
    26   22   24 am   
    27   24   25 1    
    28   25   26 1    
    29   25   29 1    
    30   26   27 ar   
    31   26   28 ar   
    32   29   30 1    
    33   30   31 1    
    34   31   32 ar   
    35   31   33 ar   
@<TRIPOS>SUBSTRUCTURE
     1 MTX604      1 GROUP   
@<TRIPOS>SET

