#    Name: 6pfg_4_MTX
#    Modification time : Fri May 22 19:36:19 2020

@<TRIPOS>MOLECULE
6pfg_4_MTX
   33    35     1     0     0
SMALL
NO_CHARGES


@<TRIPOS>ATOM
      1 N1        -20.7760  -74.3950  249.7460 N.ar      1 MTX604      0.0000 
      2 C2        -21.1810  -73.7090  248.6640 C.ar      1 MTX604      0.0000 
      3 NA2       -21.2420  -74.3910  247.3980 N.pl3     1 MTX604      0.0000 
      4 N3        -21.5290  -72.4140  248.7280 N.ar      1 MTX604      0.0000 
      5 C4        -21.4820  -71.7500  249.9030 C.ar      1 MTX604      0.0000 
      6 NA4       -21.8480  -70.3730  249.9880 N.pl3     1 MTX604      0.0000 
      7 C4A       -21.0610  -72.4310  251.0690 C.ar      1 MTX604      0.0000 
      8 N5        -20.9980  -71.8020  252.2780 N.ar      1 MTX604      0.0000 
      9 C6        -20.5940  -72.5010  253.3600 C.ar      1 MTX604      0.0000 
     10 C7        -20.2300  -73.8490  253.2760 C.ar      1 MTX604      0.0000 
     11 N8        -20.2990  -74.4560  252.0710 N.ar      1 MTX604      0.0000 
     12 C8A       -20.7110  -73.7640  250.9600 C.ar      1 MTX604      0.0000 
     13 C9        -20.5240  -71.7820  254.6840 C.3       1 MTX604      0.0000 
     14 N10       -19.6140  -70.6600  254.6290 N.pl3     1 MTX604      0.0000 
     15 CM        -20.1270  -69.3170  254.6430 C.3       1 MTX604      0.0000 
     16 C11       -15.4490  -71.3090  254.2150 C.ar      1 MTX604      0.0000 
     17 C12       -16.2080  -72.1760  254.9990 C.ar      1 MTX604      0.0000 
     18 C13       -17.5800  -71.9670  255.1400 C.ar      1 MTX604      0.0000 
     19 C14       -18.1850  -70.8880  254.5030 C.ar      1 MTX604      0.0000 
     20 C15       -17.4280  -70.0270  253.7160 C.ar      1 MTX604      0.0000 
     21 C16       -16.0620  -70.2400  253.5760 C.ar      1 MTX604      0.0000 
     22 C         -13.9650  -71.5020  254.0240 C.2       1 MTX604      0.0000 
     23 O         -13.2810  -71.9830  254.9120 O.2       1 MTX604      0.0000 
     24 N         -13.3580  -71.1100  252.7690 N.am      1 MTX604      0.0000 
     25 CA        -11.9500  -71.2670  252.5230 C.3       1 MTX604      0.0000 
     26 CT        -11.5920  -70.3680  251.4060 C.2       1 MTX604      0.0000 
     27 O1        -12.5080  -69.8600  250.7080 O.co2     1 MTX604      0.0000 
     28 O2        -10.3740  -70.1100  251.1540 O.co2     1 MTX604      0.0000 
     29 CB        -11.7000  -72.6620  252.0680 C.3       1 MTX604      0.0000 
     30 CG        -10.4370  -73.3570  252.4710 C.3       1 MTX604      0.0000 
     31 CD        -10.1540  -74.6360  251.7530 C.2       1 MTX604      0.0000 
     32 OE1        -9.4110  -74.5960  250.7460 O.co2     1 MTX604      0.0000 
     33 OE2       -10.9900  -75.5720  251.8450 O.co2     1 MTX604      0.0000 
@<TRIPOS>BOND
     1    1    2 ar   
     2    1   12 ar   
     3    2    3 1    
     4    2    4 ar   
     5    4    5 ar   
     6    5    6 1    
     7    5    7 ar   
     8    7    8 ar   
     9    7   12 ar   
    10    8    9 ar   
    11    9   10 ar   
    12    9   13 1    
    13   10   11 ar   
    14   11   12 ar   
    15   13   14 1    
    16   14   15 1    
    17   14   19 1    
    18   16   17 ar   
    19   16   21 ar   
    20   16   22 1    
    21   17   18 ar   
    22   18   19 ar   
    23   19   20 ar   
    24   20   21 ar   
    25   22   23 2    
    26   22   24 am   
    27   24   25 1    
    28   25   26 1    
    29   25   29 1    
    30   26   27 ar   
    31   26   28 ar   
    32   29   30 1    
    33   30   31 1    
    34   31   32 ar   
    35   31   33 ar   
@<TRIPOS>SUBSTRUCTURE
     1 MTX604      1 GROUP   
@<TRIPOS>SET

