#    Name: 6pfg_5_NDP
#    Modification time : Fri May 22 19:36:28 2020

@<TRIPOS>MOLECULE
6pfg_5_NDP
   48    52     1     0     1
SMALL
NO_CHARGES


@<TRIPOS>ATOM
      1 PA         14.7280  -98.3870  237.0550 P.3       1 NDP601      0.0000 
      2 O1A        15.9750  -98.3110  237.9130 O.co2     1 NDP601      0.0000 
      3 O2A        13.8470  -97.2030  237.3320 O.co2     1 NDP601      0.0000 
      4 O5B        15.1300  -98.3520  235.5770 O.3       1 NDP601      0.0000 
      5 C5B        16.1360  -99.2040  235.1030 C.3       1 NDP601      0.0000 
      6 C4B        16.7190  -98.8730  233.7960 C.3       1 NDP601      0.0000 
      7 O4B        17.5370  -97.7280  233.8950 O.3       1 NDP601      0.0000 
      8 C3B        17.6230  -99.9120  233.3040 C.3       1 NDP601      0.0000 
      9 O3B        16.9350 -100.9730  232.7410 O.3       1 NDP601      0.0000 
     10 C2B        18.3830  -99.1770  232.3240 C.3       1 NDP601      0.0000 
     11 O2B        17.6210  -98.9020  231.1830 O.3       1 NDP601      0.0000 
     12 C1B        18.6180  -97.9120  232.9940 C.3       1 NDP601      0.0000 
     13 N9A        19.8680  -97.9260  233.6730 N.pl3     1 NDP601      0.0000 
     14 C8A        20.0730  -98.1560  234.9930 C.2       1 NDP601      0.0000 
     15 N7A        21.3920  -98.0780  235.2610 N.2       1 NDP601      0.0000 
     16 C5A        22.0540  -97.7880  234.0890 C.ar      1 NDP601      0.0000 
     17 C6A        23.4130  -97.5860  233.7320 C.ar      1 NDP601      0.0000 
     18 N6A        24.4720  -97.6810  234.7670 N.pl3     1 NDP601      0.0000 
     19 N1A        23.7460  -97.3050  232.4430 N.ar      1 NDP601      0.0000 
     20 C2A        22.7630  -97.2220  231.5060 C.ar      1 NDP601      0.0000 
     21 N3A        21.4720  -97.4020  231.7920 N.ar      1 NDP601      0.0000 
     22 C4A        21.0840  -97.6900  233.0880 C.ar      1 NDP601      0.0000 
     23 O3         13.9180  -99.7330  237.3340 O.3       1 NDP601      0.0000 
     24 PN         13.4700 -100.1870  238.7920 P.3       1 NDP601      0.0000 
     25 O1N        13.0050 -101.6500  238.7710 O.co2     1 NDP601      0.0000 
     26 O2N        14.6430 -100.0560  239.7410 O.co2     1 NDP601      0.0000 
     27 O5D        12.2300  -99.2630  239.2810 O.3       1 NDP601      0.0000 
     28 C5D        10.9170  -99.6260  238.9370 C.3       1 NDP601      0.0000 
     29 C4D        10.0030  -99.9730  240.0150 C.3       1 NDP601      0.0000 
     30 O4D        10.2560  -99.1430  241.1480 O.3       1 NDP601      0.0000 
     31 C3D         8.6090  -99.7260  239.6290 C.3       1 NDP601      0.0000 
     32 O3D         7.7730 -100.6180  240.2910 O.3       1 NDP601      0.0000 
     33 C2D         8.3570  -98.4090  240.1030 C.3       1 NDP601      0.0000 
     34 O2D         6.9900  -98.2180  240.3090 O.3       1 NDP601      0.0000 
     35 C1D         9.1150  -98.3820  241.3730 C.3       1 NDP601      0.0000 
     36 N1N         9.4340  -97.0360  241.7450 N.pl3     1 NDP601      0.0000 
     37 C2N         9.1680  -96.6310  242.9990 C.2       1 NDP601      0.0000 
     38 C3N         9.4590  -95.3230  243.4140 C.2       1 NDP601      0.0000 
     39 C7N         9.1390  -94.9100  244.8410 C.2       1 NDP601      0.0000 
     40 O7N         9.5370  -93.8130  245.2630 O.2       1 NDP601      0.0000 
     41 N7N         8.3820  -95.7650  245.7110 N.am      1 NDP601      0.0000 
     42 C4N        10.0390  -94.4180  242.5060 C.3       1 NDP601      0.0000 
     43 C5N        10.3000  -94.8750  241.2090 C.2       1 NDP601      0.0000 
     44 C6N         9.9980  -96.1820  240.8370 C.2       1 NDP601      0.0000 
     45 P2B        17.8890  -99.6310  229.8300 P.3       1 NDP601      0.0000 
     46 O1X        17.4760 -101.1080  229.9720 O.co2     1 NDP601      0.0000 
     47 O2X        17.1030  -98.9820  228.7670 O.co2     1 NDP601      0.0000 
     48 O3X        19.3370  -99.5400  229.4670 O.co2     1 NDP601      0.0000 
@<TRIPOS>BOND
     1    1    2 ar   
     2    1    3 ar   
     3    1    4 1    
     4    1   23 1    
     5    4    5 1    
     6    5    6 1    
     7    6    7 1    
     8    6    8 1    
     9    7   12 1    
    10    8    9 1    
    11    8   10 1    
    12   10   11 1    
    13   10   12 1    
    14   11   45 1    
    15   12   13 1    
    16   13   14 1    
    17   13   22 1    
    18   14   15 2    
    19   15   16 1    
    20   16   17 ar   
    21   16   22 ar   
    22   17   18 1    
    23   17   19 ar   
    24   19   20 ar   
    25   20   21 ar   
    26   21   22 ar   
    27   23   24 1    
    28   24   25 ar   
    29   24   26 ar   
    30   24   27 1    
    31   27   28 1    
    32   28   29 1    
    33   29   30 1    
    34   29   31 1    
    35   30   35 1    
    36   31   32 1    
    37   31   33 1    
    38   33   34 1    
    39   33   35 1    
    40   35   36 1    
    41   36   37 1    
    42   36   44 1    
    43   37   38 2    
    44   38   39 1    
    45   38   42 1    
    46   39   40 2    
    47   39   41 am   
    48   42   43 1    
    49   43   44 2    
    50   45   46 ar   
    51   45   47 ar   
    52   45   48 ar   
@<TRIPOS>SUBSTRUCTURE
     1 NDP601      1 GROUP   
@<TRIPOS>SET
ATOM$ORANGE STATIC     ATOMS   COLORGROUP SYSTEM 
42 5 5 6 6 8 8 10 10 12 12 14 14 16 16 17 17 20 \
20 22 22 28 28 29 29 31 31 33 33 35 35 37 37 38 38 39 \
39 42 42 43 43 44 44 

