#    Name: 6pfg_5_MTX
#    Modification time : Fri May 22 19:36:24 2020

@<TRIPOS>MOLECULE
6pfg_5_MTX
   33    35     1     0     0
SMALL
NO_CHARGES


@<TRIPOS>ATOM
      1 N1         29.7880  -79.9830  304.0240 N.ar      1 MTX604      0.0000 
      2 C2         31.0580  -80.2650  304.3660 C.ar      1 MTX604      0.0000 
      3 NA2        31.8700  -79.2220  304.9390 N.pl3     1 MTX604      0.0000 
      4 N3         31.5920  -81.4840  304.1910 N.ar      1 MTX604      0.0000 
      5 C4         30.8550  -82.4810  303.6550 C.ar      1 MTX604      0.0000 
      6 NA4        31.3990  -83.7850  303.4570 N.pl3     1 MTX604      0.0000 
      7 C4A        29.5160  -82.2280  303.2800 C.ar      1 MTX604      0.0000 
      8 N5         28.7420  -83.2060  302.7350 N.ar      1 MTX604      0.0000 
      9 C6         27.4690  -82.9220  302.4040 C.ar      1 MTX604      0.0000 
     10 C7         26.9220  -81.6460  302.5790 C.ar      1 MTX604      0.0000 
     11 N8         27.7050  -80.6870  303.1220 N.ar      1 MTX604      0.0000 
     12 C8A        29.0030  -80.9600  303.4760 C.ar      1 MTX604      0.0000 
     13 C9         26.6610  -84.0320  301.7900 C.3       1 MTX604      0.0000 
     14 N10        27.2900  -84.4580  300.5610 N.pl3     1 MTX604      0.0000 
     15 CM         28.0000  -85.7060  300.5000 C.3       1 MTX604      0.0000 
     16 C11        27.2940  -81.8570  297.2140 C.ar      1 MTX604      0.0000 
     17 C12        26.1840  -81.9040  298.0570 C.ar      1 MTX604      0.0000 
     18 C13        26.1740  -82.7620  299.1570 C.ar      1 MTX604      0.0000 
     19 C14        27.2760  -83.5690  299.4100 C.ar      1 MTX604      0.0000 
     20 C15        28.3870  -83.5150  298.5750 C.ar      1 MTX604      0.0000 
     21 C16        28.3930  -82.6590  297.4790 C.ar      1 MTX604      0.0000 
     22 C          27.3520  -80.9330  296.0240 C.2       1 MTX604      0.0000 
     23 O          26.3370  -80.6340  295.4210 O.2       1 MTX604      0.0000 
     24 N          28.6300  -80.3900  295.6150 N.am      1 MTX604      0.0000 
     25 CA         28.7650  -79.5000  294.4940 C.3       1 MTX604      0.0000 
     26 CT         30.1020  -79.7310  293.9070 C.2       1 MTX604      0.0000 
     27 O1         31.0070  -80.2390  294.6200 O.co2     1 MTX604      0.0000 
     28 O2         30.3360  -79.4250  292.6980 O.co2     1 MTX604      0.0000 
     29 CB         28.7300  -78.1000  294.9980 C.3       1 MTX604      0.0000 
     30 CG         28.1100  -77.0270  294.1570 C.3       1 MTX604      0.0000 
     31 CD         28.3420  -75.6180  294.6050 C.2       1 MTX604      0.0000 
     32 OE1        29.2870  -74.9590  294.1140 O.co2     1 MTX604      0.0000 
     33 OE2        27.5180  -75.0570  295.3750 O.co2     1 MTX604      0.0000 
@<TRIPOS>BOND
     1    1    2 ar   
     2    1   12 ar   
     3    2    3 1    
     4    2    4 ar   
     5    4    5 ar   
     6    5    6 1    
     7    5    7 ar   
     8    7    8 ar   
     9    7   12 ar   
    10    8    9 ar   
    11    9   10 ar   
    12    9   13 1    
    13   10   11 ar   
    14   11   12 ar   
    15   13   14 1    
    16   14   15 1    
    17   14   19 1    
    18   16   17 ar   
    19   16   21 ar   
    20   16   22 1    
    21   17   18 ar   
    22   18   19 ar   
    23   19   20 ar   
    24   20   21 ar   
    25   22   23 2    
    26   22   24 am   
    27   24   25 1    
    28   25   26 1    
    29   25   29 1    
    30   26   27 ar   
    31   26   28 ar   
    32   29   30 1    
    33   30   31 1    
    34   31   32 ar   
    35   31   33 ar   
@<TRIPOS>SUBSTRUCTURE
     1 MTX604      1 GROUP   
@<TRIPOS>SET

