#    Name: 6pfg_3_MTX
#    Modification time : Fri May 22 19:36:13 2020

@<TRIPOS>MOLECULE
6pfg_3_MTX
   33    35     1     0     0
SMALL
NO_CHARGES


@<TRIPOS>ATOM
      1 N1        -24.6800 -115.1030  315.7170 N.ar      1 MTX604      0.0000 
      2 C2        -25.3650 -115.8500  314.8350 C.ar      1 MTX604      0.0000 
      3 NA2       -26.7960 -115.7250  314.7950 N.pl3     1 MTX604      0.0000 
      4 N3        -24.7580 -116.7050  313.9970 N.ar      1 MTX604      0.0000 
      5 C4        -23.4140 -116.8410  314.0160 C.ar      1 MTX604      0.0000 
      6 NA4       -22.7480 -117.7440  313.1340 N.pl3     1 MTX604      0.0000 
      7 C4A       -22.6520 -116.0750  314.9260 C.ar      1 MTX604      0.0000 
      8 N5        -21.2930 -116.1840  314.9810 N.ar      1 MTX604      0.0000 
      9 C6        -20.6130 -115.4190  315.8590 C.ar      1 MTX604      0.0000 
     10 C7        -21.2590 -114.5400  316.7360 C.ar      1 MTX604      0.0000 
     11 N8        -22.6050 -114.4460  316.6700 N.ar      1 MTX604      0.0000 
     12 C8A       -23.3150 -115.2060  315.7740 C.ar      1 MTX604      0.0000 
     13 C9        -19.1160 -115.5710  315.9010 C.3       1 MTX604      0.0000 
     14 N10       -18.7490 -116.9190  316.2630 N.pl3     1 MTX604      0.0000 
     15 CM        -18.2140 -117.8300  315.2900 C.3       1 MTX604      0.0000 
     16 C11       -19.4980 -118.2110  320.2090 C.ar      1 MTX604      0.0000 
     17 C12       -19.1100 -116.8960  319.9740 C.ar      1 MTX604      0.0000 
     18 C13       -18.8610 -116.4710  318.6710 C.ar      1 MTX604      0.0000 
     19 C14       -19.0010 -117.3640  317.6170 C.ar      1 MTX604      0.0000 
     20 C15       -19.3940 -118.6770  317.8480 C.ar      1 MTX604      0.0000 
     21 C16       -19.6420 -119.0960  319.1500 C.ar      1 MTX604      0.0000 
     22 C         -19.7910 -118.7090  321.5980 C.2       1 MTX604      0.0000 
     23 O         -19.1970 -118.2520  322.5600 O.2       1 MTX604      0.0000 
     24 N         -20.7990 -119.7340  321.7650 N.am      1 MTX604      0.0000 
     25 CA        -21.1500 -120.2700  323.0510 C.3       1 MTX604      0.0000 
     26 CT        -21.7090 -121.6170  322.8100 C.2       1 MTX604      0.0000 
     27 O1        -22.0560 -121.9400  321.6420 O.co2     1 MTX604      0.0000 
     28 O2        -21.8360 -122.4390  323.7680 O.co2     1 MTX604      0.0000 
     29 CB        -22.2260 -119.4180  323.6290 C.3       1 MTX604      0.0000 
     30 CG        -22.3400 -119.2680  325.1160 C.3       1 MTX604      0.0000 
     31 CD        -23.5900 -118.6160  325.6180 C.2       1 MTX604      0.0000 
     32 OE1       -24.5550 -119.3330  325.9690 O.co2     1 MTX604      0.0000 
     33 OE2       -23.7860 -117.3980  325.3750 O.co2     1 MTX604      0.0000 
@<TRIPOS>BOND
     1    1    2 ar   
     2    1   12 ar   
     3    2    3 1    
     4    2    4 ar   
     5    4    5 ar   
     6    5    6 1    
     7    5    7 ar   
     8    7    8 ar   
     9    7   12 ar   
    10    8    9 ar   
    11    9   10 ar   
    12    9   13 1    
    13   10   11 ar   
    14   11   12 ar   
    15   13   14 1    
    16   14   15 1    
    17   14   19 1    
    18   16   17 ar   
    19   16   21 ar   
    20   16   22 1    
    21   17   18 ar   
    22   18   19 ar   
    23   19   20 ar   
    24   20   21 ar   
    25   22   23 2    
    26   22   24 am   
    27   24   25 1    
    28   25   26 1    
    29   25   29 1    
    30   26   27 ar   
    31   26   28 ar   
    32   29   30 1    
    33   30   31 1    
    34   31   32 ar   
    35   31   33 ar   
@<TRIPOS>SUBSTRUCTURE
     1 MTX604      1 GROUP   
@<TRIPOS>SET

