#    Name: 6pfg_2_MTX
#    Modification time : Fri May 22 19:36:08 2020

@<TRIPOS>MOLECULE
6pfg_2_MTX
   33    35     1     0     0
SMALL
NO_CHARGES


@<TRIPOS>ATOM
      1 N1          6.9010  -90.9020  246.2500 N.ar      1 MTX604      0.0000 
      2 C2          8.0140  -90.2860  246.6800 C.ar      1 MTX604      0.0000 
      3 NA2         8.0220  -89.7270  248.0060 N.pl3     1 MTX604      0.0000 
      4 N3          9.1120  -90.1760  245.9150 N.ar      1 MTX604      0.0000 
      5 C4          9.1290  -90.6920  244.6660 C.ar      1 MTX604      0.0000 
      6 NA4        10.2880  -90.5840  243.8380 N.pl3     1 MTX604      0.0000 
      7 C4A         7.9780  -91.3500  244.1710 C.ar      1 MTX604      0.0000 
      8 N5          7.9490  -91.8870  242.9170 N.ar      1 MTX604      0.0000 
      9 C6          6.8260  -92.5080  242.4980 C.ar      1 MTX604      0.0000 
     10 C7          5.6880  -92.6100  243.3050 C.ar      1 MTX604      0.0000 
     11 N8          5.7350  -92.0730  244.5440 N.ar      1 MTX604      0.0000 
     12 C8A         6.8700  -91.4410  244.9920 C.ar      1 MTX604      0.0000 
     13 C9          6.8190  -93.0820  241.1060 C.3       1 MTX604      0.0000 
     14 N10         7.0560  -92.0490  240.1250 N.pl3     1 MTX604      0.0000 
     15 CM          8.3080  -92.0050  239.4220 C.3       1 MTX604      0.0000 
     16 C11         4.1440  -89.0410  239.4660 C.ar      1 MTX604      0.0000 
     17 C12         3.7440  -90.3470  239.7390 C.ar      1 MTX604      0.0000 
     18 C13         4.6980  -91.3410  239.9520 C.ar      1 MTX604      0.0000 
     19 C14         6.0500  -91.0260  239.8910 C.ar      1 MTX604      0.0000 
     20 C15         6.4490  -89.7190  239.6290 C.ar      1 MTX604      0.0000 
     21 C16         5.4950  -88.7290  239.4170 C.ar      1 MTX604      0.0000 
     22 C           3.1360  -87.9410  239.2430 C.2       1 MTX604      0.0000 
     23 O           2.0550  -88.1930  238.7380 O.2       1 MTX604      0.0000 
     24 N           3.4620  -86.5880  239.6430 N.am      1 MTX604      0.0000 
     25 CA          2.5530  -85.4860  239.4700 C.3       1 MTX604      0.0000 
     26 CT          3.3630  -84.2500  239.4240 C.2       1 MTX604      0.0000 
     27 O1          4.5690  -84.2920  239.7830 O.co2     1 MTX604      0.0000 
     28 O2          2.8520  -83.1560  239.0320 O.co2     1 MTX604      0.0000 
     29 CB          1.6870  -85.3940  240.6790 C.3       1 MTX604      0.0000 
     30 CG          0.1950  -85.4420  240.5450 C.3       1 MTX604      0.0000 
     31 CD         -0.5840  -85.0700  241.7670 C.2       1 MTX604      0.0000 
     32 OE1        -0.9850  -83.8900  241.9000 O.co2     1 MTX604      0.0000 
     33 OE2        -1.0620  -85.9720  242.5020 O.co2     1 MTX604      0.0000 
@<TRIPOS>BOND
     1    1    2 ar   
     2    1   12 ar   
     3    2    3 1    
     4    2    4 ar   
     5    4    5 ar   
     6    5    6 1    
     7    5    7 ar   
     8    7    8 ar   
     9    7   12 ar   
    10    8    9 ar   
    11    9   10 ar   
    12    9   13 1    
    13   10   11 ar   
    14   11   12 ar   
    15   13   14 1    
    16   14   15 1    
    17   14   19 1    
    18   16   17 ar   
    19   16   21 ar   
    20   16   22 1    
    21   17   18 ar   
    22   18   19 ar   
    23   19   20 ar   
    24   20   21 ar   
    25   22   23 2    
    26   22   24 am   
    27   24   25 1    
    28   25   26 1    
    29   25   29 1    
    30   26   27 ar   
    31   26   28 ar   
    32   29   30 1    
    33   30   31 1    
    34   31   32 ar   
    35   31   33 ar   
@<TRIPOS>SUBSTRUCTURE
     1 MTX604      1 GROUP   
@<TRIPOS>SET

