#    Name: 6gnc_1_FAD
#    Modification time : Fri May 22 19:27:17 2020

@<TRIPOS>MOLECULE
6gnc_1_FAD
   84    89     1     0     1
SMALL
NO_CHARGES


@<TRIPOS>ATOM
      1 PA         11.7880   55.0660   13.4180 P.3       1 FAD301      0.0000 
      2 O1A        12.7140   54.9020   12.2560 O.co2     1 FAD301      0.0000 
      3 O2A        11.6740   56.3950   14.0880 O.co2     1 FAD301      0.0000 
      4 O5B        10.3390   54.5730   12.9510 O.3       1 FAD301      0.0000 
      5 C5B         9.2000   54.7840   13.7710 C.3       1 FAD301      0.0000 
      6 C4B         7.9540   54.8700   12.9040 C.3       1 FAD301      0.0000 
      7 O4B         6.7960   54.5030   13.6550 O.3       1 FAD301      0.0000 
      8 C3B         7.7350   56.2910   12.4260 C.3       1 FAD301      0.0000 
      9 O3B         7.2290   56.2940   11.0960 O.3       1 FAD301      0.0000 
     10 C2B         6.6850   56.8240   13.3620 C.3       1 FAD301      0.0000 
     11 O2B         5.9250   57.8770   12.7760 O.3       1 FAD301      0.0000 
     12 C1B         5.8610   55.5800   13.6270 C.3       1 FAD301      0.0000 
     13 N9A         5.1070   55.7170   14.8890 N.pl3     1 FAD301      0.0000 
     14 C8A         5.5750   56.1880   16.0520 C.2       1 FAD301      0.0000 
     15 N7A         4.6030   56.1850   16.9920 N.2       1 FAD301      0.0000 
     16 C5A         3.4890   55.7120   16.4190 C.ar      1 FAD301      0.0000 
     17 C6A         2.0990   55.4500   16.8410 C.ar      1 FAD301      0.0000 
     18 N6A         1.7020   55.7020   18.1050 N.pl3     1 FAD301      0.0000 
     19 N1A         1.2540   54.9520   15.9210 N.ar      1 FAD301      0.0000 
     20 C2A         1.6280   54.6950   14.6600 C.ar      1 FAD301      0.0000 
     21 N3A         2.8730   54.9130   14.2130 N.ar      1 FAD301      0.0000 
     22 C4A         3.8240   55.4100   15.0290 C.ar      1 FAD301      0.0000 
     23 N1         21.1450   55.1040   11.2790 N.2       1 FAD301      0.0000 
     24 C2         22.0390   54.2760   10.6910 C.2       1 FAD301      0.0000 
     25 O2         22.2020   53.1420   11.1730 O.2       1 FAD301      0.0000 
     26 N3         22.7580   54.6230    9.6110 N.am      1 FAD301      0.0000 
     27 C4         22.6350   55.8230    9.0430 C.2       1 FAD301      0.0000 
     28 O4         23.3120   56.1250    8.0440 O.2       1 FAD301      0.0000 
     29 C4X        21.6770   56.7880    9.6270 C.2       1 FAD301      0.0000 
     30 N5         21.4980   58.0160    9.1070 N.2       1 FAD301      0.0000 
     31 C5X        20.6180   58.8760    9.6600 C.ar      1 FAD301      0.0000 
     32 C6         20.4510   60.1360    9.1030 C.ar      1 FAD301      0.0000 
     33 C7         19.5490   61.0320    9.6600 C.ar      1 FAD301      0.0000 
     34 C7M        19.3700   62.3980    9.0550 C.3       1 FAD301      0.0000 
     35 C8         18.7570   60.6450   10.8510 C.ar      1 FAD301      0.0000 
     36 C8M        17.7820   61.6200   11.4510 C.3       1 FAD301      0.0000 
     37 C9         18.9200   59.3850   11.4100 C.ar      1 FAD301      0.0000 
     38 C9A        19.8210   58.4860   10.8560 C.ar      1 FAD301      0.0000 
     39 N10        20.0020   57.2110   11.4230 N.pl3     1 FAD301      0.0000 
     40 C10        20.9140   56.3390   10.8080 C.2       1 FAD301      0.0000 
     41 C1'        19.2270   56.7910   12.5940 C.3       1 FAD301      0.0000 
     42 C2'        18.1090   55.8530   12.1750 C.3       1 FAD301      0.0000 
     43 O2'        17.2410   56.5500   11.2800 O.3       1 FAD301      0.0000 
     44 C3'        17.3110   55.3840   13.3820 C.3       1 FAD301      0.0000 
     45 O3'        18.1800   54.7870   14.3420 O.3       1 FAD301      0.0000 
     46 C4'        16.2590   54.3700   12.9670 C.3       1 FAD301      0.0000 
     47 O4'        15.4010   54.9420   11.9760 O.3       1 FAD301      0.0000 
     48 C5'        15.4260   53.9160   14.1590 C.3       1 FAD301      0.0000 
     49 O5'        14.3050   53.2180   13.6460 O.3       1 FAD301      0.0000 
     50 P          13.0910   52.7460   14.5700 P.3       1 FAD301      0.0000 
     51 O1P        12.4060   51.6100   13.8810 O.co2     1 FAD301      0.0000 
     52 O2P        13.5280   52.5890   15.9910 O.co2     1 FAD301      0.0000 
     53 O3P        12.1240   54.0260   14.5970 O.3       1 FAD301      0.0000 
     54 H51A        9.3200   55.7090   14.3380 H         1 FAD301      0.0000 
     55 H52A        9.0990   53.9600   14.4810 H         1 FAD301      0.0000 
     56 H4B         8.0710   54.2090   12.0330 H         1 FAD301      0.0000 
     57 H3B         8.6620   56.8750   12.5130 H         1 FAD301      0.0000 
     58 HO3A        7.0380   57.2020   10.8260 H         1 FAD301      0.0000 
     59 H2B         7.1590   57.1570   14.2960 H         1 FAD301      0.0000 
     60 HO2A        6.4930   58.6480   12.6430 H         1 FAD301      0.0000 
     61 H1B         5.1610   55.4410   12.7920 H         1 FAD301      0.0000 
     62 H8A         6.5930   56.5160   16.2180 H         1 FAD301      0.0000 
     63 H61A        2.3580   56.0740   18.7760 H         1 FAD301      0.0000 
     64 H62A        0.7480   55.5150   18.3810 H         1 FAD301      0.0000 
     65 H2A         0.8930   54.2960   13.9720 H         1 FAD301      0.0000 
     66 HN3        23.4300   53.9390    9.2090 H         1 FAD301      0.0000 
     67 H6         21.0280   60.4220    8.2330 H         1 FAD301      0.0000 
     68 HM71       18.6070   62.3630    8.3220 H         1 FAD301      0.0000 
     69 HM72       20.2780   62.7060    8.6050 H         1 FAD301      0.0000 
     70 HM73       19.1010   63.0870    9.8130 H         1 FAD301      0.0000 
     71 HM81       18.2750   62.2110   12.1780 H         1 FAD301      0.0000 
     72 HM82       17.3960   62.2470   10.6890 H         1 FAD301      0.0000 
     73 HM83       16.9870   61.0900   11.9070 H         1 FAD301      0.0000 
     74 H9         18.3420   59.1020   12.2810 H         1 FAD301      0.0000 
     75 H1'1       18.8090   57.6540   13.1150 H         1 FAD301      0.0000 
     76 H1'2       19.8870   56.2720   13.2920 H         1 FAD301      0.0000 
     77 H2'        18.5460   54.9780   11.6730 H         1 FAD301      0.0000 
     78 HO2'       16.8570   57.3140   11.7330 H         1 FAD301      0.0000 
     79 H3'        16.8050   56.2520   13.8280 H         1 FAD301      0.0000 
     80 HO3'       18.6090   54.0140   13.9510 H         1 FAD301      0.0000 
     81 H4'        16.7700   53.4920   12.5470 H         1 FAD301      0.0000 
     82 HO4'       14.9360   55.7020   12.3510 H         1 FAD301      0.0000 
     83 H5'1       15.0990   54.7790   14.7420 H         1 FAD301      0.0000 
     84 H5'2       16.0160   53.2610   14.8040 H         1 FAD301      0.0000 
@<TRIPOS>BOND
     1    8   57 1    
     2    9   58 1    
     3   10   11 1    
     4   10   12 1    
     5   10   59 1    
     6   11   60 1    
     7   12   13 1    
     8   12   61 1    
     9   13   14 1    
    10   13   22 1    
    11   14   15 2    
    12   14   62 1    
    13   15   16 1    
    14   16   17 ar   
    15   16   22 ar   
    16   17   18 1    
    17   17   19 ar   
    18   18   63 1    
    19   18   64 1    
    20   19   20 ar   
    21   20   21 ar   
    22   20   65 1    
    23   21   22 ar   
    24   23   24 1    
    25   23   40 2    
    26   24   25 2    
    27   24   26 am   
    28   26   27 am   
    29   26   66 1    
    30   27   28 2    
    31   27   29 1    
    32   29   30 2    
    33   29   40 1    
    34   30   31 1    
    35   31   32 ar   
    36   31   38 ar   
    37   32   33 ar   
    38   32   67 1    
    39   33   34 1    
    40   33   35 ar   
    41   34   68 1    
    42   34   69 1    
    43   34   70 1    
    44   35   36 1    
    45   35   37 ar   
    46   36   71 1    
    47   36   72 1    
    48   36   73 1    
    49   37   38 ar   
    50   37   74 1    
    51   38   39 1    
    52   39   40 1    
    53   39   41 1    
    54   41   42 1    
    55   41   75 1    
    56   41   76 1    
    57   42   43 1    
    58   42   44 1    
    59   42   77 1    
    60   43   78 1    
    61   44   45 1    
    62   44   46 1    
    63   44   79 1    
    64   45   80 1    
    65   46   47 1    
    66   46   48 1    
    67   46   81 1    
    68   47   82 1    
    69   48   49 1    
    70   48   83 1    
    71   48   84 1    
    72   49   50 1    
    73   50   51 ar   
    74   50   52 ar   
    75   50   53 1    
    76    1    2 ar   
    77    1    3 ar   
    78    1    4 1    
    79    1   53 1    
    80    4    5 1    
    81    5    6 1    
    82    5   54 1    
    83    5   55 1    
    84    6    7 1    
    85    6    8 1    
    86    6   56 1    
    87    7   12 1    
    88    8    9 1    
    89    8   10 1    
@<TRIPOS>SUBSTRUCTURE
     1 FAD301      1 GROUP   
@<TRIPOS>SET
ATOM$ORANGE STATIC     ATOMS   COLORGROUP SYSTEM 
54 5 5 6 6 8 8 10 10 12 12 14 14 16 16 17 17 20 \
20 22 22 24 24 27 27 29 29 31 31 32 32 33 33 34 34 35 \
35 36 36 37 37 38 38 40 40 41 41 42 42 44 44 46 46 48 \
48 

