#    Name: 6hcy_6_FAD
#    Modification time : Fri May 22 19:25:40 2020

@<TRIPOS>MOLECULE
6hcy_6_FAD
   53    58     1     0     1
SMALL
NO_CHARGES


@<TRIPOS>ATOM
      1 PA        115.0140   99.2650  107.1260 P.3       1 FAD503      0.0000 
      2 O1A       116.0480   98.8540  106.1620 O.co2     1 FAD503      0.0000 
      3 O2A       114.2130  100.4550  106.6460 O.co2     1 FAD503      0.0000 
      4 O5B       114.0460   98.1210  107.4860 O.3       1 FAD503      0.0000 
      5 C5B       114.4990   96.7540  107.5520 C.3       1 FAD503      0.0000 
      6 C4B       113.6800   95.8950  106.6260 C.3       1 FAD503      0.0000 
      7 O4B       113.5230   96.5610  105.3540 O.3       1 FAD503      0.0000 
      8 C3B       114.3070   94.5510  106.2860 C.3       1 FAD503      0.0000 
      9 O3B       114.0010   93.5740  107.2710 O.3       1 FAD503      0.0000 
     10 C2B       113.6650   94.2360  104.9390 C.3       1 FAD503      0.0000 
     11 O2B       112.3430   93.7380  105.0890 O.3       1 FAD503      0.0000 
     12 C1B       113.6390   95.6220  104.2970 C.3       1 FAD503      0.0000 
     13 N9A       114.8470   95.9240  103.5390 N.pl3     1 FAD503      0.0000 
     14 C8A       115.8550   96.7790  103.8900 C.2       1 FAD503      0.0000 
     15 N7A       116.8310   96.8430  103.0180 N.2       1 FAD503      0.0000 
     16 C5A       116.4390   95.9600  102.0250 C.ar      1 FAD503      0.0000 
     17 C6A       117.0370   95.5650  100.8150 C.ar      1 FAD503      0.0000 
     18 N6A       118.2080   96.0350  100.3760 N.pl3     1 FAD503      0.0000 
     19 N1A       116.3800   94.6640  100.0550 N.ar      1 FAD503      0.0000 
     20 C2A       115.2080   94.1920  100.4840 C.ar      1 FAD503      0.0000 
     21 N3A       114.5480   94.4890  101.6030 N.ar      1 FAD503      0.0000 
     22 C4A       115.2200   95.3830  102.3350 C.ar      1 FAD503      0.0000 
     23 N1        114.3050  107.4910  108.0550 N.2       1 FAD503      0.0000 
     24 C2        114.4880  107.9430  106.7850 C.2       1 FAD503      0.0000 
     25 O2        114.2030  107.2490  105.8080 O.2       1 FAD503      0.0000 
     26 N3        115.0020  109.2020  106.5780 N.am      1 FAD503      0.0000 
     27 C4        115.3640  110.0930  107.5470 C.2       1 FAD503      0.0000 
     28 O4        115.8110  111.1930  107.2400 O.2       1 FAD503      0.0000 
     29 C4X       115.1660  109.6090  108.8880 C.2       1 FAD503      0.0000 
     30 N5        115.4850  110.3850  109.8600 N.2       1 FAD503      0.0000 
     31 C5X       115.2960  109.9320  111.1410 C.ar      1 FAD503      0.0000 
     32 C6        115.6380  110.7640  112.2010 C.ar      1 FAD503      0.0000 
     33 C7        115.4700  110.3500  113.5150 C.ar      1 FAD503      0.0000 
     34 C7M       115.8440  111.2790  114.6380 C.3       1 FAD503      0.0000 
     35 C8        114.9540  109.0730  113.7750 C.ar      1 FAD503      0.0000 
     36 C8M       114.7570  108.5860  115.1790 C.3       1 FAD503      0.0000 
     37 C9        114.6090  108.2430  112.7200 C.ar      1 FAD503      0.0000 
     38 C9A       114.7820  108.6590  111.4090 C.ar      1 FAD503      0.0000 
     39 N10       114.4630  107.8360  110.3140 N.pl3     1 FAD503      0.0000 
     40 C10       114.6300  108.2860  109.0400 C.2       1 FAD503      0.0000 
     41 C1'       113.8850  106.5040  110.5140 C.3       1 FAD503      0.0000 
     42 C2'       114.9190  105.4020  110.6690 C.3       1 FAD503      0.0000 
     43 O2'       116.2280  105.9600  110.6180 O.3       1 FAD503      0.0000 
     44 C3'       114.7380  104.3850  109.5470 C.3       1 FAD503      0.0000 
     45 O3'       113.9490  103.3130  110.0410 O.3       1 FAD503      0.0000 
     46 C4'       116.0500  103.8200  109.0210 C.3       1 FAD503      0.0000 
     47 O4'       116.3790  104.5090  107.8160 O.3       1 FAD503      0.0000 
     48 C5'       116.0030  102.3340  108.7500 C.3       1 FAD503      0.0000 
     49 O5'       115.4720  101.6490  109.9020 O.3       1 FAD503      0.0000 
     50 P         114.9620  100.1670  109.7950 P.3       1 FAD503      0.0000 
     51 O1P       115.4720   99.3360  110.9740 O.co2     1 FAD503      0.0000 
     52 O2P       113.5320  100.1430  109.5980 O.co2     1 FAD503      0.0000 
     53 O3P       115.6920   99.6480  108.5060 O.3       1 FAD503      0.0000 
@<TRIPOS>BOND
     1    1    2 ar   
     2    1    3 ar   
     3    1    4 1    
     4    1   53 1    
     5    4    5 1    
     6    5    6 1    
     7    6    7 1    
     8    6    8 1    
     9    7   12 1    
    10    8    9 1    
    11    8   10 1    
    12   10   11 1    
    13   10   12 1    
    14   12   13 1    
    15   13   14 1    
    16   13   22 1    
    17   14   15 2    
    18   15   16 1    
    19   16   17 ar   
    20   16   22 ar   
    21   17   18 1    
    22   17   19 ar   
    23   19   20 ar   
    24   20   21 ar   
    25   21   22 ar   
    26   23   24 1    
    27   23   40 2    
    28   24   25 2    
    29   24   26 am   
    30   26   27 am   
    31   27   28 2    
    32   27   29 1    
    33   29   30 2    
    34   29   40 1    
    35   30   31 1    
    36   31   32 ar   
    37   31   38 ar   
    38   32   33 ar   
    39   33   34 1    
    40   33   35 ar   
    41   35   36 1    
    42   35   37 ar   
    43   37   38 ar   
    44   38   39 1    
    45   39   40 1    
    46   39   41 1    
    47   41   42 1    
    48   42   43 1    
    49   42   44 1    
    50   44   45 1    
    51   44   46 1    
    52   46   47 1    
    53   46   48 1    
    54   48   49 1    
    55   49   50 1    
    56   50   51 ar   
    57   50   52 ar   
    58   50   53 1    
@<TRIPOS>SUBSTRUCTURE
     1 FAD503      1 GROUP   
@<TRIPOS>SET
ATOM$ORANGE STATIC     ATOMS   COLORGROUP SYSTEM 
54 5 5 6 6 8 8 10 10 12 12 14 14 16 16 17 17 20 \
20 22 22 24 24 27 27 29 29 31 31 32 32 33 33 34 34 35 \
35 36 36 37 37 38 38 40 40 41 41 42 42 44 44 46 46 48 \
48 

