#    Name: 6hcy_3_NAP_CAVITY_N1_8
#    Modification time : Fri May 22 19:24:52 2020

@<TRIPOS>MOLECULE
6hcy_3_NAP_CAVITY_N1_8
  126     0     7     0     0
SMALL
NO_CHARGES


@<TRIPOS>ATOM
      1 OG        124.0000   92.8300   88.6400 O.3       1 SER1        0.0000 
      2 OG        122.5300   91.7900   89.7700 O.3       1 SER1        0.0000 
      3 OG        126.0400   94.4300   88.7800 O.3       1 SER1        0.0000 
      4 OG        123.1000   92.3600   91.0300 O.3       1 SER1        0.0000 
      5 OG        126.6100   94.9900   90.0500 O.3       1 SER1        0.0000 
      6 OG        128.4800   93.8900   91.4800 O.3       1 SER1        0.0000 
      7 N         121.3900   90.6600   87.2300 N.am      2 ALA2        0.0000 
      8 N         123.4300   92.2600   87.3700 N.am      2 ALA2        0.0000 
      9 N         122.0500   92.5800   87.8500 N.am      2 ALA2        0.0000 
     10 O         120.6600   92.8900   88.3400 O.2       2 ALA2        0.0000 
     11 N         121.9600   91.2200   88.5000 N.am      2 ALA2        0.0000 
     12 O         120.5800   91.5400   88.9800 O.2       2 ALA2        0.0000 
     13 O         120.4900   90.1900   89.6200 O.2       2 ALA2        0.0000 
     14 N         124.1700   95.5300   87.3500 N.am      2 ALA2        0.0000 
     15 N         122.7000   94.4900   88.4800 N.am      2 ALA2        0.0000 
     16 O         121.2300   93.4600   89.6000 O.2       2 ALA2        0.0000 
     17 O         121.1500   92.1100   90.2500 O.2       2 ALA2        0.0000 
     18 N         124.8300   97.4500   87.9800 N.am      2 ALA2        0.0000 
     19 O         120.4200   94.3400   91.3500 O.2       2 ALA2        0.0000 
     20 N         124.0100   98.3300   89.7300 N.am      2 ALA2        0.0000 
     21 O         126.7000   96.3500   89.4100 O.2       2 ALA2        0.0000 
     22 O         125.3100   96.6600   89.8900 O.2       2 ALA2        0.0000 
     23 N         124.5800   98.9000   90.9900 N.am      2 ALA2        0.0000 
     24 N         123.2000   99.2200   91.4700 N.am      2 ALA2        0.0000 
     25 O         125.8800   97.2300   91.1600 O.2       2 ALA2        0.0000 
     26 O         124.5000   97.5500   91.6400 O.2       2 ALA2        0.0000 
     27 O         127.1800   95.5600   91.3200 O.2       2 ALA2        0.0000 
     28 N         123.7700   99.7800   92.7400 N.am      2 ALA2        0.0000 
     29 O         125.0700   98.1100   92.9000 O.2       2 ALA2        0.0000 
     30 O         123.6800   98.4300   93.3800 O.2       2 ALA2        0.0000 
     31 N         122.2900   98.7500   93.8600 N.am      2 ALA2        0.0000 
     32 O         124.9800   96.7600   93.5500 O.2       2 ALA2        0.0000 
     33 O         122.2100   97.3900   94.5100 O.2       2 ALA2        0.0000 
     34 O         120.8200   97.7100   94.9900 O.2       2 ALA2        0.0000 
     35 N         129.0500   94.4600   92.7500 N.am      2 ALA2        0.0000 
     36 O         120.7400   96.3600   95.6300 O.2       2 ALA2        0.0000 
     37 O         119.3500   96.6800   96.1100 O.2       2 ALA2        0.0000 
     38 N         121.9500   93.3400   96.4400 N.am      2 ALA2        0.0000 
     39 N         124.3400  100.3500   94.0100 N.am      2 ALA2        0.0000 
     40 O         124.2500   99.0000   94.6500 O.2       2 ALA2        0.0000 
     41 N         122.8600   99.3100   95.1300 N.am      2 ALA2        0.0000 
     42 O         126.9300   97.0100   94.3300 O.2       2 ALA2        0.0000 
     43 O         125.5500   97.3300   94.8100 O.2       2 ALA2        0.0000 
     44 N         129.6200   95.0200   94.0100 N.am      2 ALA2        0.0000 
     45 N         128.2300   95.3400   94.5000 N.am      2 ALA2        0.0000 
     46 N         122.5200   93.9000   97.7000 N.am      2 ALA2        0.0000 
     47 N         121.1300   94.2200   98.1900 N.am      2 ALA2        0.0000 
     48 N         128.8000   95.9100   95.7600 N.am      2 ALA2        0.0000 
     49 OD1       127.5000   97.5800   95.6000 O.co2     3 ASP3        0.0000 
     50 OD1       127.4200   96.2200   96.2400 O.co2     3 ASP3        0.0000 
     51 OD1       126.0300   96.5400   96.7200 O.co2     3 ASP3        0.0000 
     52 OD1       124.5600   95.5100   97.8500 O.co2     3 ASP3        0.0000 
     53 OD1       121.7000   94.7900   99.4500 O.co2     3 ASP3        0.0000 
     54 NZ        120.0800   94.4400   95.0100 N.4       4 LYS4        0.0000 
     55 NZ        120.6500   95.0100   96.2700 N.4       4 LYS4        0.0000 
     56 NZ        119.2700   95.3200   96.7600 N.4       4 LYS4        0.0000 
     57 NZ        120.5700   93.6500   96.9200 N.4       4 LYS4        0.0000 
     58 CZ        124.6600   94.7400   89.2600 C.ar      5 PHE5        0.0000 
     59 CZ        124.5700   93.3900   89.9100 C.ar      5 PHE5        0.0000 
     60 CZ        123.1900   93.7100   90.3900 C.ar      5 PHE5        0.0000 
     61 CZ        122.6300   98.6500   90.2100 C.ar      5 PHE5        0.0000 
     62 CZ        122.5400   97.3000   90.8500 C.ar      5 PHE5        0.0000 
     63 CZ        125.2300   95.3100   90.5300 C.ar      5 PHE5        0.0000 
     64 CZ        125.1400   93.9600   91.1800 C.ar      5 PHE5        0.0000 
     65 CZ        123.7500   94.2800   91.6600 C.ar      5 PHE5        0.0000 
     66 CZ        121.7300   98.1800   92.6000 C.ar      5 PHE5        0.0000 
     67 CZ        121.6400   96.8300   93.2400 C.ar      5 PHE5        0.0000 
     68 CZ        127.0900   94.2100   91.9600 C.ar      5 PHE5        0.0000 
     69 CZ        125.7100   94.5200   92.4400 C.ar      5 PHE5        0.0000 
     70 CZ        128.3900   92.5400   92.1200 C.ar      5 PHE5        0.0000 
     71 CZ        127.5800   93.4200   93.8700 C.ar      5 PHE5        0.0000 
     72 CZ        124.1600   97.6400   95.2900 C.ar      5 PHE5        0.0000 
     73 CZ        122.7800   97.9600   95.7700 C.ar      5 PHE5        0.0000 
     74 CZ        122.6900   96.6100   96.4200 C.ar      5 PHE5        0.0000 
     75 CZ        124.6500   96.8600   97.2000 C.ar      5 PHE5        0.0000 
     76 CZ        121.8800   97.4900   98.1700 C.ar      5 PHE5        0.0000 
     77 CZ        123.1700   95.8200   98.3300 C.ar      5 PHE5        0.0000 
     78 CZ        121.7900   96.1400   98.8100 C.ar      5 PHE5        0.0000 
     79 CA        122.7900   95.8500   87.8400 C.3       6 GLY6        0.0000 
     80 CA        125.4700   93.8600   87.5200 C.3       6 GLY6        0.0000 
     81 CA        124.0900   94.1800   88.0000 C.3       6 GLY6        0.0000 
     82 CA        123.4400   97.7700   88.4600 C.3       6 GLY6        0.0000 
     83 CA        126.1300   95.7800   88.1400 C.3       6 GLY6        0.0000 
     84 CA        124.7400   96.1000   88.6200 C.3       6 GLY6        0.0000 
     85 CA        123.3600   96.4100   89.1000 C.3       6 GLY6        0.0000 
     86 CA        123.2700   95.0600   89.7500 C.3       6 GLY6        0.0000 
     87 CA        121.8900   95.3800   90.2300 C.3       6 GLY6        0.0000 
     88 CA        121.8000   94.0300   90.8700 C.3       6 GLY6        0.0000 
     89 CA        122.4600   95.9400   91.4900 C.3       6 GLY6        0.0000 
     90 CA        121.0700   96.2600   91.9700 C.3       6 GLY6        0.0000 
     91 CA        120.9800   94.9100   92.6200 C.3       6 GLY6        0.0000 
     92 CA        119.6000   95.2300   93.1000 C.3       6 GLY6        0.0000 
     93 CA        120.2500   97.1400   93.7200 C.3       6 GLY6        0.0000 
     94 CA        120.1700   95.7900   94.3600 C.3       6 GLY6        0.0000 
     95 CA        127.7500   96.1300   92.5900 C.3       6 GLY6        0.0000 
     96 CA        126.3600   96.4400   93.0700 C.3       6 GLY6        0.0000 
     97 CA        128.9600   93.1100   93.3900 C.3       6 GLY6        0.0000 
     98 CA        128.3200   96.6900   93.8500 C.3       6 GLY6        0.0000 
     99 CA        121.3900   98.2800   96.2600 C.3       6 GLY6        0.0000 
    100 CA        121.3100   96.9300   96.9000 C.3       6 GLY6        0.0000 
    101 CA        119.9200   97.2400   97.3800 C.3       6 GLY6        0.0000 
    102 CA        128.1500   93.9900   95.1400 C.3       6 GLY6        0.0000 
    103 DU        122.6200   93.1400   89.1200 H         7 CUB7        0.0000 
    104 DU        123.9300   96.9800   90.3700 H         7 CUB7        0.0000 
    105 DU        123.8400   95.6300   91.0100 H         7 CUB7        0.0000 
    106 DU        122.3700   94.5900   92.1400 H         7 CUB7        0.0000 
    107 DU        123.1100   97.8600   92.1200 H         7 CUB7        0.0000 
    108 DU        125.8000   95.8800   91.8000 H         7 CUB7        0.0000 
    109 DU        124.4100   96.1900   92.2800 H         7 CUB7        0.0000 
    110 DU        123.0200   96.5100   92.7600 H         7 CUB7        0.0000 
    111 DU        124.3200   94.8400   92.9200 H         7 CUB7        0.0000 
    112 DU        121.5500   95.4800   93.8800 H         7 CUB7        0.0000 
    113 DU        123.5900   97.0800   94.0300 H         7 CUB7        0.0000 
    114 DU        127.6600   94.7700   93.2300 H         7 CUB7        0.0000 
    115 DU        126.2800   95.0900   93.7100 H         7 CUB7        0.0000 
    116 DU        122.1200   96.0400   95.1500 H         7 CUB7        0.0000 
    117 DU        126.1900   93.7400   94.3500 H         7 CUB7        0.0000 
    118 DU        122.0400   94.6900   95.7900 H         7 CUB7        0.0000 
    119 DU        126.8500   95.6600   94.9800 H         7 CUB7        0.0000 
    120 DU        125.4600   95.9700   95.4600 H         7 CUB7        0.0000 
    121 DU        126.7600   94.3100   95.6200 H         7 CUB7        0.0000 
    122 DU        125.3800   94.6200   96.1000 H         7 CUB7        0.0000 
    123 DU        123.9900   94.9400   96.5800 H         7 CUB7        0.0000 
    124 DU        122.6100   95.2600   97.0600 H         7 CUB7        0.0000 
    125 DU        121.2200   95.5700   97.5400 H         7 CUB7        0.0000 
    126 DU        119.8400   95.8900   98.0200 H         7 CUB7        0.0000 
@<TRIPOS>BOND
@<TRIPOS>SUBSTRUCTURE
     1 SER1        1 GROUP   
     2 ALA2        7 GROUP   
     3 ASP3       49 GROUP   
     4 LYS4       54 GROUP   
     5 PHE5       58 GROUP   
     6 GLY6       79 GROUP   
     7 CUB7      103 GROUP   
@<TRIPOS>SET

