#    Name: 6hcy_1_NAP
#    Modification time : Fri May 22 19:24:23 2020

@<TRIPOS>MOLECULE
6hcy_1_NAP
   48    52     1     0     1
SMALL
NO_CHARGES


@<TRIPOS>ATOM
      1 PA        149.6810  137.3970   89.1400 P.3       1 NAP501      0.0000 
      2 O1A       149.0450  136.4500   88.1610 O.co2     1 NAP501      0.0000 
      3 O2A       150.9520  136.8120   89.6940 O.co2     1 NAP501      0.0000 
      4 O5B       150.0290  138.8150   88.3970 O.3       1 NAP501      0.0000 
      5 C5B       149.2210  139.2180   87.3360 C.3       1 NAP501      0.0000 
      6 C4B       149.6350  138.5410   86.0010 C.3       1 NAP501      0.0000 
      7 O4B       149.5110  139.3980   85.0380 O.3       1 NAP501      0.0000 
      8 C3B       151.1220  138.1610   85.9750 C.3       1 NAP501      0.0000 
      9 O3B       151.2280  136.8340   86.1640 O.3       1 NAP501      0.0000 
     10 C2B       151.6190  138.4840   84.5550 C.3       1 NAP501      0.0000 
     11 O2B       152.1050  137.2390   83.9000 O.3       1 NAP501      0.0000 
     12 C1B       150.5720  138.9290   83.9230 C.3       1 NAP501      0.0000 
     13 N9A       150.8710  140.0480   83.0740 N.pl3     1 NAP501      0.0000 
     14 C8A       150.7930  140.2260   81.7580 C.2       1 NAP501      0.0000 
     15 N7A       151.1760  141.4680   81.4770 N.2       1 NAP501      0.0000 
     16 C5A       151.4860  142.0640   82.6270 C.ar      1 NAP501      0.0000 
     17 C6A       151.9300  143.3320   82.9010 C.ar      1 NAP501      0.0000 
     18 N6A       152.1940  144.4030   81.9610 N.pl3     1 NAP501      0.0000 
     19 N1A       152.1760  143.7010   84.1430 N.ar      1 NAP501      0.0000 
     20 C2A       151.9860  142.8300   85.1560 C.ar      1 NAP501      0.0000 
     21 N3A       151.5460  141.5860   84.8840 N.ar      1 NAP501      0.0000 
     22 C4A       151.2980  141.1990   83.6200 C.ar      1 NAP501      0.0000 
     23 O3        148.6390  137.6340   90.3780 O.3       1 NAP501      0.0000 
     24 PN        147.2490  136.7760   90.5070 P.3       1 NAP501      0.0000 
     25 O1N       146.6580  136.9650   91.8790 O.co2     1 NAP501      0.0000 
     26 O2N       147.5100  135.3120   90.2820 O.co2     1 NAP501      0.0000 
     27 O5D       146.2050  137.3160   89.3600 O.3       1 NAP501      0.0000 
     28 C5D       145.6800  136.3880   88.4630 C.3       1 NAP501      0.0000 
     29 C4D       144.1900  136.6930   88.1540 C.3       1 NAP501      0.0000 
     30 O4D       143.4390  135.7930   88.7210 O.3       1 NAP501      0.0000 
     31 C3D       143.7470  138.0380   88.7450 C.3       1 NAP501      0.0000 
     32 O3D       142.8890  138.6320   87.8860 O.3       1 NAP501      0.0000 
     33 C2D       142.9870  137.6690   90.0210 C.3       1 NAP501      0.0000 
     34 O2D       141.9560  138.7050   90.2940 O.3       1 NAP501      0.0000 
     35 C1D       142.4200  136.5450   89.7150 C.3       1 NAP501      0.0000 
     36 N1N       142.2270  135.7310   90.8820 N.pl3     1 NAP501      0.0000 
     37 C2N       143.2810  135.3770   91.6460 C.ar      1 NAP501      0.0000 
     38 C3N       143.0800  134.5910   92.7630 C.ar      1 NAP501      0.0000 
     39 C7N       144.2660  134.1990   93.6340 C.2       1 NAP501      0.0000 
     40 O7N       145.3650  134.4570   93.2890 O.2       1 NAP501      0.0000 
     41 N7N       144.0400  133.5110   94.8910 N.am      1 NAP501      0.0000 
     42 C4N       141.8370  134.1730   93.0830 C.ar      1 NAP501      0.0000 
     43 C5N       140.7820  134.5200   92.3130 C.ar      1 NAP501      0.0000 
     44 C6N       140.9880  135.3080   91.1970 C.ar      1 NAP501      0.0000 
     45 P2B       153.2640  137.3390   82.7360 P.3       1 NAP501      0.0000 
     46 O1X       152.6220  137.2660   81.3760 O.co2     1 NAP501      0.0000 
     47 O2X       154.0160  138.6410   82.8600 O.co2     1 NAP501      0.0000 
     48 O3X       154.2220  136.1870   82.8870 O.co2     1 NAP501      0.0000 
@<TRIPOS>BOND
     1    1    2 ar   
     2    1    3 ar   
     3    1    4 1    
     4    1   23 1    
     5    4    5 1    
     6    5    6 1    
     7    6    7 1    
     8    6    8 1    
     9    7   12 1    
    10    8    9 1    
    11    8   10 1    
    12   10   11 1    
    13   10   12 1    
    14   11   45 1    
    15   12   13 1    
    16   13   14 1    
    17   13   22 1    
    18   14   15 2    
    19   15   16 1    
    20   16   17 ar   
    21   16   22 ar   
    22   17   18 1    
    23   17   19 ar   
    24   19   20 ar   
    25   20   21 ar   
    26   21   22 ar   
    27   23   24 1    
    28   24   25 ar   
    29   24   26 ar   
    30   24   27 1    
    31   27   28 1    
    32   28   29 1    
    33   29   30 1    
    34   29   31 1    
    35   30   35 1    
    36   31   32 1    
    37   31   33 1    
    38   33   34 1    
    39   33   35 1    
    40   35   36 1    
    41   36   37 ar   
    42   36   44 ar   
    43   37   38 ar   
    44   38   39 1    
    45   38   42 ar   
    46   39   40 2    
    47   39   41 am   
    48   42   43 ar   
    49   43   44 ar   
    50   45   46 ar   
    51   45   47 ar   
    52   45   48 ar   
@<TRIPOS>SUBSTRUCTURE
     1 NAP501      1 GROUP   
@<TRIPOS>SET
ATOM$ORANGE STATIC     ATOMS   COLORGROUP SYSTEM 
42 5 5 6 6 8 8 10 10 12 12 14 14 16 16 17 17 20 \
20 22 22 28 28 29 29 31 31 33 33 35 35 37 37 38 38 39 \
39 42 42 43 43 44 44 

