#    Name: 6hcy_5_NAP_CAVITY_N1_6
#    Modification time : Fri May 22 19:25:24 2020

@<TRIPOS>MOLECULE
6hcy_5_NAP_CAVITY_N1_6
  126     0     7     0     0
SMALL
NO_CHARGES


@<TRIPOS>ATOM
      1 OG         95.7500  131.5600   89.3400 O.3       1 SER1        0.0000 
      2 OG         95.1900  136.5000   89.1600 O.3       1 SER1        0.0000 
      3 OG         93.8000  136.8200   89.6400 O.3       1 SER1        0.0000 
      4 OG         96.4900  134.8300   89.3200 O.3       1 SER1        0.0000 
      5 OG         95.6700  135.7200   91.0700 O.3       1 SER1        0.0000 
      6 N          94.7100  137.2900   87.2500 N.am      2 ALA2        0.0000 
      7 N          96.0000  135.6200   87.4100 N.am      2 ALA2        0.0000 
      8 N          97.2200  132.6000   88.2200 N.am      2 ALA2        0.0000 
      9 N          95.6600  130.2100   89.9900 N.am      2 ALA2        0.0000 
     10 N          96.6600  137.5400   88.0400 N.am      2 ALA2        0.0000 
     11 N          97.9600  135.8700   88.2000 N.am      2 ALA2        0.0000 
     12 N          96.5700  136.1900   88.6800 N.am      2 ALA2        0.0000 
     13 N          99.1700  132.8500   89.0100 N.am      2 ALA2        0.0000 
     14 N          99.0900  131.5000   89.6500 N.am      2 ALA2        0.0000 
     15 O          97.7000  131.8100   90.1300 O.2       2 ALA2        0.0000 
     16 O          97.6100  130.4600   90.7700 O.2       2 ALA2        0.0000 
     17 N          94.7600  129.7400   92.3800 N.am      2 ALA2        0.0000 
     18 O          95.8400  138.4200   89.7900 O.2       2 ALA2        0.0000 
     19 O          97.1400  136.7500   89.9500 O.2       2 ALA2        0.0000 
     20 N         101.0400  131.7500   90.4400 N.am      2 ALA2        0.0000 
     21 N          99.6500  132.0600   90.9200 N.am      2 ALA2        0.0000 
     22 O          99.5700  130.7100   91.5600 O.2       2 ALA2        0.0000 
     23 O          98.1800  131.0300   92.0400 O.2       2 ALA2        0.0000 
     24 N         101.6100  132.3100   91.7000 N.am      2 ALA2        0.0000 
     25 O         101.5200  130.9600   92.3500 O.2       2 ALA2        0.0000 
     26 O         100.1400  131.2800   92.8300 O.2       2 ALA2        0.0000 
     27 O          98.7500  131.5900   93.3100 O.2       2 ALA2        0.0000 
     28 O          98.6700  130.2400   93.9500 O.2       2 ALA2        0.0000 
     29 O          97.2800  130.5600   94.4300 O.2       2 ALA2        0.0000 
     30 N         100.7900  133.2000   93.4500 N.am      2 ALA2        0.0000 
     31 N         102.0900  131.5300   93.6100 N.am      2 ALA2        0.0000 
     32 O         100.7100  131.8400   94.0900 O.2       2 ALA2        0.0000 
     33 N         102.0100  130.1700   94.2600 N.am      2 ALA2        0.0000 
     34 O         100.6200  130.4900   94.7400 O.2       2 ALA2        0.0000 
     35 O          99.2400  130.8100   95.2200 O.2       2 ALA2        0.0000 
     36 O         100.5300  129.1400   95.3800 O.2       2 ALA2        0.0000 
     37 O          99.1500  129.4600   95.8600 O.2       2 ALA2        0.0000 
     38 O         101.4500  135.1100   94.0700 O.2       2 ALA2        0.0000 
     39 O         102.5700  130.7400   95.5200 O.2       2 ALA2        0.0000 
     40 O         100.6300  136.0000   95.8200 O.2       2 ALA2        0.0000 
     41 N          97.8600  136.6300   96.7800 N.am      2 ALA2        0.0000 
     42 OD1        97.8500  131.1200   95.7000 O.co2     3 ASP3        0.0000 
     43 OD1        97.7600  129.7700   96.3400 O.co2     3 ASP3        0.0000 
     44 OD1        98.4200  131.6900   96.9700 O.co2     3 ASP3        0.0000 
     45 OD1        98.3400  135.8500   98.6900 O.co2     3 ASP3        0.0000 
     46 NZ         98.1900  136.5300   93.1300 N.4       4 LYS4        0.0000 
     47 NZ         96.8100  136.8500   93.6100 N.4       4 LYS4        0.0000 
     48 NZ         98.7600  137.1000   94.3900 N.4       4 LYS4        0.0000 
     49 NZ         98.6800  135.7500   95.0400 N.4       4 LYS4        0.0000 
     50 NZ         97.2900  136.0600   95.5200 N.4       4 LYS4        0.0000 
     51 NZ         99.3300  137.6700   95.6600 N.4       4 LYS4        0.0000 
     52 NZ         99.2500  136.3100   96.3000 N.4       4 LYS4        0.0000 
     53 CZ         94.6200  135.9400   87.9000 C.ar      5 PHE5        0.0000 
     54 CZ         96.4000  133.4800   89.9700 C.ar      5 PHE5        0.0000 
     55 CZ         96.3100  132.1300   90.6100 C.ar      5 PHE5        0.0000 
     56 CZ         96.2300  130.7800   91.2500 C.ar      5 PHE5        0.0000 
     57 CZ         94.8400  131.0900   91.7400 C.ar      5 PHE5        0.0000 
     58 CZ        101.1300  133.1000   89.7900 C.ar      5 PHE5        0.0000 
     59 CZ         96.9700  134.0500   91.2400 C.ar      5 PHE5        0.0000 
     60 CZ         95.5900  134.3700   91.7200 C.ar      5 PHE5        0.0000 
     61 CZ         96.8800  132.7000   91.8800 C.ar      5 PHE5        0.0000 
     62 CZ         95.5000  133.0100   92.3600 C.ar      5 PHE5        0.0000 
     63 CZ         95.4100  131.6600   93.0000 C.ar      5 PHE5        0.0000 
     64 CZ        100.3100  133.9800   91.5400 C.ar      5 PHE5        0.0000 
     65 CZ        100.8800  134.5500   92.8100 C.ar      5 PHE5        0.0000 
     66 CZ        101.2800  132.4100   95.3600 C.ar      5 PHE5        0.0000 
     67 CZ         99.8900  132.7300   95.8400 C.ar      5 PHE5        0.0000 
     68 CZ        101.1900  131.0600   96.0000 C.ar      5 PHE5        0.0000 
     69 CZ         99.8000  131.3700   96.4900 C.ar      5 PHE5        0.0000 
     70 CZ        101.1000  129.7000   96.6500 C.ar      5 PHE5        0.0000 
     71 CZ         99.7200  130.0200   97.1300 C.ar      5 PHE5        0.0000 
     72 CZ        101.8400  132.9800   96.6300 C.ar      5 PHE5        0.0000 
     73 CZ        100.4600  133.2900   97.1100 C.ar      5 PHE5        0.0000 
     74 CZ         99.0700  133.6100   97.5900 C.ar      5 PHE5        0.0000 
     75 CZ         99.6400  134.1800   98.8600 C.ar      5 PHE5        0.0000 
     76 CA         98.6900  133.6300   87.1000 C.3       6 GLY6        0.0000 
     77 CA         97.3000  133.9500   87.5800 C.3       6 GLY6        0.0000 
     78 CA         95.9200  134.2700   88.0600 C.3       6 GLY6        0.0000 
     79 CA         98.6000  132.2800   87.7400 C.3       6 GLY6        0.0000 
     80 CA         97.1300  131.2500   88.8600 C.3       6 GLY6        0.0000 
     81 CA         95.2700  137.8600   88.5200 C.3       6 GLY6        0.0000 
     82 CA         99.2600  134.2000   88.3600 C.3       6 GLY6        0.0000 
     83 CA         97.8700  134.5200   88.8400 C.3       6 GLY6        0.0000 
     84 CA        100.5600  132.5300   88.5300 C.3       6 GLY6        0.0000 
     85 CA         96.1400  129.4300   91.9000 C.3       6 GLY6        0.0000 
     86 CA         95.7600  137.0700   90.4300 C.3       6 GLY6        0.0000 
     87 CA         98.4400  135.0800   90.1100 C.3       6 GLY6        0.0000 
     88 CA         99.7400  133.4100   90.2700 C.3       6 GLY6        0.0000 
     89 CA         96.7100  129.9900   93.1600 C.3       6 GLY6        0.0000 
     90 CA         97.7100  137.3200   91.2200 C.3       6 GLY6        0.0000 
     91 CA         96.3300  137.6400   91.7000 C.3       6 GLY6        0.0000 
     92 CA         99.0100  135.6500   91.3800 C.3       6 GLY6        0.0000 
     93 CA         97.6300  135.9700   91.8600 C.3       6 GLY6        0.0000 
     94 CA         98.9200  134.3000   92.0200 C.3       6 GLY6        0.0000 
     95 CA         97.1900  129.2100   95.0800 C.3       6 GLY6        0.0000 
     96 CA         99.5800  136.2200   92.6500 C.3       6 GLY6        0.0000 
     97 CA        100.1500  136.7800   93.9100 C.3       6 GLY6        0.0000 
     98 CA        100.0600  135.4300   94.5600 C.3       6 GLY6        0.0000 
     99 CA        101.3600  133.7600   94.7200 C.3       6 GLY6        0.0000 
    100 CA        101.9300  134.3300   95.9800 C.3       6 GLY6        0.0000 
    101 CA        100.5500  134.6500   96.4700 C.3       6 GLY6        0.0000 
    102 CA        101.1200  135.2100   97.7300 C.3       6 GLY6        0.0000 
    103 DU         93.8900  138.1700   89.0000 H         7 CUB7        0.0000 
    104 DU         97.7900  133.1700   89.4900 H         7 CUB7        0.0000 
    105 DU         97.0600  135.4000   90.5900 H         7 CUB7        0.0000 
    106 DU         98.3600  133.7300   90.7500 H         7 CUB7        0.0000 
    107 DU         98.2700  132.3800   91.4000 H         7 CUB7        0.0000 
    108 DU         96.8000  131.3400   92.5200 H         7 CUB7        0.0000 
    109 DU         95.3300  130.3100   93.6500 H         7 CUB7        0.0000 
    110 DU         96.2400  136.2800   92.3400 H         7 CUB7        0.0000 
    111 DU         97.5400  134.6200   92.5000 H         7 CUB7        0.0000 
    112 DU         96.1500  134.9300   92.9800 H         7 CUB7        0.0000 
    113 DU        100.2200  132.6300   92.1800 H         7 CUB7        0.0000 
    114 DU         98.8400  132.9500   92.6600 H         7 CUB7        0.0000 
    115 DU         97.4500  133.2600   93.1500 H         7 CUB7        0.0000 
    116 DU         96.0700  133.5800   93.6300 H         7 CUB7        0.0000 
    117 DU         97.3700  131.9100   93.7900 H         7 CUB7        0.0000 
    118 DU         95.9800  132.2300   94.2700 H         7 CUB7        0.0000 
    119 DU         99.4900  134.8600   93.2900 H         7 CUB7        0.0000 
    120 DU         98.1100  135.1800   93.7700 H         7 CUB7        0.0000 
    121 DU         99.3200  132.1600   94.5700 H         7 CUB7        0.0000 
    122 DU         99.9800  134.0800   95.2000 H         7 CUB7        0.0000 
    123 DU         98.5100  133.0400   96.3200 H         7 CUB7        0.0000 
    124 DU         99.1600  134.9600   96.9500 H         7 CUB7        0.0000 
    125 DU         99.8200  136.8800   97.5700 H         7 CUB7        0.0000 
    126 DU         99.7300  135.5300   98.2100 H         7 CUB7        0.0000 
@<TRIPOS>BOND
@<TRIPOS>SUBSTRUCTURE
     1 SER1        1 GROUP   
     2 ALA2        6 GROUP   
     3 ASP3       42 GROUP   
     4 LYS4       46 GROUP   
     5 PHE5       53 GROUP   
     6 GLY6       76 GROUP   
     7 CUB7      103 GROUP   
@<TRIPOS>SET

