#    Name: 6hcy_1_NAP_CAVITY_N1_6
#    Modification time : Fri May 22 19:24:25 2020

@<TRIPOS>MOLECULE
6hcy_1_NAP_CAVITY_N1_6
  139     0     7     0     0
SMALL
NO_CHARGES


@<TRIPOS>ATOM
      1 OG        145.7900  138.1000   88.8000 O.3       1 SER1        0.0000 
      2 OG        143.0200  138.7400   89.7700 O.3       1 SER1        0.0000 
      3 OG        149.1200  138.0300   89.1100 O.3       1 SER1        0.0000 
      4 OG        147.7400  138.3500   89.5900 O.3       1 SER1        0.0000 
      5 OG        147.6500  137.0000   90.2300 O.3       1 SER1        0.0000 
      6 OG        146.2700  137.3200   90.7100 O.3       1 SER1        0.0000 
      7 OG        142.9400  142.8900   91.4900 O.3       1 SER1        0.0000 
      8 OG        146.8400  137.8800   91.9800 O.3       1 SER1        0.0000 
      9 N         143.2600  137.2900   86.7500 N.am      2 ALA2        0.0000 
     10 N         143.8300  137.8500   88.0200 N.am      2 ALA2        0.0000 
     11 N         146.5200  135.8700   87.7000 N.am      2 ALA2        0.0000 
     12 N         145.1300  136.1800   88.1800 N.am      2 ALA2        0.0000 
     13 N         142.3600  136.8200   89.1400 N.am      2 ALA2        0.0000 
     14 N         140.9700  137.1300   89.6200 N.am      2 ALA2        0.0000 
     15 N         142.2700  135.4600   89.7800 N.am      2 ALA2        0.0000 
     16 N         140.8900  135.7800   90.2700 N.am      2 ALA2        0.0000 
     17 N         140.8000  134.4300   90.9100 N.am      2 ALA2        0.0000 
     18 N         148.5600  137.4700   87.8400 N.am      2 ALA2        0.0000 
     19 N         147.1700  137.7800   88.3200 N.am      2 ALA2        0.0000 
     20 O         141.6300  139.0500   90.2500 O.2       2 ALA2        0.0000 
     21 N         147.0800  136.4300   88.9700 N.am      2 ALA2        0.0000 
     22 O         141.5400  137.7000   90.8900 O.2       2 ALA2        0.0000 
     23 O         147.0000  135.0800   89.6100 O.2       2 ALA2        0.0000 
     24 O         141.4600  136.3500   91.5300 O.2       2 ALA2        0.0000 
     25 O         141.3700  135.0000   92.1800 O.2       2 ALA2        0.0000 
     26 O         139.9900  135.3100   92.6600 O.2       2 ALA2        0.0000 
     27 N         141.2900  133.6400   92.8200 N.am      2 ALA2        0.0000 
     28 N         142.2900  140.9700   90.8700 N.am      2 ALA2        0.0000 
     29 O         142.2000  139.6200   91.5100 O.2       2 ALA2        0.0000 
     30 O         149.0400  136.6800   89.7500 O.2       2 ALA2        0.0000 
     31 O         142.0300  136.9100   92.8000 O.2       2 ALA2        0.0000 
     32 O         141.9400  135.5600   93.4400 O.2       2 ALA2        0.0000 
     33 O         140.5600  135.8800   93.9200 O.2       2 ALA2        0.0000 
     34 N         141.8500  134.2100   94.0900 N.am      2 ALA2        0.0000 
     35 N         140.4700  134.5300   94.5700 N.am      2 ALA2        0.0000 
     36 N         141.4700  141.8500   92.6200 N.am      2 ALA2        0.0000 
     37 O         141.2100  137.8000   94.5500 O.2       2 ALA2        0.0000 
     38 O         139.8300  138.1100   95.0300 O.2       2 ALA2        0.0000 
     39 O         141.1200  136.4500   95.1900 O.2       2 ALA2        0.0000 
     40 O         139.7400  136.7600   95.6700 O.2       2 ALA2        0.0000 
     41 O         143.7200  133.1100   95.5200 O.2       2 ALA2        0.0000 
     42 N         141.9500  141.0700   94.5300 N.am      2 ALA2        0.0000 
     43 O         144.2900  133.6700   96.7800 O.2       2 ALA2        0.0000 
     44 O         145.5900  132.0000   96.9500 O.2       2 ALA2        0.0000 
     45 N         146.9900  137.1900   97.5500 N.am      2 ALA2        0.0000 
     46 N         146.9000  135.8400   98.1900 N.am      2 ALA2        0.0000 
     47 OD1       140.4800  140.0300   95.6500 O.co2     3 ASP3        0.0000 
     48 OD1       141.7800  138.3600   95.8100 O.co2     3 ASP3        0.0000 
     49 OD1       140.3900  138.6800   96.2900 O.co2     3 ASP3        0.0000 
     50 OD1       143.7300  138.6100   96.6000 O.co2     3 ASP3        0.0000 
     51 OD1       143.6500  137.2600   97.2400 O.co2     3 ASP3        0.0000 
     52 OD1       145.4300  134.8100   99.3200 O.co2     3 ASP3        0.0000 
     53 NZ        146.6700  135.1800   93.2700 N.4       4 LYS4        0.0000 
     54 NZ        146.5800  133.8300   93.9100 N.4       4 LYS4        0.0000 
     55 NZ        147.2300  135.7400   94.5300 N.4       4 LYS4        0.0000 
     56 NZ        145.7600  134.7100   95.6600 N.4       4 LYS4        0.0000 
     57 NZ        147.7200  134.9600   96.4500 N.4       4 LYS4        0.0000 
     58 NZ        146.3300  135.2700   96.9300 N.4       4 LYS4        0.0000 
     59 CZ        141.6200  133.5500   89.1600 C.ar      5 PHE5        0.0000 
     60 CZ        142.1900  134.1100   90.4300 C.ar      5 PHE5        0.0000 
     61 CZ        148.6400  138.8200   87.2000 C.ar      5 PHE5        0.0000 
     62 CZ        147.2600  139.1400   87.6800 C.ar      5 PHE5        0.0000 
     63 CZ        144.4000  138.4200   89.2800 C.ar      5 PHE5        0.0000 
     64 CZ        142.7600  134.6800   91.7000 C.ar      5 PHE5        0.0000 
     65 CZ        142.6700  133.3300   92.3400 C.ar      5 PHE5        0.0000 
     66 CZ        149.2100  139.3900   88.4700 C.ar      5 PHE5        0.0000 
     67 CZ        143.5800  139.3000   91.0300 C.ar      5 PHE5        0.0000 
     68 CZ        144.8800  137.6300   91.2000 C.ar      5 PHE5        0.0000 
     69 CZ        143.5000  137.9500   91.6800 C.ar      5 PHE5        0.0000 
     70 CZ        143.2400  133.8900   93.6100 C.ar      5 PHE5        0.0000 
     71 CZ        142.8500  141.5400   92.1400 C.ar      5 PHE5        0.0000 
     72 CZ        142.7700  140.1900   92.7800 C.ar      5 PHE5        0.0000 
     73 CZ        145.4500  138.2000   92.4600 C.ar      5 PHE5        0.0000 
     74 CZ        144.0700  138.5200   92.9400 C.ar      5 PHE5        0.0000 
     75 CZ        142.4200  134.7800   95.3500 C.ar      5 PHE5        0.0000 
     76 CZ        141.0400  135.0900   95.8300 C.ar      5 PHE5        0.0000 
     77 CZ        144.8900  143.1400   92.2800 C.ar      5 PHE5        0.0000 
     78 CZ        144.8100  141.7900   92.9200 C.ar      5 PHE5        0.0000 
     79 CZ        141.6900  137.0100   96.4600 C.ar      5 PHE5        0.0000 
     80 CZ        142.9900  135.3400   96.6200 C.ar      5 PHE5        0.0000 
     81 CZ        142.9100  133.9900   97.2600 C.ar      5 PHE5        0.0000 
     82 CZ        143.5600  135.9100   97.8900 C.ar      5 PHE5        0.0000 
     83 CZ        144.8600  134.2400   98.0500 C.ar      5 PHE5        0.0000 
     84 CZ        143.3900  133.2000   99.1700 C.ar      5 PHE5        0.0000 
     85 CZ        144.1300  136.4800   99.1500 C.ar      5 PHE5        0.0000 
     86 CZ        144.0500  135.1200   99.8000 C.ar      5 PHE5        0.0000 
     87 CA        141.8800  137.6000   87.2300 C.3       6 GLY6        0.0000 
     88 CA        143.1800  135.9300   87.3900 C.3       6 GLY6        0.0000 
     89 CA        141.7900  136.2500   87.8700 C.3       6 GLY6        0.0000 
     90 CA        143.0900  134.5800   88.0400 C.3       6 GLY6        0.0000 
     91 CA        141.7000  134.9000   88.5200 C.3       6 GLY6        0.0000 
     92 CA        145.2200  137.5400   87.5400 C.3       6 GLY6        0.0000 
     93 CA        142.4500  138.1700   88.5000 C.3       6 GLY6        0.0000 
     94 CA        143.6600  135.1500   89.3000 C.3       6 GLY6        0.0000 
     95 CA        145.6100  135.4000   90.0900 C.3       6 GLY6        0.0000 
     96 CA        144.2300  135.7100   90.5700 C.3       6 GLY6        0.0000 
     97 CA        142.1100  138.2700   92.1600 C.3       6 GLY6        0.0000 
     98 CA        147.5700  135.6500   90.8800 C.3       6 GLY6        0.0000 
     99 CA        146.1800  135.9600   91.3600 C.3       6 GLY6        0.0000 
    100 CA        146.1000  134.6100   92.0000 C.3       6 GLY6        0.0000 
    101 CA        144.7100  134.9300   92.4800 C.3       6 GLY6        0.0000 
    102 CA        144.6200  133.5800   93.1200 C.3       6 GLY6        0.0000 
    103 CA        141.3800  140.5000   93.2600 C.3       6 GLY6        0.0000 
    104 CA        141.3000  139.1500   93.9000 C.3       6 GLY6        0.0000 
    105 CA        139.9100  139.4700   94.3800 C.3       6 GLY6        0.0000 
    106 CA        145.1900  134.1400   94.3900 C.3       6 GLY6        0.0000 
    107 CA        145.1100  132.7900   95.0400 C.3       6 GLY6        0.0000 
    108 CA        142.3400  133.4200   96.0000 C.3       6 GLY6        0.0000 
    109 CA        143.4200  142.1000   93.4000 C.3       6 GLY6        0.0000 
    110 CA        142.0400  142.4200   93.8800 C.3       6 GLY6        0.0000 
    111 CA        145.6800  133.3600   96.3000 C.3       6 GLY6        0.0000 
    112 CA        144.2100  132.3200   97.4300 C.3       6 GLY6        0.0000 
    113 CA        147.8000  136.3100   95.8000 C.3       6 GLY6        0.0000 
    114 DU        143.7400  136.5000   88.6600 H         7 CUB7        0.0000 
    115 DU        145.7000  136.7500   89.4500 H         7 CUB7        0.0000 
    116 DU        144.3100  137.0700   89.9300 H         7 CUB7        0.0000 
    117 DU        142.9300  137.3800   90.4100 H         7 CUB7        0.0000 
    118 DU        142.8400  136.0300   91.0500 H         7 CUB7        0.0000 
    119 DU        144.8000  136.2800   91.8400 H         7 CUB7        0.0000 
    120 DU        143.3300  135.2400   92.9600 H         7 CUB7        0.0000 
    121 DU        142.6800  138.8300   93.4200 H         7 CUB7        0.0000 
    122 DU        146.7500  136.5300   92.6200 H         7 CUB7        0.0000 
    123 DU        145.3700  136.8500   93.1100 H         7 CUB7        0.0000 
    124 DU        142.6000  137.4800   94.0700 H         7 CUB7        0.0000 
    125 DU        145.2800  135.4900   93.7500 H         7 CUB7        0.0000 
    126 DU        142.5100  136.1300   94.7100 H         7 CUB7        0.0000 
    127 DU        143.8100  134.4600   94.8700 H         7 CUB7        0.0000 
    128 DU        143.3400  140.7500   94.0500 H         7 CUB7        0.0000 
    129 DU        143.2500  139.4000   94.6900 H         7 CUB7        0.0000 
    130 DU        141.8700  139.7200   95.1700 H         7 CUB7        0.0000 
    131 DU        143.1700  138.0500   95.3300 H         7 CUB7        0.0000 
    132 DU        145.8500  136.0600   95.0200 H         7 CUB7        0.0000 
    133 DU        143.0800  136.6900   95.9800 H         7 CUB7        0.0000 
    134 DU        144.3800  135.0300   96.1400 H         7 CUB7        0.0000 
    135 DU        146.4200  136.6300   96.2800 H         7 CUB7        0.0000 
    136 DU        144.9500  135.5900   97.4100 H         7 CUB7        0.0000 
    137 DU        146.2500  133.9200   97.5700 H         7 CUB7        0.0000 
    138 DU        144.7700  132.8900   98.6900 H         7 CUB7        0.0000 
    139 DU        145.5200  136.1600   98.6700 H         7 CUB7        0.0000 
@<TRIPOS>BOND
@<TRIPOS>SUBSTRUCTURE
     1 SER1        1 GROUP   
     2 ALA2        9 GROUP   
     3 ASP3       47 GROUP   
     4 LYS4       53 GROUP   
     5 PHE5       59 GROUP   
     6 GLY6       87 GROUP   
     7 CUB7      114 GROUP   
@<TRIPOS>SET

