#    Name: 6hcy_2_FAD
#    Modification time : Fri May 22 19:24:39 2020

@<TRIPOS>MOLECULE
6hcy_2_FAD
   53    58     1     0     1
SMALL
NO_CHARGES


@<TRIPOS>ATOM
      1 PA        105.6810  139.1470  107.2380 P.3       1 FAD503      0.0000 
      2 O1A       104.8090  138.4550  106.2740 O.co2     1 FAD503      0.0000 
      3 O2A       107.1120  139.2440  106.7590 O.co2     1 FAD503      0.0000 
      4 O5B       105.1740  140.5580  107.5940 O.3       1 FAD503      0.0000 
      5 C5B       103.7640  140.8500  107.6580 C.3       1 FAD503      0.0000 
      6 C4B       103.4310  141.9870  106.7290 C.3       1 FAD503      0.0000 
      7 O4B       104.0870  141.7870  105.4580 O.3       1 FAD503      0.0000 
      8 C3B       101.9540  142.1150  106.3870 C.3       1 FAD503      0.0000 
      9 O3B       101.2600  142.8710  107.3690 O.3       1 FAD503      0.0000 
     10 C2B       102.0040  142.8260  105.0380 C.3       1 FAD503      0.0000 
     11 O2B       102.2340  144.2200  105.1860 O.3       1 FAD503      0.0000 
     12 C1B       103.2180  142.1540  104.3990 C.3       1 FAD503      0.0000 
     13 N9A       102.8760  140.9550  103.6430 N.pl3     1 FAD503      0.0000 
     14 C8A       103.1110  139.6550  103.9980 C.2       1 FAD503      0.0000 
     15 N7A       102.6790  138.7760  103.1270 N.2       1 FAD503      0.0000 
     16 C5A       102.1120  139.5550  102.1320 C.ar      1 FAD503      0.0000 
     17 C6A       101.4720  139.2320  100.9220 C.ar      1 FAD503      0.0000 
     18 N6A       101.2940  137.9820  100.4850 N.pl3     1 FAD503      0.0000 
     19 N1A       101.0220  140.2500  100.1590 N.ar      1 FAD503      0.0000 
     20 C2A       101.1990  141.5020  100.5850 C.ar      1 FAD503      0.0000 
     21 N3A       101.7850  141.9270  101.7040 N.ar      1 FAD503      0.0000 
     22 C4A       102.2220  140.9000  102.4390 C.ar      1 FAD503      0.0000 
     23 N1        113.1570  135.6470  108.1830 N.2       1 FAD503      0.0000 
     24 C2        113.4580  135.2600  106.9150 C.2       1 FAD503      0.0000 
     25 O2        113.0010  135.8520  105.9360 O.2       1 FAD503      0.0000 
     26 N3        114.2910  134.1850  106.7110 N.am      1 FAD503      0.0000 
     27 C4        114.8810  133.4280  107.6820 C.2       1 FAD503      0.0000 
     28 O4        115.6100  132.4900  107.3780 O.2       1 FAD503      0.0000 
     29 C4X       114.5590  133.8440  109.0220 C.2       1 FAD503      0.0000 
     30 N5        115.0700  133.1820  109.9960 N.2       1 FAD503      0.0000 
     31 C5X       114.7710  133.5750  111.2760 C.ar      1 FAD503      0.0000 
     32 C6        115.3190  132.8650  112.3380 C.ar      1 FAD503      0.0000 
     33 C7        115.0430  133.2200  113.6510 C.ar      1 FAD503      0.0000 
     34 C7M       115.6590  132.4340  114.7770 C.3       1 FAD503      0.0000 
     35 C8        114.1950  134.3070  113.9080 C.ar      1 FAD503      0.0000 
     36 C8M       113.8700  134.7240  115.3100 C.3       1 FAD503      0.0000 
     37 C9        113.6500  135.0180  112.8500 C.ar      1 FAD503      0.0000 
     38 C9A       113.9250  134.6570  111.5410 C.ar      1 FAD503      0.0000 
     39 N10       113.3740  135.3430  110.4430 N.pl3     1 FAD503      0.0000 
     40 C10       113.6810  134.9700  109.1710 C.2       1 FAD503      0.0000 
     41 C1'       112.5090  136.5100  110.6400 C.3       1 FAD503      0.0000 
     42 C2'       111.0380  136.1670  110.7940 C.3       1 FAD503      0.0000 
     43 O2'       110.8660  134.7540  110.7460 O.3       1 FAD503      0.0000 
     44 C3'       110.2490  136.8300  109.6690 C.3       1 FAD503      0.0000 
     45 O3'       109.7150  138.0500  110.1600 O.3       1 FAD503      0.0000 
     46 C4'       109.1040  135.9750  109.1440 C.3       1 FAD503      0.0000 
     47 O4'       109.5380  135.3430  107.9410 O.3       1 FAD503      0.0000 
     48 C5'       107.8410  136.7590  108.8700 C.3       1 FAD503      0.0000 
     49 O5'       107.5120  137.5640  110.0200 O.3       1 FAD503      0.0000 
     50 P         106.4840  138.7460  109.9090 P.3       1 FAD503      0.0000 
     51 O1P       105.5080  138.7230  111.0870 O.co2     1 FAD503      0.0000 
     52 O2P       107.1790  139.9960  109.7100 O.co2     1 FAD503      0.0000 
     53 O3P       105.6710  138.3710  108.6200 O.3       1 FAD503      0.0000 
@<TRIPOS>BOND
     1    1    2 ar   
     2    1    3 ar   
     3    1    4 1    
     4    1   53 1    
     5    4    5 1    
     6    5    6 1    
     7    6    7 1    
     8    6    8 1    
     9    7   12 1    
    10    8    9 1    
    11    8   10 1    
    12   10   11 1    
    13   10   12 1    
    14   12   13 1    
    15   13   14 1    
    16   13   22 1    
    17   14   15 2    
    18   15   16 1    
    19   16   17 ar   
    20   16   22 ar   
    21   17   18 1    
    22   17   19 ar   
    23   19   20 ar   
    24   20   21 ar   
    25   21   22 ar   
    26   23   24 1    
    27   23   40 2    
    28   24   25 2    
    29   24   26 am   
    30   26   27 am   
    31   27   28 2    
    32   27   29 1    
    33   29   30 2    
    34   29   40 1    
    35   30   31 1    
    36   31   32 ar   
    37   31   38 ar   
    38   32   33 ar   
    39   33   34 1    
    40   33   35 ar   
    41   35   36 1    
    42   35   37 ar   
    43   37   38 ar   
    44   38   39 1    
    45   39   40 1    
    46   39   41 1    
    47   41   42 1    
    48   42   43 1    
    49   42   44 1    
    50   44   45 1    
    51   44   46 1    
    52   46   47 1    
    53   46   48 1    
    54   48   49 1    
    55   49   50 1    
    56   50   51 ar   
    57   50   52 ar   
    58   50   53 1    
@<TRIPOS>SUBSTRUCTURE
     1 FAD503      1 GROUP   
@<TRIPOS>SET
ATOM$ORANGE STATIC     ATOMS   COLORGROUP SYSTEM 
54 5 5 6 6 8 8 10 10 12 12 14 14 16 16 17 17 20 \
20 22 22 24 24 27 27 29 29 31 31 32 32 33 33 34 34 35 \
35 36 36 37 37 38 38 40 40 41 41 42 42 44 44 46 46 48 \
48 

