#    Name: 6hcy_5_NAP
#    Modification time : Fri May 22 19:25:21 2020

@<TRIPOS>MOLECULE
6hcy_5_NAP
   48    52     1     0     1
SMALL
NO_CHARGES


@<TRIPOS>ATOM
      1 PA         94.4930  138.2000   88.9720 P.3       1 NAP501      0.0000 
      2 O1A        95.6300  138.1210   87.9910 O.co2     1 NAP501      0.0000 
      3 O2A        94.3640  139.5940   89.5230 O.co2     1 NAP501      0.0000 
      4 O5B        93.0900  137.7900   88.2310 O.3       1 NAP501      0.0000 
      5 C5B        93.1440  136.8870   87.1720 C.3       1 NAP501      0.0000 
      6 C4B        93.5210  137.5810   85.8350 C.3       1 NAP501      0.0000 
      7 O4B        92.8400  137.0430   84.8740 O.3       1 NAP501      0.0000 
      8 C3B        93.1060  139.0590   85.8070 C.3       1 NAP501      0.0000 
      9 O3B        94.2020  139.8150   85.9930 O.3       1 NAP501      0.0000 
     10 C2B        92.5760  139.3240   84.3870 C.3       1 NAP501      0.0000 
     11 O2B        93.4100  140.3670   83.7290 O.3       1 NAP501      0.0000 
     12 C1B        92.7140  138.1940   83.7570 C.3       1 NAP501      0.0000 
     13 N9A        91.5940  137.8910   82.9100 N.pl3     1 NAP501      0.0000 
     14 C8A        91.4770  137.7320   81.5950 C.2       1 NAP501      0.0000 
     15 N7A        90.2100  137.4410   81.3160 N.2       1 NAP501      0.0000 
     16 C5A        89.5400  137.4140   82.4670 C.ar      1 NAP501      0.0000 
     17 C6A        88.2210  137.1650   82.7430 C.ar      1 NAP501      0.0000 
     18 N6A        87.1600  136.8560   81.8050 N.pl3     1 NAP501      0.0000 
     19 N1A        87.7800  137.1960   83.9860 N.ar      1 NAP501      0.0000 
     20 C2A        88.6300  137.4690   84.9970 C.ar      1 NAP501      0.0000 
     21 N3A        89.9270  137.7100   84.7230 N.ar      1 NAP501      0.0000 
     22 C4A        90.3850  137.6860   83.4580 C.ar      1 NAP501      0.0000 
     23 O3         94.8100  137.1820   90.2120 O.3       1 NAP501      0.0000 
     24 PN         96.2490  136.4080   90.3400 P.3       1 NAP501      0.0000 
     25 O1N        96.3830  135.8050   91.7130 O.co2     1 NAP501      0.0000 
     26 O2N        97.3860  137.3660   90.1120 O.co2     1 NAP501      0.0000 
     27 O5D        96.3020  135.2310   89.1960 O.3       1 NAP501      0.0000 
     28 C5D        97.3670  135.2390   88.2970 C.3       1 NAP501      0.0000 
     29 C4D        97.8480  133.7950   87.9910 C.3       1 NAP501      0.0000 
     30 O4D        99.0040  133.5970   88.5570 O.3       1 NAP501      0.0000 
     31 C3D        96.9060  132.7400   88.5850 C.3       1 NAP501      0.0000 
     32 O3D        96.8200  131.6990   87.7290 O.3       1 NAP501      0.0000 
     33 C2D        97.6070  132.2700   89.8610 C.3       1 NAP501      0.0000 
     34 O2D        97.2270  130.8590   90.1380 O.3       1 NAP501      0.0000 
     35 C1D        98.8640  132.3400   89.5540 C.3       1 NAP501      0.0000 
     36 N1N        99.6670  132.5830   90.7190 N.pl3     1 NAP501      0.0000 
     37 C2N        99.4470  133.6740   91.4810 C.ar      1 NAP501      0.0000 
     38 C3N       100.2290  133.8960   92.5960 C.ar      1 NAP501      0.0000 
     39 C7N        99.9770  135.1210   93.4650 C.2       1 NAP501      0.0000 
     40 O7N        99.2030  135.9420   93.1190 O.2       1 NAP501      0.0000 
     41 N7N       100.6870  135.2720   94.7210 N.am      1 NAP501      0.0000 
     42 C4N       101.2140  133.0300   92.9170 C.ar      1 NAP501      0.0000 
     43 C5N       101.4400  131.9410   92.1490 C.ar      1 NAP501      0.0000 
     44 C6N       100.6530  131.7220   91.0350 C.ar      1 NAP501      0.0000 
     45 P2B        92.7420  141.3180   82.5630 P.3       1 NAP501      0.0000 
     46 O1X        93.1250  140.7950   81.2040 O.co2     1 NAP501      0.0000 
     47 O2X        91.2390  141.3180   82.6890 O.co2     1 NAP501      0.0000 
     48 O3X        93.2600  142.7240   82.7110 O.co2     1 NAP501      0.0000 
@<TRIPOS>BOND
     1    1    2 ar   
     2    1    3 ar   
     3    1    4 1    
     4    1   23 1    
     5    4    5 1    
     6    5    6 1    
     7    6    7 1    
     8    6    8 1    
     9    7   12 1    
    10    8    9 1    
    11    8   10 1    
    12   10   11 1    
    13   10   12 1    
    14   11   45 1    
    15   12   13 1    
    16   13   14 1    
    17   13   22 1    
    18   14   15 2    
    19   15   16 1    
    20   16   17 ar   
    21   16   22 ar   
    22   17   18 1    
    23   17   19 ar   
    24   19   20 ar   
    25   20   21 ar   
    26   21   22 ar   
    27   23   24 1    
    28   24   25 ar   
    29   24   26 ar   
    30   24   27 1    
    31   27   28 1    
    32   28   29 1    
    33   29   30 1    
    34   29   31 1    
    35   30   35 1    
    36   31   32 1    
    37   31   33 1    
    38   33   34 1    
    39   33   35 1    
    40   35   36 1    
    41   36   37 ar   
    42   36   44 ar   
    43   37   38 ar   
    44   38   39 1    
    45   38   42 ar   
    46   39   40 2    
    47   39   41 am   
    48   42   43 ar   
    49   43   44 ar   
    50   45   46 ar   
    51   45   47 ar   
    52   45   48 ar   
@<TRIPOS>SUBSTRUCTURE
     1 NAP501      1 GROUP   
@<TRIPOS>SET
ATOM$ORANGE STATIC     ATOMS   COLORGROUP SYSTEM 
42 5 5 6 6 8 8 10 10 12 12 14 14 16 16 17 17 20 \
20 22 22 28 28 29 29 31 31 33 33 35 35 37 37 38 38 39 \
39 42 42 43 43 44 44 

