#    Name: 6hcy_3_NAP
#    Modification time : Fri May 22 19:24:50 2020

@<TRIPOS>MOLECULE
6hcy_3_NAP
   48    52     1     0     1
SMALL
NO_CHARGES


@<TRIPOS>ATOM
      1 PA        121.4520   90.0510   89.0370 P.3       1 NAP501      0.0000 
      2 O1A       120.9550   91.0760   88.0540 O.co2     1 NAP501      0.0000 
      3 O2A       120.3060   89.2480   89.5900 O.co2     1 NAP501      0.0000 
      4 O5B       122.5040   89.0360   88.2970 O.3       1 NAP501      0.0000 
      5 C5B       123.2600   89.5290   87.2360 C.3       1 NAP501      0.0000 
      6 C4B       122.4700   89.5100   85.9000 C.3       1 NAP501      0.0000 
      7 O4B       123.2750   89.1840   84.9390 O.3       1 NAP501      0.0000 
      8 C3B       121.3930   88.4160   85.8740 C.3       1 NAP501      0.0000 
      9 O3B       120.1930   88.9920   86.0600 O.3       1 NAP501      0.0000 
     10 C2B       121.4260   87.8220   84.4550 C.3       1 NAP501      0.0000 
     11 O2B       120.1060   88.0260   83.7980 O.3       1 NAP501      0.0000 
     12 C1B       122.3380   88.5020   83.8240 C.3       1 NAP501      0.0000 
     13 N9A       123.1560   87.6790   82.9780 N.pl3     1 NAP501      0.0000 
     14 C8A       123.3520   87.6540   81.6620 C.2       1 NAP501      0.0000 
     15 N7A       124.2330   86.6980   81.3850 N.2       1 NAP501      0.0000 
     16 C5A       124.5900   86.1320   82.5360 C.ar      1 NAP501      0.0000 
     17 C6A       125.4610   85.1110   82.8140 C.ar      1 NAP501      0.0000 
     18 N6A       126.2560   84.3420   81.8760 N.pl3     1 NAP501      0.0000 
     19 N1A       125.6540   84.7150   84.0570 N.ar      1 NAP501      0.0000 
     20 C2A       124.9960   85.3190   85.0670 C.ar      1 NAP501      0.0000 
     21 N3A       124.1420   86.3250   84.7920 N.ar      1 NAP501      0.0000 
     22 C4A       123.9350   86.7320   83.5270 C.ar      1 NAP501      0.0000 
     23 O3        122.1780   90.8340   90.2750 O.3       1 NAP501      0.0000 
     24 PN        122.1360   92.4680   90.4000 P.3       1 NAP501      0.0000 
     25 O1N       122.5930   92.8860   91.7720 O.co2     1 NAP501      0.0000 
     26 O2N       120.7390   92.9780   90.1720 O.co2     1 NAP501      0.0000 
     27 O5D       123.1300   93.0960   89.2550 O.3       1 NAP501      0.0000 
     28 C5D       122.5940   94.0150   88.3540 C.3       1 NAP501      0.0000 
     29 C4D       123.6080   95.1490   88.0460 C.3       1 NAP501      0.0000 
     30 O4D       123.2060   96.2520   88.6100 O.3       1 NAP501      0.0000 
     31 C3D       124.9920   94.8570   88.6400 C.3       1 NAP501      0.0000 
     32 O3D       125.9380   95.2980   87.7830 O.3       1 NAP501      0.0000 
     33 C2D       125.0530   95.7010   89.9140 C.3       1 NAP501      0.0000 
     34 O2D       126.4660   96.0720   90.1900 O.3       1 NAP501      0.0000 
     35 C1D       124.3670   96.7560   89.6060 C.3       1 NAP501      0.0000 
     36 N1N       123.7580   97.3350   90.7700 N.pl3     1 NAP501      0.0000 
     37 C2N       122.9210   96.6030   91.5340 C.ar      1 NAP501      0.0000 
     38 C3N       122.3410   97.1730   92.6480 C.ar      1 NAP501      0.0000 
     39 C7N       121.4030   96.3480   93.5190 C.2       1 NAP501      0.0000 
     40 O7N       121.0740   95.2680   93.1750 O.2       1 NAP501      0.0000 
     41 N7N       120.9200   96.8910   94.7750 N.am      1 NAP501      0.0000 
     42 C4N       122.6030   98.4590   92.9670 C.ar      1 NAP501      0.0000 
     43 C5N       123.4360   99.1950   92.1980 C.ar      1 NAP501      0.0000 
     44 C6N       124.0160   98.6180   91.0840 C.ar      1 NAP501      0.0000 
     45 P2B       119.6110   86.9720   82.6340 P.3       1 NAP501      0.0000 
     46 O1X       119.8740   87.5620   81.2730 O.co2     1 NAP501      0.0000 
     47 O2X       120.3580   85.6680   82.7610 O.co2     1 NAP501      0.0000 
     48 O3X       118.1340   86.7240   82.7830 O.co2     1 NAP501      0.0000 
@<TRIPOS>BOND
     1    1    2 ar   
     2    1    3 ar   
     3    1    4 1    
     4    1   23 1    
     5    4    5 1    
     6    5    6 1    
     7    6    7 1    
     8    6    8 1    
     9    7   12 1    
    10    8    9 1    
    11    8   10 1    
    12   10   11 1    
    13   10   12 1    
    14   11   45 1    
    15   12   13 1    
    16   13   14 1    
    17   13   22 1    
    18   14   15 2    
    19   15   16 1    
    20   16   17 ar   
    21   16   22 ar   
    22   17   18 1    
    23   17   19 ar   
    24   19   20 ar   
    25   20   21 ar   
    26   21   22 ar   
    27   23   24 1    
    28   24   25 ar   
    29   24   26 ar   
    30   24   27 1    
    31   27   28 1    
    32   28   29 1    
    33   29   30 1    
    34   29   31 1    
    35   30   35 1    
    36   31   32 1    
    37   31   33 1    
    38   33   34 1    
    39   33   35 1    
    40   35   36 1    
    41   36   37 ar   
    42   36   44 ar   
    43   37   38 ar   
    44   38   39 1    
    45   38   42 ar   
    46   39   40 2    
    47   39   41 am   
    48   42   43 ar   
    49   43   44 ar   
    50   45   46 ar   
    51   45   47 ar   
    52   45   48 ar   
@<TRIPOS>SUBSTRUCTURE
     1 NAP501      1 GROUP   
@<TRIPOS>SET
ATOM$ORANGE STATIC     ATOMS   COLORGROUP SYSTEM 
42 5 5 6 6 8 8 10 10 12 12 14 14 16 16 17 17 20 \
20 22 22 28 28 29 29 31 31 33 33 35 35 37 37 38 38 39 \
39 42 42 43 43 44 44 

