#    Name: 6hcy_4_FAD
#    Modification time : Fri May 22 19:25:08 2020

@<TRIPOS>MOLECULE
6hcy_4_FAD
   53    58     1     0     1
SMALL
NO_CHARGES


@<TRIPOS>ATOM
      1 PA        145.0640  127.2290  107.1170 P.3       1 FAD503      0.0000 
      2 O1A       144.9060  128.3290  106.1510 O.co2     1 FAD503      0.0000 
      3 O2A       144.4280  125.9420  106.6390 O.co2     1 FAD503      0.0000 
      4 O5B       146.5380  126.9570  107.4770 O.3       1 FAD503      0.0000 
      5 C5B       147.4990  128.0300  107.5400 C.3       1 FAD503      0.0000 
      6 C4B       148.6510  127.7440  106.6140 C.3       1 FAD503      0.0000 
      7 O4B       148.1500  127.2750  105.3430 O.3       1 FAD503      0.0000 
      8 C3B       149.5060  128.9550  106.2720 C.3       1 FAD503      0.0000 
      9 O3B       150.5070  129.1760  107.2560 O.3       1 FAD503      0.0000 
     10 C2B       150.0980  128.5520  104.9250 C.3       1 FAD503      0.0000 
     11 O2B       151.1860  127.6520  105.0760 O.3       1 FAD503      0.0000 
     12 C1B       148.9070  127.8400  104.2850 C.3       1 FAD503      0.0000 
     13 N9A       148.0450  128.7370  103.5260 N.pl3     1 FAD503      0.0000 
     14 C8A       146.8020  129.1880  103.8770 C.2       1 FAD503      0.0000 
     15 N7A       146.2610  130.0020  103.0040 N.2       1 FAD503      0.0000 
     16 C5A       147.2220  130.0990  102.0100 C.ar      1 FAD503      0.0000 
     17 C6A       147.2670  130.8120  100.7990 C.ar      1 FAD503      0.0000 
     18 N6A       146.2770  131.5940  100.3590 N.pl3     1 FAD503      0.0000 
     19 N1A       148.3750  130.6880  100.0380 N.ar      1 FAD503      0.0000 
     20 C2A       149.3670  129.9060  100.4680 C.ar      1 FAD503      0.0000 
     21 N3A       149.4380  129.1870  101.5880 N.ar      1 FAD503      0.0000 
     22 C4A       148.3280  129.3280  102.3210 C.ar      1 FAD503      0.0000 
     23 N1        138.2770  122.5300  108.0570 N.2       1 FAD503      0.0000 
     24 C2        137.7930  122.4620  106.7880 C.2       1 FAD503      0.0000 
     25 O2        138.5360  122.5580  105.8100 O.2       1 FAD503      0.0000 
     26 N3        136.4450  122.2820  106.5820 N.am      1 FAD503      0.0000 
     27 C4        135.4920  122.1560  107.5510 C.2       1 FAD503      0.0000 
     28 O4        134.3150  121.9970  107.2450 O.2       1 FAD503      0.0000 
     29 C4X       136.0110  122.2260  108.8920 C.2       1 FAD503      0.0000 
     30 N5        135.1800  122.1200  109.8650 N.2       1 FAD503      0.0000 
     31 C5X       135.6670  122.1830  111.1450 C.ar      1 FAD503      0.0000 
     32 C6        134.7760  122.0680  112.2060 C.ar      1 FAD503      0.0000 
     33 C7        135.2190  122.1300  113.5200 C.ar      1 FAD503      0.0000 
     34 C7M       134.2280  121.9950  114.6430 C.3       1 FAD503      0.0000 
     35 C8        136.5840  122.3170  113.7790 C.ar      1 FAD503      0.0000 
     36 C8M       137.1060  122.3900  115.1820 C.3       1 FAD503      0.0000 
     37 C9        137.4750  122.4280  112.7230 C.ar      1 FAD503      0.0000 
     38 C9A       137.0280  122.3690  111.4120 C.ar      1 FAD503      0.0000 
     39 N10       137.9000  122.4990  110.3170 N.pl3     1 FAD503      0.0000 
     40 C10       137.4260  122.4190  109.0430 C.2       1 FAD503      0.0000 
     41 C1'       139.3430  122.6590  110.5160 C.3       1 FAD503      0.0000 
     42 C2'       139.7860  124.1040  110.6680 C.3       1 FAD503      0.0000 
     43 O2'       138.6520  124.9630  110.6160 O.3       1 FAD503      0.0000 
     44 C3'       140.7580  124.4510  109.5450 C.3       1 FAD503      0.0000 
     45 O3'       142.0810  124.2990  110.0380 O.3       1 FAD503      0.0000 
     46 C4'       140.5970  125.8690  109.0170 C.3       1 FAD503      0.0000 
     47 O4'       139.8350  125.8100  107.8120 O.3       1 FAD503      0.0000 
     48 C5'       141.9100  126.5660  108.7440 C.3       1 FAD503      0.0000 
     49 O5'       142.7690  126.4470  109.8950 O.3       1 FAD503      0.0000 
     50 P         144.3080  126.7400  109.7870 P.3       1 FAD503      0.0000 
     51 O1P       144.7770  127.5970  110.9650 O.co2     1 FAD503      0.0000 
     52 O2P       145.0390  125.5110  109.5920 O.co2     1 FAD503      0.0000 
     53 O3P       144.3950  127.6290  108.4970 O.3       1 FAD503      0.0000 
@<TRIPOS>BOND
     1    1    2 ar   
     2    1    3 ar   
     3    1    4 1    
     4    1   53 1    
     5    4    5 1    
     6    5    6 1    
     7    6    7 1    
     8    6    8 1    
     9    7   12 1    
    10    8    9 1    
    11    8   10 1    
    12   10   11 1    
    13   10   12 1    
    14   12   13 1    
    15   13   14 1    
    16   13   22 1    
    17   14   15 2    
    18   15   16 1    
    19   16   17 ar   
    20   16   22 ar   
    21   17   18 1    
    22   17   19 ar   
    23   19   20 ar   
    24   20   21 ar   
    25   21   22 ar   
    26   23   24 1    
    27   23   40 2    
    28   24   25 2    
    29   24   26 am   
    30   26   27 am   
    31   27   28 2    
    32   27   29 1    
    33   29   30 2    
    34   29   40 1    
    35   30   31 1    
    36   31   32 ar   
    37   31   38 ar   
    38   32   33 ar   
    39   33   34 1    
    40   33   35 ar   
    41   35   36 1    
    42   35   37 ar   
    43   37   38 ar   
    44   38   39 1    
    45   39   40 1    
    46   39   41 1    
    47   41   42 1    
    48   42   43 1    
    49   42   44 1    
    50   44   45 1    
    51   44   46 1    
    52   46   47 1    
    53   46   48 1    
    54   48   49 1    
    55   49   50 1    
    56   50   51 ar   
    57   50   52 ar   
    58   50   53 1    
@<TRIPOS>SUBSTRUCTURE
     1 FAD503      1 GROUP   
@<TRIPOS>SET
ATOM$ORANGE STATIC     ATOMS   COLORGROUP SYSTEM 
54 5 5 6 6 8 8 10 10 12 12 14 14 16 16 17 17 20 \
20 22 22 24 24 27 27 29 29 31 31 32 32 33 33 34 34 35 \
35 36 36 37 37 38 38 40 40 41 41 42 42 44 44 46 46 48 \
48 

