#    Name: 6f38_9_ADP
#    Modification time : Fri May 22 19:35:41 2020

@<TRIPOS>MOLECULE
6f38_9_ADP
   27    29     1     0     1
SMALL
NO_CHARGES


@<TRIPOS>ATOM
      1 PB        570.0420  485.8230  340.6770 P.3       1 ADP800      0.0000 
      2 O1B       570.6950  486.1350  339.3580 O.co2     1 ADP800      0.0000 
      3 O2B       570.0310  486.9450  341.6720 O.co2     1 ADP800      0.0000 
      4 O3B       570.4080  484.4840  341.2320 O.co2     1 ADP800      0.0000 
      5 PA        567.6350  486.8960  339.8060 P.3       1 ADP800      0.0000 
      6 O1A       568.5480  488.0730  339.5850 O.co2     1 ADP800      0.0000 
      7 O2A       566.3360  487.0280  340.5560 O.co2     1 ADP800      0.0000 
      8 O3A       568.4970  485.6500  340.3280 O.3       1 ADP800      0.0000 
      9 O5'       567.3400  486.2910  338.3680 O.3       1 ADP800      0.0000 
     10 C5'       568.1340  486.8430  337.3480 C.3       1 ADP800      0.0000 
     11 C4'       568.6990  485.6790  336.6130 C.3       1 ADP800      0.0000 
     12 O4'       567.8270  485.3480  335.5500 O.3       1 ADP800      0.0000 
     13 C3'       570.0330  486.0760  336.0510 C.3       1 ADP800      0.0000 
     14 O3'       571.0720  485.5470  336.8730 O.3       1 ADP800      0.0000 
     15 C2'       570.0200  485.4560  334.6790 C.3       1 ADP800      0.0000 
     16 O2'       570.8600  484.3020  334.6450 O.3       1 ADP800      0.0000 
     17 C1'       568.5890  485.0350  334.4010 C.3       1 ADP800      0.0000 
     18 N9        568.1150  485.8480  333.2710 N.pl3     1 ADP800      0.0000 
     19 C8        568.4090  487.1410  333.0860 C.2       1 ADP800      0.0000 
     20 N7        567.8540  487.6050  331.9490 N.2       1 ADP800      0.0000 
     21 C5        567.1820  486.5970  331.3880 C.ar      1 ADP800      0.0000 
     22 C6        566.3700  486.4270  330.1730 C.ar      1 ADP800      0.0000 
     23 N6        566.1520  487.4440  329.3170 N.pl3     1 ADP800      0.0000 
     24 N1        565.8520  485.2180  329.9460 N.ar      1 ADP800      0.0000 
     25 C2        566.0740  484.1980  330.7840 C.ar      1 ADP800      0.0000 
     26 N3        566.7860  484.2750  331.9140 N.ar      1 ADP800      0.0000 
     27 C4        567.3650  485.4390  332.2610 C.ar      1 ADP800      0.0000 
@<TRIPOS>BOND
     1    1    2 ar   
     2    1    3 ar   
     3    1    4 ar   
     4    1    8 1    
     5    5    6 ar   
     6    5    7 ar   
     7    5    8 1    
     8    5    9 1    
     9    9   10 1    
    10   10   11 1    
    11   11   12 1    
    12   11   13 1    
    13   12   17 1    
    14   13   14 1    
    15   13   15 1    
    16   15   16 1    
    17   15   17 1    
    18   17   18 1    
    19   18   19 1    
    20   18   27 1    
    21   19   20 2    
    22   20   21 1    
    23   21   22 ar   
    24   21   27 ar   
    25   22   23 1    
    26   22   24 ar   
    27   24   25 ar   
    28   25   26 ar   
    29   26   27 ar   
@<TRIPOS>SUBSTRUCTURE
     1 ADP800      1 GROUP   
@<TRIPOS>SET
ATOM$ORANGE STATIC     ATOMS   COLORGROUP SYSTEM 
20 10 10 11 11 13 13 15 15 17 17 19 19 21 21 22 22 25 \
25 27 27 

