#    Name: 6f38_3_ADP
#    Modification time : Fri May 22 19:33:48 2020

@<TRIPOS>MOLECULE
6f38_3_ADP
   27    29     1     0     1
SMALL
NO_CHARGES


@<TRIPOS>ATOM
      1 PB        423.3740  474.5670  429.1190 P.3       1 ADP800      0.0000 
      2 O1B       422.2110  474.6260  428.1750 O.co2     1 ADP800      0.0000 
      3 O2B       424.7470  474.7630  428.5220 O.co2     1 ADP800      0.0000 
      4 O3B       423.1930  475.4020  430.3540 O.co2     1 ADP800      0.0000 
      5 PA        423.7940  471.9240  428.6600 P.3       1 ADP800      0.0000 
      6 O1A       423.7620  472.4590  427.2580 O.co2     1 ADP800      0.0000 
      7 O2A       423.0030  470.7000  429.0230 O.co2     1 ADP800      0.0000 
      8 O3A       423.4560  473.0830  429.6960 O.3       1 ADP800      0.0000 
      9 O5'       425.3470  471.7080  428.9090 O.3       1 ADP800      0.0000 
     10 C5'       426.0240  471.3200  427.7310 C.3       1 ADP800      0.0000 
     11 C4'       425.8470  469.8250  427.6510 C.3       1 ADP800      0.0000 
     12 O4'       425.5280  469.3660  426.3370 O.3       1 ADP800      0.0000 
     13 C3'       427.1290  469.1380  428.0730 C.3       1 ADP800      0.0000 
     14 O3'       426.9800  468.6810  429.4150 O.3       1 ADP800      0.0000 
     15 C2'       427.2640  467.9690  427.1240 C.3       1 ADP800      0.0000 
     16 O2'       427.3550  466.7380  427.8400 O.3       1 ADP800      0.0000 
     17 C1'       425.9550  468.0070  426.3650 C.3       1 ADP800      0.0000 
     18 N9        425.9850  467.2680  425.0860 N.pl3     1 ADP800      0.0000 
     19 C8        425.9890  467.7260  423.8270 C.2       1 ADP800      0.0000 
     20 N7        426.0100  466.6900  422.9530 N.2       1 ADP800      0.0000 
     21 C5        426.0140  465.5590  423.6720 C.ar      1 ADP800      0.0000 
     22 C6        426.0240  464.1170  423.4070 C.ar      1 ADP800      0.0000 
     23 N6        426.0530  463.6480  422.1470 N.pl3     1 ADP800      0.0000 
     24 N1        426.0310  463.2840  424.4590 N.ar      1 ADP800      0.0000 
     25 C2        426.0030  463.7220  425.7240 C.ar      1 ADP800      0.0000 
     26 N3        425.9820  465.0150  426.0360 N.ar      1 ADP800      0.0000 
     27 C4        425.9870  465.9510  425.0710 C.ar      1 ADP800      0.0000 
@<TRIPOS>BOND
     1    1    2 ar   
     2    1    3 ar   
     3    1    4 ar   
     4    1    8 1    
     5    5    6 ar   
     6    5    7 ar   
     7    5    8 1    
     8    5    9 1    
     9    9   10 1    
    10   10   11 1    
    11   11   12 1    
    12   11   13 1    
    13   12   17 1    
    14   13   14 1    
    15   13   15 1    
    16   15   16 1    
    17   15   17 1    
    18   17   18 1    
    19   18   19 1    
    20   18   27 1    
    21   19   20 2    
    22   20   21 1    
    23   21   22 ar   
    24   21   27 ar   
    25   22   23 1    
    26   22   24 ar   
    27   24   25 ar   
    28   25   26 ar   
    29   26   27 ar   
@<TRIPOS>SUBSTRUCTURE
     1 ADP800      1 GROUP   
@<TRIPOS>SET
ATOM$ORANGE STATIC     ATOMS   COLORGROUP SYSTEM 
20 10 10 11 11 13 13 15 15 17 17 19 19 21 21 22 22 25 \
25 27 27 

