#    Name: 6f38_7_ADP
#    Modification time : Fri May 22 19:35:05 2020

@<TRIPOS>MOLECULE
6f38_7_ADP
   27    29     1     0     1
SMALL
NO_CHARGES


@<TRIPOS>ATOM
      1 PB        520.2220  485.0050  370.6900 P.3       1 ADP800      0.0000 
      2 O1B       520.9260  484.5260  369.4490 O.co2     1 ADP800      0.0000 
      3 O2B       520.1050  486.4860  370.9000 O.co2     1 ADP800      0.0000 
      4 O3B       520.6620  484.2330  371.8960 O.co2     1 ADP800      0.0000 
      5 PA        517.7590  484.9790  369.2870 P.3       1 ADP800      0.0000 
      6 O1A       518.2980  486.2380  368.6730 O.co2     1 ADP800      0.0000 
      7 O2A       516.3120  484.8380  369.6770 O.co2     1 ADP800      0.0000 
      8 O3A       518.6850  484.5640  370.5310 O.3       1 ADP800      0.0000 
      9 O5'       518.0830  483.8190  368.2440 O.3       1 ADP800      0.0000 
     10 C5'       518.7790  484.1700  367.0710 C.3       1 ADP800      0.0000 
     11 C4'       519.5780  482.9750  366.6350 C.3       1 ADP800      0.0000 
     12 O4'       518.9960  482.4560  365.4580 O.3       1 ADP800      0.0000 
     13 C3'       520.9830  483.3860  366.2870 C.3       1 ADP800      0.0000 
     14 O3'       521.8410  482.5890  367.0770 O.3       1 ADP800      0.0000 
     15 C2'       521.1620  483.0640  364.8240 C.3       1 ADP800      0.0000 
     16 O2'       522.3850  482.3680  364.5910 O.3       1 ADP800      0.0000 
     17 C1'       519.9980  482.1610  364.4950 C.3       1 ADP800      0.0000 
     18 N9        519.4530  482.4540  363.1600 N.pl3     1 ADP800      0.0000 
     19 C8        519.1890  483.6720  362.6710 C.2       1 ADP800      0.0000 
     20 N7        518.6940  483.5840  361.4150 N.2       1 ADP800      0.0000 
     21 C5        518.6440  482.2840  361.0930 C.ar      1 ADP800      0.0000 
     22 C6        518.2270  481.4910  359.9250 C.ar      1 ADP800      0.0000 
     23 N6        517.7540  482.1050  358.8230 N.pl3     1 ADP800      0.0000 
     24 N1        518.3350  480.1500  359.9890 N.ar      1 ADP800      0.0000 
     25 C2        518.8080  479.5410  361.0840 C.ar      1 ADP800      0.0000 
     26 N3        519.2070  480.1980  362.1830 N.ar      1 ADP800      0.0000 
     27 C4        519.1510  481.5430  362.2430 C.ar      1 ADP800      0.0000 
@<TRIPOS>BOND
     1    1    2 ar   
     2    1    3 ar   
     3    1    4 ar   
     4    1    8 1    
     5    5    6 ar   
     6    5    7 ar   
     7    5    8 1    
     8    5    9 1    
     9    9   10 1    
    10   10   11 1    
    11   11   12 1    
    12   11   13 1    
    13   12   17 1    
    14   13   14 1    
    15   13   15 1    
    16   15   16 1    
    17   15   17 1    
    18   17   18 1    
    19   18   19 1    
    20   18   27 1    
    21   19   20 2    
    22   20   21 1    
    23   21   22 ar   
    24   21   27 ar   
    25   22   23 1    
    26   22   24 ar   
    27   24   25 ar   
    28   25   26 ar   
    29   26   27 ar   
@<TRIPOS>SUBSTRUCTURE
     1 ADP800      1 GROUP   
@<TRIPOS>SET
ATOM$ORANGE STATIC     ATOMS   COLORGROUP SYSTEM 
20 10 10 11 11 13 13 15 15 17 17 19 19 21 21 22 22 25 \
25 27 27 

