#    Name: 6f38_2_ADP
#    Modification time : Fri May 22 19:33:31 2020

@<TRIPOS>MOLECULE
6f38_2_ADP
   27    29     1     0     1
SMALL
NO_CHARGES


@<TRIPOS>ATOM
      1 PB        420.6780  465.2810  475.2370 P.3       1 ADP800      0.0000 
      2 O1B       420.3890  464.2580  474.1700 O.co2     1 ADP800      0.0000 
      3 O2B       421.4160  464.7770  476.4450 O.co2     1 ADP800      0.0000 
      4 O3B       419.5510  466.2400  475.5150 O.co2     1 ADP800      0.0000 
      5 PA        422.8690  465.7760  473.5500 P.3       1 ADP800      0.0000 
      6 O1A       422.3660  465.0960  472.3190 O.co2     1 ADP800      0.0000 
      7 O2A       424.0450  465.2590  474.3270 O.co2     1 ADP800      0.0000 
      8 O3A       421.7270  466.2610  474.5490 O.3       1 ADP800      0.0000 
      9 O5'       423.1990  467.2330  473.0440 O.3       1 ADP800      0.0000 
     10 C5'       424.2400  467.9470  473.6660 C.3       1 ADP800      0.0000 
     11 C4'       424.1430  469.2420  472.9160 C.3       1 ADP800      0.0000 
     12 O4'       425.1480  470.1820  473.2540 O.3       1 ADP800      0.0000 
     13 C3'       424.3100  468.9550  471.4380 C.3       1 ADP800      0.0000 
     14 O3'       423.0090  469.0070  470.8600 O.3       1 ADP800      0.0000 
     15 C2'       425.1850  470.0740  470.9220 C.3       1 ADP800      0.0000 
     16 O2'       424.5930  470.7030  469.7890 O.3       1 ADP800      0.0000 
     17 C1'       425.1570  471.0130  472.1010 C.3       1 ADP800      0.0000 
     18 N9        426.1350  472.1110  472.1950 N.pl3     1 ADP800      0.0000 
     19 C8        427.4110  472.0270  472.5860 C.2       1 ADP800      0.0000 
     20 N7        427.9840  473.2540  472.5660 N.2       1 ADP800      0.0000 
     21 C5        427.0510  474.1380  472.1840 C.ar      1 ADP800      0.0000 
     22 C6        426.9890  475.5880  471.9430 C.ar      1 ADP800      0.0000 
     23 N6        428.0740  476.3620  472.1410 N.pl3     1 ADP800      0.0000 
     24 N1        425.8250  476.1190  471.5310 N.ar      1 ADP800      0.0000 
     25 C2        424.7380  475.3650  471.3420 C.ar      1 ADP800      0.0000 
     26 N3        424.7310  474.0400  471.5300 N.ar      1 ADP800      0.0000 
     27 C4        425.8330  473.3790  471.9380 C.ar      1 ADP800      0.0000 
@<TRIPOS>BOND
     1    1    2 ar   
     2    1    3 ar   
     3    1    4 ar   
     4    1    8 1    
     5    5    6 ar   
     6    5    7 ar   
     7    5    8 1    
     8    5    9 1    
     9    9   10 1    
    10   10   11 1    
    11   11   12 1    
    12   11   13 1    
    13   12   17 1    
    14   13   14 1    
    15   13   15 1    
    16   15   16 1    
    17   15   17 1    
    18   17   18 1    
    19   18   19 1    
    20   18   27 1    
    21   19   20 2    
    22   20   21 1    
    23   21   22 ar   
    24   21   27 ar   
    25   22   23 1    
    26   22   24 ar   
    27   24   25 ar   
    28   25   26 ar   
    29   26   27 ar   
@<TRIPOS>SUBSTRUCTURE
     1 ADP800      1 GROUP   
@<TRIPOS>SET
ATOM$ORANGE STATIC     ATOMS   COLORGROUP SYSTEM 
20 10 10 11 11 13 13 15 15 17 17 19 19 21 21 22 22 25 \
25 27 27 

