#    Name: 6f38_4_ADP
#    Modification time : Fri May 22 19:34:07 2020

@<TRIPOS>MOLECULE
6f38_4_ADP
   27    29     1     0     1
SMALL
NO_CHARGES


@<TRIPOS>ATOM
      1 PB        466.1580  456.0460  438.3820 P.3       1 ADP800      0.0000 
      2 O1B       466.7490  455.6280  437.0710 O.co2     1 ADP800      0.0000 
      3 O2B       467.1040  455.8090  439.5210 O.co2     1 ADP800      0.0000 
      4 O3B       464.7390  455.6160  438.6250 O.co2     1 ADP800      0.0000 
      5 PA        467.1920  458.5570  438.0390 P.3       1 ADP800      0.0000 
      6 O1A       468.4650  457.7590  437.9910 O.co2     1 ADP800      0.0000 
      7 O2A       466.9730  459.6880  439.0010 O.co2     1 ADP800      0.0000 
      8 O3A       465.9300  457.6000  438.1440 O.3       1 ADP800      0.0000 
      9 O5'       467.0970  459.1560  436.5760 O.3       1 ADP800      0.0000 
     10 C5'       468.3420  459.7030  436.1880 C.3       1 ADP800      0.0000 
     11 C4'       468.2040  461.1960  436.3670 C.3       1 ADP800      0.0000 
     12 O4'       468.8590  461.5560  437.5780 O.3       1 ADP800      0.0000 
     13 C3'       468.8570  461.9650  435.2320 C.3       1 ADP800      0.0000 
     14 O3'       467.8750  462.8190  434.6350 O.3       1 ADP800      0.0000 
     15 C2'       469.9580  462.7780  435.8720 C.3       1 ADP800      0.0000 
     16 O2'       469.9880  464.1370  435.4310 O.3       1 ADP800      0.0000 
     17 C1'       469.5950  462.7470  437.3320 C.3       1 ADP800      0.0000 
     18 N9        470.8240  462.8020  438.1210 N.pl3     1 ADP800      0.0000 
     19 C8        471.5950  461.7780  438.5020 C.2       1 ADP800      0.0000 
     20 N7        472.6560  462.2390  439.2050 N.2       1 ADP800      0.0000 
     21 C5        472.5350  463.5720  439.2890 C.ar      1 ADP800      0.0000 
     22 C6        473.2970  464.6910  439.8620 C.ar      1 ADP800      0.0000 
     23 N6        474.4330  464.4690  440.5520 N.pl3     1 ADP800      0.0000 
     24 N1        472.8250  465.9380  439.6840 N.ar      1 ADP800      0.0000 
     25 C2        471.6980  466.1770  439.0080 C.ar      1 ADP800      0.0000 
     26 N3        470.9600  465.2200  438.4500 N.ar      1 ADP800      0.0000 
     27 C4        471.3370  463.9330  438.5500 C.ar      1 ADP800      0.0000 
@<TRIPOS>BOND
     1    1    2 ar   
     2    1    3 ar   
     3    1    4 ar   
     4    1    8 1    
     5    5    6 ar   
     6    5    7 ar   
     7    5    8 1    
     8    5    9 1    
     9    9   10 1    
    10   10   11 1    
    11   11   12 1    
    12   11   13 1    
    13   12   17 1    
    14   13   14 1    
    15   13   15 1    
    16   15   16 1    
    17   15   17 1    
    18   17   18 1    
    19   18   19 1    
    20   18   27 1    
    21   19   20 2    
    22   20   21 1    
    23   21   22 ar   
    24   21   27 ar   
    25   22   23 1    
    26   22   24 ar   
    27   24   25 ar   
    28   25   26 ar   
    29   26   27 ar   
@<TRIPOS>SUBSTRUCTURE
     1 ADP800      1 GROUP   
@<TRIPOS>SET
ATOM$ORANGE STATIC     ATOMS   COLORGROUP SYSTEM 
20 10 10 11 11 13 13 15 15 17 17 19 19 21 21 22 22 25 \
25 27 27 

