#    Name: 6f38_8_ATP
#    Modification time : Fri May 22 19:35:21 2020

@<TRIPOS>MOLECULE
6f38_8_ATP
   31    33     1     0     1
SMALL
NO_CHARGES


@<TRIPOS>ATOM
      1 PG        545.5440  450.9600  357.8270 P.3       1 ATP401      0.0000 
      2 O1G       545.9140  451.7600  356.5990 O.co2     1 ATP401      0.0000 
      3 O2G       545.5250  451.7540  359.1060 O.co2     1 ATP401      0.0000 
      4 O3G       544.3510  450.0630  357.6400 O.co2     1 ATP401      0.0000 
      5 PB        548.1750  450.5040  357.6040 P.3       1 ATP401      0.0000 
      6 O1B       548.3560  450.3120  356.1280 O.co2     1 ATP401      0.0000 
      7 O2B       548.2020  451.8490  358.2420 O.co2     1 ATP401      0.0000 
      8 O3B       546.7510  449.9190  357.9880 O.3       1 ATP401      0.0000 
      9 PA        550.3770  450.3630  359.2560 P.3       1 ATP401      0.0000 
     10 O1A       551.4570  449.3690  359.5410 O.co2     1 ATP401      0.0000 
     11 O2A       549.7790  451.1040  360.4190 O.co2     1 ATP401      0.0000 
     12 O3A       549.2280  449.6240  358.4140 O.3       1 ATP401      0.0000 
     13 O5'       550.9720  451.4440  358.2270 O.3       1 ATP401      0.0000 
     14 C5'       552.2940  451.9270  358.3990 C.3       1 ATP401      0.0000 
     15 C4'       552.2940  452.9970  359.4650 C.3       1 ATP401      0.0000 
     16 O4'       552.4470  452.3590  360.7250 O.3       1 ATP401      0.0000 
     17 C3'       553.4620  453.9340  359.2600 C.3       1 ATP401      0.0000 
     18 O3'       553.0640  455.2550  359.6210 O.3       1 ATP401      0.0000 
     19 C2'       554.5120  453.4410  360.2190 C.3       1 ATP401      0.0000 
     20 O2'       555.1830  454.5050  360.8910 O.3       1 ATP401      0.0000 
     21 C1'       553.7440  452.6390  361.2310 C.3       1 ATP401      0.0000 
     22 N9        554.4000  451.3660  361.4810 N.pl3     1 ATP401      0.0000 
     23 C8        554.1060  450.2220  360.8610 C.2       1 ATP401      0.0000 
     24 N7        554.8850  449.2260  361.3250 N.2       1 ATP401      0.0000 
     25 C5        555.6840  449.7500  362.2640 C.ar      1 ATP401      0.0000 
     26 C6        556.7460  449.2450  363.1490 C.ar      1 ATP401      0.0000 
     27 N6        557.1040  447.9470  363.1100 N.pl3     1 ATP401      0.0000 
     28 N1        557.3480  450.1020  363.9860 N.ar      1 ATP401      0.0000 
     29 C2        556.9840  451.3800  364.0150 C.ar      1 ATP401      0.0000 
     30 N3        556.0250  451.9110  363.2440 N.ar      1 ATP401      0.0000 
     31 C4        555.3470  451.1610  362.3720 C.ar      1 ATP401      0.0000 
@<TRIPOS>BOND
     1    1    2 ar   
     2    1    3 ar   
     3    1    4 ar   
     4    1    8 1    
     5    5    6 ar   
     6    5    7 ar   
     7    5    8 1    
     8    5   12 1    
     9    9   10 ar   
    10    9   11 ar   
    11    9   12 1    
    12    9   13 1    
    13   13   14 1    
    14   14   15 1    
    15   15   16 1    
    16   15   17 1    
    17   16   21 1    
    18   17   18 1    
    19   17   19 1    
    20   19   20 1    
    21   19   21 1    
    22   21   22 1    
    23   22   23 1    
    24   22   31 1    
    25   23   24 2    
    26   24   25 1    
    27   25   26 ar   
    28   25   31 ar   
    29   26   27 1    
    30   26   28 ar   
    31   28   29 ar   
    32   29   30 ar   
    33   30   31 ar   
@<TRIPOS>SUBSTRUCTURE
     1 ATP401      1 GROUP   
@<TRIPOS>SET
ATOM$ORANGE STATIC     ATOMS   COLORGROUP SYSTEM 
20 14 14 15 15 17 17 19 19 21 21 23 23 25 25 26 26 29 \
29 31 31 

