#    Name: 6f38_1_ADP
#    Modification time : Fri May 22 19:33:12 2020

@<TRIPOS>MOLECULE
6f38_1_ADP
   27    29     1     0     1
SMALL
NO_CHARGES


@<TRIPOS>ATOM
      1 PB        376.5670  466.1750  463.0790 P.3       1 ADP800      0.0000 
      2 O1B       376.3710  466.7500  461.7180 O.co2     1 ADP800      0.0000 
      3 O2B       375.4060  465.3900  463.6200 O.co2     1 ADP800      0.0000 
      4 O3B       377.2290  467.0590  464.1020 O.co2     1 ADP800      0.0000 
      5 PA        377.6150  463.7010  462.1120 P.3       1 ADP800      0.0000 
      6 O1A       377.6740  463.9480  460.6310 O.co2     1 ADP800      0.0000 
      7 O2A       376.5170  462.9190  462.7710 O.co2     1 ADP800      0.0000 
      8 O3A       377.7240  465.1100  462.8470 O.3       1 ADP800      0.0000 
      9 O5'       378.9960  463.0620  462.5970 O.3       1 ADP800      0.0000 
     10 C5'       379.6400  461.9640  461.9850 C.3       1 ADP800      0.0000 
     11 C4'       380.7600  461.6020  462.9450 C.3       1 ADP800      0.0000 
     12 O4'       380.7610  460.1930  463.0800 O.3       1 ADP800      0.0000 
     13 C3'       382.1450  462.0100  462.4680 C.3       1 ADP800      0.0000 
     14 O3'       382.7980  462.7400  463.5050 O.3       1 ADP800      0.0000 
     15 C2'       382.8830  460.7120  462.1610 C.3       1 ADP800      0.0000 
     16 O2'       384.1740  460.5460  462.7710 O.3       1 ADP800      0.0000 
     17 C1'       381.9990  459.6130  462.6850 C.3       1 ADP800      0.0000 
     18 N9        381.7910  458.6750  461.5770 N.pl3     1 ADP800      0.0000 
     19 C8        381.1930  458.9760  460.4170 C.2       1 ADP800      0.0000 
     20 N7        381.1710  457.8960  459.6020 N.2       1 ADP800      0.0000 
     21 C5        381.7730  456.8870  460.2550 C.ar      1 ADP800      0.0000 
     22 C6        382.1000  455.4750  459.9720 C.ar      1 ADP800      0.0000 
     23 N6        381.7610  454.9000  458.7990 N.pl3     1 ADP800      0.0000 
     24 N1        382.7400  454.7690  460.9200 N.ar      1 ADP800      0.0000 
     25 C2        383.0880  455.3230  462.0870 C.ar      1 ADP800      0.0000 
     26 N3        382.8300  456.5960  462.4200 N.ar      1 ADP800      0.0000 
     27 C4        382.1940  457.4120  461.5540 C.ar      1 ADP800      0.0000 
@<TRIPOS>BOND
     1    1    2 ar   
     2    1    3 ar   
     3    1    4 ar   
     4    1    8 1    
     5    5    6 ar   
     6    5    7 ar   
     7    5    8 1    
     8    5    9 1    
     9    9   10 1    
    10   10   11 1    
    11   11   12 1    
    12   11   13 1    
    13   12   17 1    
    14   13   14 1    
    15   13   15 1    
    16   15   16 1    
    17   15   17 1    
    18   17   18 1    
    19   18   19 1    
    20   18   27 1    
    21   19   20 2    
    22   20   21 1    
    23   21   22 ar   
    24   21   27 ar   
    25   22   23 1    
    26   22   24 ar   
    27   24   25 ar   
    28   25   26 ar   
    29   26   27 ar   
@<TRIPOS>SUBSTRUCTURE
     1 ADP800      1 GROUP   
@<TRIPOS>SET
ATOM$ORANGE STATIC     ATOMS   COLORGROUP SYSTEM 
20 10 10 11 11 13 13 15 15 17 17 19 19 21 21 22 22 25 \
25 27 27 

