#    Name: 6f38_5_ADP
#    Modification time : Fri May 22 19:34:27 2020

@<TRIPOS>MOLECULE
6f38_5_ADP
   27    29     1     0     1
SMALL
NO_CHARGES


@<TRIPOS>ATOM
      1 PB        472.8040  480.5180  399.3510 P.3       1 ADP800      0.0000 
      2 O1B       472.3730  481.8970  398.9630 O.co2     1 ADP800      0.0000 
      3 O2B       472.4280  480.0640  400.7240 O.co2     1 ADP800      0.0000 
      4 O3B       474.1930  480.0930  398.9740 O.co2     1 ADP800      0.0000 
      5 PA        470.2220  479.7690  398.6170 P.3       1 ADP800      0.0000 
      6 O1A       469.8250  480.8930  397.6990 O.co2     1 ADP800      0.0000 
      7 O2A       469.7220  479.6920  400.0330 O.co2     1 ADP800      0.0000 
      8 O3A       471.8120  479.6360  398.5180 O.3       1 ADP800      0.0000 
      9 O5'       469.9460  478.3630  397.9200 O.3       1 ADP800      0.0000 
     10 C5'       470.6190  478.1860  396.6900 C.3       1 ADP800      0.0000 
     11 C4'       471.5310  476.9840  396.7740 C.3       1 ADP800      0.0000 
     12 O4'       471.1660  475.9340  395.8990 O.3       1 ADP800      0.0000 
     13 C3'       472.9340  477.4270  396.4290 C.3       1 ADP800      0.0000 
     14 O3'       473.6590  477.7360  397.6250 O.3       1 ADP800      0.0000 
     15 C2'       473.5070  476.2600  395.6690 C.3       1 ADP800      0.0000 
     16 O2'       474.3220  475.4930  396.5440 O.3       1 ADP800      0.0000 
     17 C1'       472.3250  475.4040  395.2680 C.3       1 ADP800      0.0000 
     18 N9        472.1140  475.4860  393.8130 N.pl3     1 ADP800      0.0000 
     19 C8        472.0100  476.6150  393.1000 C.2       1 ADP800      0.0000 
     20 N7        471.8140  476.3350  391.7910 N.2       1 ADP800      0.0000 
     21 C5        471.7880  475.0030  391.6640 C.ar      1 ADP800      0.0000 
     22 C6        471.6300  474.0450  390.5570 C.ar      1 ADP800      0.0000 
     23 N6        471.4450  474.4680  389.2910 N.pl3     1 ADP800      0.0000 
     24 N1        471.6770  472.7330  390.8420 N.ar      1 ADP800      0.0000 
     25 C2        471.8620  472.2990  392.0960 C.ar      1 ADP800      0.0000 
     26 N3        472.0200  473.1100  393.1520 N.ar      1 ADP800      0.0000 
     27 C4        472.0140  474.4490  392.9950 C.ar      1 ADP800      0.0000 
@<TRIPOS>BOND
     1    1    2 ar   
     2    1    3 ar   
     3    1    4 ar   
     4    1    8 1    
     5    5    6 ar   
     6    5    7 ar   
     7    5    8 1    
     8    5    9 1    
     9    9   10 1    
    10   10   11 1    
    11   11   12 1    
    12   11   13 1    
    13   12   17 1    
    14   13   14 1    
    15   13   15 1    
    16   15   16 1    
    17   15   17 1    
    18   17   18 1    
    19   18   19 1    
    20   18   27 1    
    21   19   20 2    
    22   20   21 1    
    23   21   22 ar   
    24   21   27 ar   
    25   22   23 1    
    26   22   24 ar   
    27   24   25 ar   
    28   25   26 ar   
    29   26   27 ar   
@<TRIPOS>SUBSTRUCTURE
     1 ADP800      1 GROUP   
@<TRIPOS>SET
ATOM$ORANGE STATIC     ATOMS   COLORGROUP SYSTEM 
20 10 10 11 11 13 13 15 15 17 17 19 19 21 21 22 22 25 \
25 27 27 

