#    Name: 6f38_6_ADP
#    Modification time : Fri May 22 19:34:46 2020

@<TRIPOS>MOLECULE
6f38_6_ADP
   27    29     1     0     1
SMALL
NO_CHARGES


@<TRIPOS>ATOM
      1 PB        507.7510  452.8140  398.0330 P.3       1 ADP800      0.0000 
      2 O1B       508.1070  453.7570  396.9340 O.co2     1 ADP800      0.0000 
      3 O2B       508.2840  451.4370  397.8060 O.co2     1 ADP800      0.0000 
      4 O3B       506.3040  452.8730  398.4190 O.co2     1 ADP800      0.0000 
      5 PA        508.3720  452.6810  400.6640 P.3       1 ADP800      0.0000 
      6 O1A       509.0360  451.3370  400.5330 O.co2     1 ADP800      0.0000 
      7 O2A       506.9720  452.8240  401.1970 O.co2     1 ADP800      0.0000 
      8 O3A       508.5320  453.4100  399.2650 O.3       1 ADP800      0.0000 
      9 O5'       509.3530  453.6440  401.4620 O.3       1 ADP800      0.0000 
     10 C5'       510.7160  453.4290  401.1610 C.3       1 ADP800      0.0000 
     11 C4'       511.2470  454.7120  400.5850 C.3       1 ADP800      0.0000 
     12 O4'       512.3170  455.2280  401.3640 O.3       1 ADP800      0.0000 
     13 C3'       511.7830  454.4140  399.2080 C.3       1 ADP800      0.0000 
     14 O3'       510.8580  454.9110  398.2410 O.3       1 ADP800      0.0000 
     15 C2'       513.1100  455.1300  399.1550 C.3       1 ADP800      0.0000 
     16 O2'       513.1040  456.0710  398.0890 O.3       1 ADP800      0.0000 
     17 C1'       513.2070  455.8740  400.4720 C.3       1 ADP800      0.0000 
     18 N9        514.5860  455.8590  400.9900 N.pl3     1 ADP800      0.0000 
     19 C8        515.6260  455.1870  400.4830 C.2       1 ADP800      0.0000 
     20 N7        516.7510  455.4340  401.1960 N.2       1 ADP800      0.0000 
     21 C5        516.4180  456.2620  402.1960 C.ar      1 ADP800      0.0000 
     22 C6        517.0970  456.9160  403.3280 C.ar      1 ADP800      0.0000 
     23 N6        518.4110  456.7250  403.5520 N.pl3     1 ADP800      0.0000 
     24 N1        516.3780  457.7080  404.1350 N.ar      1 ADP800      0.0000 
     25 C2        515.0730  457.8950  403.9450 C.ar      1 ADP800      0.0000 
     26 N3        514.4160  457.3590  402.9240 N.ar      1 ADP800      0.0000 
     27 C4        514.9990  456.5420  402.0430 C.ar      1 ADP800      0.0000 
@<TRIPOS>BOND
     1    1    2 ar   
     2    1    3 ar   
     3    1    4 ar   
     4    1    8 1    
     5    5    6 ar   
     6    5    7 ar   
     7    5    8 1    
     8    5    9 1    
     9    9   10 1    
    10   10   11 1    
    11   11   12 1    
    12   11   13 1    
    13   12   17 1    
    14   13   14 1    
    15   13   15 1    
    16   15   16 1    
    17   15   17 1    
    18   17   18 1    
    19   18   19 1    
    20   18   27 1    
    21   19   20 2    
    22   20   21 1    
    23   21   22 ar   
    24   21   27 ar   
    25   22   23 1    
    26   22   24 ar   
    27   24   25 ar   
    28   25   26 ar   
    29   26   27 ar   
@<TRIPOS>SUBSTRUCTURE
     1 ADP800      1 GROUP   
@<TRIPOS>SET
ATOM$ORANGE STATIC     ATOMS   COLORGROUP SYSTEM 
20 10 10 11 11 13 13 15 15 17 17 19 19 21 21 22 22 25 \
25 27 27 

