#    Name: 6f38_10_ADP
#    Modification time : Fri May 22 19:36:05 2020

@<TRIPOS>MOLECULE
6f38_10_ADP
   27    29     1     0     1
SMALL
NO_CHARGES


@<TRIPOS>ATOM
      1 PB        583.6010  454.5650  314.7380 P.3       1 ADP800      0.0000 
      2 O1B       583.4380  453.6200  313.6040 O.co2     1 ADP800      0.0000 
      3 O2B       582.7160  454.3550  315.9300 O.co2     1 ADP800      0.0000 
      4 O3B       583.6510  455.9640  314.2640 O.co2     1 ADP800      0.0000 
      5 PA        585.2900  452.8980  316.0710 P.3       1 ADP800      0.0000 
      6 O1A       584.7640  451.7420  315.2650 O.co2     1 ADP800      0.0000 
      7 O2A       584.8510  453.1400  317.4910 O.co2     1 ADP800      0.0000 
      8 O3A       585.0760  454.2490  315.2490 O.3       1 ADP800      0.0000 
      9 O5'       586.8810  452.7790  316.0880 O.3       1 ADP800      0.0000 
     10 C5'       587.4810  451.5440  316.4490 C.3       1 ADP800      0.0000 
     11 C4'       588.9560  451.8700  316.5270 C.3       1 ADP800      0.0000 
     12 O4'       589.6450  451.1610  317.5550 O.3       1 ADP800      0.0000 
     13 C3'       589.6800  451.6140  315.2300 C.3       1 ADP800      0.0000 
     14 O3'       589.6940  452.8310  314.4900 O.3       1 ADP800      0.0000 
     15 C2'       591.0740  451.2670  315.6810 C.3       1 ADP800      0.0000 
     16 O2'       591.9810  452.2600  315.2210 O.3       1 ADP800      0.0000 
     17 C1'       591.0120  451.3060  317.1960 C.3       1 ADP800      0.0000 
     18 N9        591.8790  450.2420  317.7290 N.pl3     1 ADP800      0.0000 
     19 C8        592.1850  449.0830  317.1310 C.2       1 ADP800      0.0000 
     20 N7        593.0320  448.3610  317.9040 N.2       1 ADP800      0.0000 
     21 C5        593.2970  449.0800  319.0050 C.ar      1 ADP800      0.0000 
     22 C6        594.1010  448.9220  320.2350 C.ar      1 ADP800      0.0000 
     23 N6        594.8420  447.8190  320.4660 N.pl3     1 ADP800      0.0000 
     24 N1        594.0890  449.9350  321.1190 N.ar      1 ADP800      0.0000 
     25 C2        593.3580  451.0400  320.9310 C.ar      1 ADP800      0.0000 
     26 N3        592.6080  451.2440  319.8450 N.ar      1 ADP800      0.0000 
     27 C4        592.5360  450.3210  318.8720 C.ar      1 ADP800      0.0000 
@<TRIPOS>BOND
     1    1    2 ar   
     2    1    3 ar   
     3    1    4 ar   
     4    1    8 1    
     5    5    6 ar   
     6    5    7 ar   
     7    5    8 1    
     8    5    9 1    
     9    9   10 1    
    10   10   11 1    
    11   11   12 1    
    12   11   13 1    
    13   12   17 1    
    14   13   14 1    
    15   13   15 1    
    16   15   16 1    
    17   15   17 1    
    18   17   18 1    
    19   18   19 1    
    20   18   27 1    
    21   19   20 2    
    22   20   21 1    
    23   21   22 ar   
    24   21   27 ar   
    25   22   23 1    
    26   22   24 ar   
    27   24   25 ar   
    28   25   26 ar   
    29   26   27 ar   
@<TRIPOS>SUBSTRUCTURE
     1 ADP800      1 GROUP   
@<TRIPOS>SET
ATOM$ORANGE STATIC     ATOMS   COLORGROUP SYSTEM 
20 10 10 11 11 13 13 15 15 17 17 19 19 21 21 22 22 25 \
25 27 27 

