#    Name: 5x1q_1_ATP
#    Modification time : Fri May 22 19:17:29 2020

@<TRIPOS>MOLECULE
5x1q_1_ATP
   31    33     1     0     1
SMALL
NO_CHARGES


@<TRIPOS>ATOM
      1 PG         21.7590  107.3620   64.7140 P.3       1 ATP401      0.0000 
      2 O1G        22.4380  108.7090   64.5960 O.co2     1 ATP401      0.0000 
      3 O2G        20.6450  107.3360   65.7330 O.co2     1 ATP401      0.0000 
      4 O3G        22.7180  106.1920   64.8070 O.co2     1 ATP401      0.0000 
      5 PB         21.1210  106.0420   62.2000 P.3       1 ATP401      0.0000 
      6 O1B        21.7470  106.6620   60.9710 O.co2     1 ATP401      0.0000 
      7 O2B        21.6850  104.7670   62.7770 O.co2     1 ATP401      0.0000 
      8 O3B        20.9500  107.1980   63.3190 O.3       1 ATP401      0.0000 
      9 PA         18.4860  104.8930   62.5470 P.3       1 ATP401      0.0000 
     10 O1A        17.5140  104.5190   61.4500 O.co2     1 ATP401      0.0000 
     11 O2A        19.1410  103.7980   63.3560 O.co2     1 ATP401      0.0000 
     12 O3A        19.5730  105.8270   61.8080 O.3       1 ATP401      0.0000 
     13 O5'        17.8130  105.9360   63.5610 O.3       1 ATP401      0.0000 
     14 C5'        16.7610  106.8080   63.1500 C.3       1 ATP401      0.0000 
     15 C4'        17.2130  108.2050   63.5380 C.3       1 ATP401      0.0000 
     16 O4'        16.2090  109.1440   63.1590 O.3       1 ATP401      0.0000 
     17 C3'        17.4250  108.3640   65.0370 C.3       1 ATP401      0.0000 
     18 O3'        18.6300  109.0970   65.2640 O.3       1 ATP401      0.0000 
     19 C2'        16.2520  109.2070   65.4970 C.3       1 ATP401      0.0000 
     20 O2'        16.5690  110.1040   66.5630 O.3       1 ATP401      0.0000 
     21 C1'        15.9160  110.0030   64.2540 C.3       1 ATP401      0.0000 
     22 N9         14.4910  110.3800   64.1210 N.pl3     1 ATP401      0.0000 
     23 C8         13.5090  109.5520   63.7240 C.2       1 ATP401      0.0000 
     24 N7         12.3240  110.2010   63.6780 N.2       1 ATP401      0.0000 
     25 C5         12.5610  111.4740   64.0470 C.ar      1 ATP401      0.0000 
     26 C6         11.7380  112.6910   64.1890 C.ar      1 ATP401      0.0000 
     27 N6         10.4150  112.6410   63.9260 N.pl3     1 ATP401      0.0000 
     28 N1         12.3630  113.8230   64.5890 N.ar      1 ATP401      0.0000 
     29 C2         13.6920  113.8640   64.8490 C.ar      1 ATP401      0.0000 
     30 N3         14.5050  112.7880   64.7280 N.ar      1 ATP401      0.0000 
     31 C4         13.9920  111.5980   64.3300 C.ar      1 ATP401      0.0000 
@<TRIPOS>BOND
     1    1    2 ar   
     2    1    3 ar   
     3    1    4 ar   
     4    1    8 1    
     5    5    6 ar   
     6    5    7 ar   
     7    5    8 1    
     8    5   12 1    
     9    9   10 ar   
    10    9   11 ar   
    11    9   12 1    
    12    9   13 1    
    13   13   14 1    
    14   14   15 1    
    15   15   16 1    
    16   15   17 1    
    17   16   21 1    
    18   17   18 1    
    19   17   19 1    
    20   19   20 1    
    21   19   21 1    
    22   21   22 1    
    23   22   23 1    
    24   22   31 1    
    25   23   24 2    
    26   24   25 1    
    27   25   26 ar   
    28   25   31 ar   
    29   26   27 1    
    30   26   28 ar   
    31   28   29 ar   
    32   29   30 ar   
    33   30   31 ar   
@<TRIPOS>SUBSTRUCTURE
     1 ATP401      1 GROUP   
@<TRIPOS>SET
ATOM$ORANGE STATIC     ATOMS   COLORGROUP SYSTEM 
20 14 14 15 15 17 17 19 19 21 21 23 23 25 25 26 26 29 \
29 31 31 

