#    Name: 6olm_6_ATP
#    Modification time : Fri May 22 19:37:08 2020

@<TRIPOS>MOLECULE
6olm_6_ATP
   31    33     1     0     1
SMALL
NO_CHARGES


@<TRIPOS>ATOM
      1 PG        152.2350  178.0450  186.6010 P.3       1 ATP401      0.0000 
      2 O1G       152.9870  178.6240  185.4320 O.co2     1 ATP401      0.0000 
      3 O2G       152.3200  178.9550  187.8040 O.co2     1 ATP401      0.0000 
      4 O3G       152.8270  176.6820  186.9540 O.co2     1 ATP401      0.0000 
      5 PB        150.1830  176.6780  185.0430 P.3       1 ATP401      0.0000 
      6 O1B       151.0320  175.4670  185.2900 O.co2     1 ATP401      0.0000 
      7 O2B       150.4410  177.2160  183.6500 O.co2     1 ATP401      0.0000 
      8 O3B       150.6080  177.8410  186.1800 O.3       1 ATP401      0.0000 
      9 PA        147.9460  175.4750  186.3630 P.3       1 ATP401      0.0000 
     10 O1A       148.7620  175.8600  187.6620 O.co2     1 ATP401      0.0000 
     11 O2A       148.0460  174.0520  186.0860 O.co2     1 ATP401      0.0000 
     12 O3A       148.5480  176.2940  185.1240 O.3       1 ATP401      0.0000 
     13 O5'       146.3110  175.9130  186.5530 O.3       1 ATP401      0.0000 
     14 C5'       146.0360  177.2810  186.4840 C.3       1 ATP401      0.0000 
     15 C4'       144.5240  177.4880  186.3130 C.3       1 ATP401      0.0000 
     16 O4'       144.1710  177.0450  185.1210 O.3       1 ATP401      0.0000 
     17 C3'       143.7920  176.6490  187.3270 C.3       1 ATP401      0.0000 
     18 O3'       142.7440  177.3210  187.8320 O.3       1 ATP401      0.0000 
     19 C2'       143.3150  175.4280  186.4880 C.3       1 ATP401      0.0000 
     20 O2'       142.1520  174.7920  187.1200 O.3       1 ATP401      0.0000 
     21 C1'       142.9880  175.9920  185.3790 C.3       1 ATP401      0.0000 
     22 N9        142.8440  175.0950  184.2240 N.pl3     1 ATP401      0.0000 
     23 C8        143.7290  174.1630  183.8060 C.2       1 ATP401      0.0000 
     24 N7        143.2400  173.5690  182.7250 N.2       1 ATP401      0.0000 
     25 C5        142.0370  174.1390  182.4570 C.ar      1 ATP401      0.0000 
     26 C6        141.1160  173.9120  181.4660 C.ar      1 ATP401      0.0000 
     27 N6        141.0920  172.9830  180.3550 N.pl3     1 ATP401      0.0000 
     28 N1        139.9790  174.6360  181.4290 N.ar      1 ATP401      0.0000 
     29 C2        139.7530  175.5670  182.3490 C.ar      1 ATP401      0.0000 
     30 N3        140.6720  175.7930  183.3340 N.ar      1 ATP401      0.0000 
     31 C4        141.8060  175.0720  183.3750 C.ar      1 ATP401      0.0000 
@<TRIPOS>BOND
     1    1    2 ar   
     2    1    3 ar   
     3    1    4 ar   
     4    1    8 1    
     5    5    6 ar   
     6    5    7 ar   
     7    5    8 1    
     8    5   12 1    
     9    9   10 ar   
    10    9   11 ar   
    11    9   12 1    
    12    9   13 1    
    13   13   14 1    
    14   14   15 1    
    15   15   16 1    
    16   15   17 1    
    17   16   21 1    
    18   17   18 1    
    19   17   19 1    
    20   19   20 1    
    21   19   21 1    
    22   21   22 1    
    23   22   23 1    
    24   22   31 1    
    25   23   24 2    
    26   24   25 1    
    27   25   26 ar   
    28   25   31 ar   
    29   26   27 1    
    30   26   28 ar   
    31   28   29 ar   
    32   29   30 ar   
    33   30   31 ar   
@<TRIPOS>SUBSTRUCTURE
     1 ATP401      1 GROUP   
@<TRIPOS>SET
ATOM$ORANGE STATIC     ATOMS   COLORGROUP SYSTEM 
20 14 14 15 15 17 17 19 19 21 21 23 23 25 25 26 26 29 \
29 31 31 

