#    Name: 6olm_2_ATP
#    Modification time : Fri May 22 19:36:14 2020

@<TRIPOS>MOLECULE
6olm_2_ATP
   31    33     1     0     1
SMALL
NO_CHARGES


@<TRIPOS>ATOM
      1 PG        208.8280  160.4970  186.6010 P.3       1 ATP401      0.0000 
      2 O1G       207.9510  160.8620  185.4320 O.co2     1 ATP401      0.0000 
      3 O2G       207.9970  160.1190  187.8050 O.co2     1 ATP401      0.0000 
      4 O3G       209.7170  161.6880  186.9530 O.co2     1 ATP401      0.0000 
      5 PB        211.0360  159.3970  185.0440 P.3       1 ATP401      0.0000 
      6 O1B       211.6660  160.7350  185.2920 O.co2     1 ATP401      0.0000 
      7 O2B       210.4430  159.3550  183.6500 O.co2     1 ATP401      0.0000 
      8 O3B       209.8140  159.1870  186.1780 O.3       1 ATP401      0.0000 
      9 PA        213.1940  158.0570  186.3650 P.3       1 ATP401      0.0000 
     10 O1A       212.4550  158.5750  187.6640 O.co2     1 ATP401      0.0000 
     11 O2A       214.3740  158.8590  186.0830 O.co2     1 ATP401      0.0000 
     12 O3A       212.1800  158.1680  185.1280 O.3       1 ATP401      0.0000 
     13 O5'       213.6350  156.4240  186.5600 O.3       1 ATP401      0.0000 
     14 C5'       212.5910  155.4990  186.4870 C.3       1 ATP401      0.0000 
     15 C4'       213.1640  154.0840  186.3100 C.3       1 ATP401      0.0000 
     16 O4'       213.7260  154.0050  185.1180 O.3       1 ATP401      0.0000 
     17 C3'       214.2540  153.8540  187.3230 C.3       1 ATP401      0.0000 
     18 O3'       214.1980  152.5990  187.8020 O.3       1 ATP401      0.0000 
     19 C2'       215.5490  154.0700  186.4880 C.3       1 ATP401      0.0000 
     20 O2'       216.6870  153.3900  187.1190 O.3       1 ATP401      0.0000 
     21 C1'       215.2280  153.5060  185.3780 C.3       1 ATP401      0.0000 
     22 N9        216.0770  153.8320  184.2240 N.pl3     1 ATP401      0.0000 
     23 C8        216.4400  155.0650  183.8060 C.2       1 ATP401      0.0000 
     24 N7        217.1990  154.9380  182.7250 N.2       1 ATP401      0.0000 
     25 C5        217.3070  153.6100  182.4560 C.ar      1 ATP401      0.0000 
     26 C6        217.9640  152.9250  181.4660 C.ar      1 ATP401      0.0000 
     27 N6        218.7790  153.3680  180.3540 N.pl3     1 ATP401      0.0000 
     28 N1        217.9050  151.5790  181.4290 N.ar      1 ATP401      0.0000 
     29 C2        217.2120  150.9180  182.3500 C.ar      1 ATP401      0.0000 
     30 N3        216.5580  151.6010  183.3350 N.ar      1 ATP401      0.0000 
     31 C4        216.6150  152.9440  183.3750 C.ar      1 ATP401      0.0000 
@<TRIPOS>BOND
     1    1    2 ar   
     2    1    3 ar   
     3    1    4 ar   
     4    1    8 1    
     5    5    6 ar   
     6    5    7 ar   
     7    5    8 1    
     8    5   12 1    
     9    9   10 ar   
    10    9   11 ar   
    11    9   12 1    
    12    9   13 1    
    13   13   14 1    
    14   14   15 1    
    15   15   16 1    
    16   15   17 1    
    17   16   21 1    
    18   17   18 1    
    19   17   19 1    
    20   19   20 1    
    21   19   21 1    
    22   21   22 1    
    23   22   23 1    
    24   22   31 1    
    25   23   24 2    
    26   24   25 1    
    27   25   26 ar   
    28   25   31 ar   
    29   26   27 1    
    30   26   28 ar   
    31   28   29 ar   
    32   29   30 ar   
    33   30   31 ar   
@<TRIPOS>SUBSTRUCTURE
     1 ATP401      1 GROUP   
@<TRIPOS>SET
ATOM$ORANGE STATIC     ATOMS   COLORGROUP SYSTEM 
20 14 14 15 15 17 17 19 19 21 21 23 23 25 25 26 26 29 \
29 31 31 

