#    Name: 6olm_1_ATP
#    Modification time : Fri May 22 19:35:59 2020

@<TRIPOS>MOLECULE
6olm_1_ATP
   31    33     1     0     1
SMALL
NO_CHARGES


@<TRIPOS>ATOM
      1 PG        175.4670  152.9360  186.6020 P.3       1 ATP401      0.0000 
      2 O1G       175.3400  153.8760  185.4320 O.co2     1 ATP401      0.0000 
      3 O2G       174.7230  153.4660  187.8060 O.co2     1 ATP401      0.0000 
      4 O3G       176.9430  152.7650  186.9520 O.co2     1 ATP401      0.0000 
      5 PB        175.6220  150.4730  185.0460 P.3       1 ATP401      0.0000 
      6 O1B       177.0950  150.5970  185.2960 O.co2     1 ATP401      0.0000 
      7 O2B       175.2910  150.9670  183.6540 O.co2     1 ATP401      0.0000 
      8 O3B       174.8270  151.4250  186.1810 O.3       1 ATP401      0.0000 
      9 PA        175.5400  147.9330  186.3660 P.3       1 ATP401      0.0000 
     10 O1A       175.6200  148.8330  187.6640 O.co2     1 ATP401      0.0000 
     11 O2A       176.8230  147.3110  186.0840 O.co2     1 ATP401      0.0000 
     12 O3A       175.1300  148.8670  185.1280 O.3       1 ATP401      0.0000 
     13 O5'       174.3440  146.7350  186.5610 O.3       1 ATP401      0.0000 
     14 C5'       173.0220  147.1780  186.4880 C.3       1 ATP401      0.0000 
     15 C4'       172.0800  145.9770  186.3140 C.3       1 ATP401      0.0000 
     16 O4'       172.2870  145.4490  185.1210 O.3       1 ATP401      0.0000 
     17 C3'       172.4260  144.9170  187.3260 C.3       1 ATP401      0.0000 
     18 O3'       171.3120  144.3370  187.8060 O.3       1 ATP401      0.0000 
     19 C2'       173.2600  143.9040  186.4910 C.3       1 ATP401      0.0000 
     20 O2'       173.2420  142.5780  187.1220 O.3       1 ATP401      0.0000 
     21 C1'       172.6110  143.8990  185.3810 C.3       1 ATP401      0.0000 
     22 N9        173.3180  143.3280  184.2270 N.pl3     1 ATP401      0.0000 
     23 C8        174.5680  143.6290  183.8100 C.2       1 ATP401      0.0000 
     24 N7        174.8380  142.9100  182.7280 N.2       1 ATP401      0.0000 
     25 C5        173.7410  142.1540  182.4580 C.ar      1 ATP401      0.0000 
     26 C6        173.4760  141.2450  181.4660 C.ar      1 ATP401      0.0000 
     27 N6        174.2690  140.7620  180.3540 N.pl3     1 ATP401      0.0000 
     28 N1        172.2790  140.6240  181.4270 N.ar      1 ATP401      0.0000 
     29 C2        171.3600  140.8930  182.3470 C.ar      1 ATP401      0.0000 
     30 N3        171.6250  141.8000  183.3340 N.ar      1 ATP401      0.0000 
     31 C4        172.8180  142.4200  183.3760 C.ar      1 ATP401      0.0000 
@<TRIPOS>BOND
     1    1    2 ar   
     2    1    3 ar   
     3    1    4 ar   
     4    1    8 1    
     5    5    6 ar   
     6    5    7 ar   
     7    5    8 1    
     8    5   12 1    
     9    9   10 ar   
    10    9   11 ar   
    11    9   12 1    
    12    9   13 1    
    13   13   14 1    
    14   14   15 1    
    15   15   16 1    
    16   15   17 1    
    17   16   21 1    
    18   17   18 1    
    19   17   19 1    
    20   19   20 1    
    21   19   21 1    
    22   21   22 1    
    23   22   23 1    
    24   22   31 1    
    25   23   24 2    
    26   24   25 1    
    27   25   26 ar   
    28   25   31 ar   
    29   26   27 1    
    30   26   28 ar   
    31   28   29 ar   
    32   29   30 ar   
    33   30   31 ar   
@<TRIPOS>SUBSTRUCTURE
     1 ATP401      1 GROUP   
@<TRIPOS>SET
ATOM$ORANGE STATIC     ATOMS   COLORGROUP SYSTEM 
20 14 14 15 15 17 17 19 19 21 21 23 23 25 25 26 26 29 \
29 31 31 

