#    Name: 6olm_3_ATP
#    Modification time : Fri May 22 19:36:28 2020

@<TRIPOS>MOLECULE
6olm_3_ATP
   31    33     1     0     1
SMALL
NO_CHARGES


@<TRIPOS>ATOM
      1 PG        218.9610  193.1710  186.6000 P.3       1 ATP401      0.0000 
      2 O1G       218.2080  192.5920  185.4320 O.co2     1 ATP401      0.0000 
      3 O2G       218.8750  192.2600  187.8040 O.co2     1 ATP401      0.0000 
      4 O3G       218.3690  194.5340  186.9540 O.co2     1 ATP401      0.0000 
      5 PB        221.0160  194.5370  185.0430 P.3       1 ATP401      0.0000 
      6 O1B       220.1690  195.7490  185.2900 O.co2     1 ATP401      0.0000 
      7 O2B       220.7580  193.9990  183.6500 O.co2     1 ATP401      0.0000 
      8 O3B       220.5880  193.3740  186.1790 O.3       1 ATP401      0.0000 
      9 PA        223.2560  195.7350  186.3670 P.3       1 ATP401      0.0000 
     10 O1A       222.4370  195.3530  187.6640 O.co2     1 ATP401      0.0000 
     11 O2A       223.1550  197.1580  186.0890 O.co2     1 ATP401      0.0000 
     12 O3A       222.6520  194.9170  185.1270 O.3       1 ATP401      0.0000 
     13 O5'       224.8900  195.2960  186.5610 O.3       1 ATP401      0.0000 
     14 C5'       225.1670  193.9280  186.4890 C.3       1 ATP401      0.0000 
     15 C4'       226.6780  193.7170  186.3120 C.3       1 ATP401      0.0000 
     16 O4'       227.0270  194.1640  185.1190 O.3       1 ATP401      0.0000 
     17 C3'       227.4230  194.5470  187.3240 C.3       1 ATP401      0.0000 
     18 O3'       228.4820  193.8720  187.8040 O.3       1 ATP401      0.0000 
     19 C2'       227.8850  195.7760  186.4880 C.3       1 ATP401      0.0000 
     20 O2'       229.0450  196.4200  187.1180 O.3       1 ATP401      0.0000 
     21 C1'       228.2110  195.2160  185.3770 C.3       1 ATP401      0.0000 
     22 N9        228.3510  196.1170  184.2250 N.pl3     1 ATP401      0.0000 
     23 C8        227.4650  197.0500  183.8100 C.2       1 ATP401      0.0000 
     24 N7        227.9530  197.6460  182.7300 N.2       1 ATP401      0.0000 
     25 C5        229.1570  197.0760  182.4590 C.ar      1 ATP401      0.0000 
     26 C6        230.0770  197.3050  181.4680 C.ar      1 ATP401      0.0000 
     27 N6        230.1010  198.2350  180.3580 N.pl3     1 ATP401      0.0000 
     28 N1        231.2140  196.5800  181.4280 N.ar      1 ATP401      0.0000 
     29 C2        231.4400  195.6470  182.3460 C.ar      1 ATP401      0.0000 
     30 N3        230.5220  195.4200  183.3320 N.ar      1 ATP401      0.0000 
     31 C4        229.3880  196.1410  183.3750 C.ar      1 ATP401      0.0000 
@<TRIPOS>BOND
     1    1    2 ar   
     2    1    3 ar   
     3    1    4 ar   
     4    1    8 1    
     5    5    6 ar   
     6    5    7 ar   
     7    5    8 1    
     8    5   12 1    
     9    9   10 ar   
    10    9   11 ar   
    11    9   12 1    
    12    9   13 1    
    13   13   14 1    
    14   14   15 1    
    15   15   16 1    
    16   15   17 1    
    17   16   21 1    
    18   17   18 1    
    19   17   19 1    
    20   19   20 1    
    21   19   21 1    
    22   21   22 1    
    23   22   23 1    
    24   22   31 1    
    25   23   24 2    
    26   24   25 1    
    27   25   26 ar   
    28   25   31 ar   
    29   26   27 1    
    30   26   28 ar   
    31   28   29 ar   
    32   29   30 ar   
    33   30   31 ar   
@<TRIPOS>SUBSTRUCTURE
     1 ATP401      1 GROUP   
@<TRIPOS>SET
ATOM$ORANGE STATIC     ATOMS   COLORGROUP SYSTEM 
20 14 14 15 15 17 17 19 19 21 21 23 23 25 25 26 26 29 \
29 31 31 

