#    Name: 6olm_5_ATP
#    Modification time : Fri May 22 19:36:55 2020

@<TRIPOS>MOLECULE
6olm_5_ATP
   31    33     1     0     1
SMALL
NO_CHARGES


@<TRIPOS>ATOM
      1 PG        162.3660  210.7170  186.6010 P.3       1 ATP401      0.0000 
      2 O1G       163.2430  210.3530  185.4330 O.co2     1 ATP401      0.0000 
      3 O2G       163.1970  211.0950  187.8060 O.co2     1 ATP401      0.0000 
      4 O3G       161.4770  209.5260  186.9530 O.co2     1 ATP401      0.0000 
      5 PB        160.1580  211.8170  185.0450 P.3       1 ATP401      0.0000 
      6 O1B       159.5290  210.4790  185.2930 O.co2     1 ATP401      0.0000 
      7 O2B       160.7520  211.8590  183.6510 O.co2     1 ATP401      0.0000 
      8 O3B       161.3810  212.0280  186.1790 O.3       1 ATP401      0.0000 
      9 PA        158.0010  213.1570  186.3660 P.3       1 ATP401      0.0000 
     10 O1A       158.7390  212.6400  187.6650 O.co2     1 ATP401      0.0000 
     11 O2A       156.8210  212.3560  186.0840 O.co2     1 ATP401      0.0000 
     12 O3A       159.0140  213.0470  185.1290 O.3       1 ATP401      0.0000 
     13 O5'       157.5590  214.7910  186.5610 O.3       1 ATP401      0.0000 
     14 C5'       158.6030  215.7160  186.4880 C.3       1 ATP401      0.0000 
     15 C4'       158.0300  217.1300  186.3110 C.3       1 ATP401      0.0000 
     16 O4'       157.4680  217.2100  185.1190 O.3       1 ATP401      0.0000 
     17 C3'       156.9400  217.3600  187.3240 C.3       1 ATP401      0.0000 
     18 O3'       156.9960  218.6150  187.8030 O.3       1 ATP401      0.0000 
     19 C2'       155.6450  217.1450  186.4880 C.3       1 ATP401      0.0000 
     20 O2'       154.5070  217.8230  187.1200 O.3       1 ATP401      0.0000 
     21 C1'       155.9660  217.7090  185.3780 C.3       1 ATP401      0.0000 
     22 N9        155.1170  217.3820  184.2250 N.pl3     1 ATP401      0.0000 
     23 C8        154.7540  216.1490  183.8070 C.2       1 ATP401      0.0000 
     24 N7        153.9950  216.2760  182.7250 N.2       1 ATP401      0.0000 
     25 C5        153.8870  217.6040  182.4570 C.ar      1 ATP401      0.0000 
     26 C6        153.2300  218.2890  181.4670 C.ar      1 ATP401      0.0000 
     27 N6        152.4150  217.8460  180.3550 N.pl3     1 ATP401      0.0000 
     28 N1        153.2890  219.6360  181.4300 N.ar      1 ATP401      0.0000 
     29 C2        153.9820  220.2970  182.3500 C.ar      1 ATP401      0.0000 
     30 N3        154.6370  219.6130  183.3350 N.ar      1 ATP401      0.0000 
     31 C4        154.5790  218.2700  183.3750 C.ar      1 ATP401      0.0000 
@<TRIPOS>BOND
     1    1    2 ar   
     2    1    3 ar   
     3    1    4 ar   
     4    1    8 1    
     5    5    6 ar   
     6    5    7 ar   
     7    5    8 1    
     8    5   12 1    
     9    9   10 ar   
    10    9   11 ar   
    11    9   12 1    
    12    9   13 1    
    13   13   14 1    
    14   14   15 1    
    15   15   16 1    
    16   15   17 1    
    17   16   21 1    
    18   17   18 1    
    19   17   19 1    
    20   19   20 1    
    21   19   21 1    
    22   21   22 1    
    23   22   23 1    
    24   22   31 1    
    25   23   24 2    
    26   24   25 1    
    27   25   26 ar   
    28   25   31 ar   
    29   26   27 1    
    30   26   28 ar   
    31   28   29 ar   
    32   29   30 ar   
    33   30   31 ar   
@<TRIPOS>SUBSTRUCTURE
     1 ATP401      1 GROUP   
@<TRIPOS>SET
ATOM$ORANGE STATIC     ATOMS   COLORGROUP SYSTEM 
20 14 14 15 15 17 17 19 19 21 21 23 23 25 25 26 26 29 \
29 31 31 

