#    Name: 6olm_4_ATP_CAVITY_N1_4
#    Modification time : Fri May 22 19:36:43 2020

@<TRIPOS>MOLECULE
6olm_4_ATP_CAVITY_N1_4
   58     0     3     0     0
SMALL
NO_CHARGES


@<TRIPOS>ATOM
      1 N         194.7200  224.8700  190.4600 N.am      1 ALA2        0.0000 
      2 N         195.7800  223.9600  189.9100 N.am      1 ALA2        0.0000 
      3 N         196.8400  223.0600  189.3600 N.am      1 ALA2        0.0000 
      4 N         194.5200  225.4600  189.0900 N.am      1 ALA2        0.0000 
      5 N         195.5800  224.5500  188.5400 N.am      1 ALA2        0.0000 
      6 N         197.8800  224.0900  189.6600 N.am      1 ALA2        0.0000 
      7 N         195.5600  226.5000  189.3900 N.am      1 ALA2        0.0000 
      8 N         196.6200  225.5900  188.8400 N.am      1 ALA2        0.0000 
      9 N         197.6800  224.6900  188.3000 N.am      1 ALA2        0.0000 
     10 N         198.5500  224.3700  186.3900 N.am      1 ALA2        0.0000 
     11 N         198.3500  224.9600  185.0200 N.am      1 ALA2        0.0000 
     12 N         198.9200  225.1300  189.9600 N.am      1 ALA2        0.0000 
     13 N         199.9900  224.2300  189.4100 N.am      1 ALA2        0.0000 
     14 N         201.0500  223.3200  188.8700 N.am      1 ALA2        0.0000 
     15 O         195.5300  228.4400  190.2400 O.2       1 ALA2        0.0000 
     16 N         196.6000  227.5400  189.6900 N.am      1 ALA2        0.0000 
     17 N         197.6600  226.6300  189.1400 N.am      1 ALA2        0.0000 
     18 N         198.7200  225.7200  188.6000 N.am      1 ALA2        0.0000 
     19 N         199.5900  225.4100  186.6800 N.am      1 ALA2        0.0000 
     20 N         200.6500  224.5000  186.1400 N.am      1 ALA2        0.0000 
     21 N         199.9600  226.1700  190.2600 N.am      1 ALA2        0.0000 
     22 N         199.7600  226.7600  188.8900 N.am      1 ALA2        0.0000 
     23 CA        192.6400  222.7900  189.8600 C.3       2 GLY6        0.0000 
     24 CA        193.6800  223.8300  190.1600 C.3       2 GLY6        0.0000 
     25 CA        194.7400  222.9200  189.6100 C.3       2 GLY6        0.0000 
     26 CA        193.4800  224.4200  188.7900 C.3       2 GLY6        0.0000 
     27 CA        194.5400  223.5100  188.2500 C.3       2 GLY6        0.0000 
     28 CA        197.7100  222.7400  187.4500 C.3       2 GLY6        0.0000 
     29 CA        193.2600  226.9500  188.2700 C.3       2 GLY6        0.0000 
     30 CA        194.3200  226.0500  187.7300 C.3       2 GLY6        0.0000 
     31 CA        195.3800  225.1400  187.1800 C.3       2 GLY6        0.0000 
     32 CA        196.4500  224.2400  186.6300 C.3       2 GLY6        0.0000 
     33 CA        198.9500  223.1900  189.1100 C.3       2 GLY6        0.0000 
     34 CA        200.0100  222.2800  188.5700 C.3       2 GLY6        0.0000 
     35 CA        199.8100  222.8700  187.2000 C.3       2 GLY6        0.0000 
     36 CA        200.8700  221.9700  186.6600 C.3       2 GLY6        0.0000 
     37 CA        194.3000  227.9900  188.5700 C.3       2 GLY6        0.0000 
     38 CA        195.3600  227.0900  188.0300 C.3       2 GLY6        0.0000 
     39 CA        196.4200  226.1800  187.4800 C.3       2 GLY6        0.0000 
     40 CA        194.1000  228.5800  187.2100 C.3       2 GLY6        0.0000 
     41 CA        197.2900  225.8700  185.5700 C.3       2 GLY6        0.0000 
     42 CA        193.7000  229.7700  184.4800 C.3       2 GLY6        0.0000 
     43 CA        200.8500  223.9100  187.5000 C.3       2 GLY6        0.0000 
     44 CA        201.9100  223.0100  186.9600 C.3       2 GLY6        0.0000 
     45 CA        195.3400  229.0300  188.8700 C.3       2 GLY6        0.0000 
     46 CA        194.5400  231.4000  183.4100 C.3       2 GLY6        0.0000 
     47 CA        200.8300  225.8600  188.3500 C.3       2 GLY6        0.0000 
     48 CA        200.6300  226.4500  186.9800 C.3       2 GLY6        0.0000 
     49 CA        201.6900  225.5400  186.4400 C.3       2 GLY6        0.0000 
     50 CA        200.8000  227.8000  189.1900 C.3       2 GLY6        0.0000 
     51 CA        201.6700  227.4900  187.2800 C.3       2 GLY6        0.0000 
     52 DU        195.8000  222.0200  189.0600 H         3 CUB7        0.0000 
     53 DU        196.6400  223.6500  188.0000 H         3 CUB7        0.0000 
     54 DU        198.7500  223.7800  187.7500 H         3 CUB7        0.0000 
     55 DU        197.4900  225.2800  186.9300 H         3 CUB7        0.0000 
     56 DU        199.7900  224.8200  188.0500 H         3 CUB7        0.0000 
     57 DU        197.4600  227.2200  187.7800 H         3 CUB7        0.0000 
     58 DU        198.5300  226.3200  187.2300 H         3 CUB7        0.0000 
@<TRIPOS>BOND
@<TRIPOS>SUBSTRUCTURE
     1 ALA2        1 GROUP   
     2 GLY6       23 GROUP   
     3 CUB7       52 GROUP   
@<TRIPOS>SET

