#    Name: 6olm_4_ATP
#    Modification time : Fri May 22 19:36:42 2020

@<TRIPOS>MOLECULE
6olm_4_ATP
   31    33     1     0     1
SMALL
NO_CHARGES


@<TRIPOS>ATOM
      1 PG        195.7280  218.2790  186.6010 P.3       1 ATP401      0.0000 
      2 O1G       195.8540  217.3390  185.4330 O.co2     1 ATP401      0.0000 
      3 O2G       196.4720  217.7500  187.8060 O.co2     1 ATP401      0.0000 
      4 O3G       194.2510  218.4500  186.9530 O.co2     1 ATP401      0.0000 
      5 PB        195.5720  220.7430  185.0460 P.3       1 ATP401      0.0000 
      6 O1B       194.0990  220.6180  185.2960 O.co2     1 ATP401      0.0000 
      7 O2B       195.9030  220.2490  183.6530 O.co2     1 ATP401      0.0000 
      8 O3B       196.3670  219.7900  186.1810 O.3       1 ATP401      0.0000 
      9 PA        195.6550  223.2820  186.3660 P.3       1 ATP401      0.0000 
     10 O1A       195.5740  222.3830  187.6640 O.co2     1 ATP401      0.0000 
     11 O2A       194.3720  223.9050  186.0840 O.co2     1 ATP401      0.0000 
     12 O3A       196.0640  222.3490  185.1290 O.3       1 ATP401      0.0000 
     13 O5'       196.8500  224.4800  186.5610 O.3       1 ATP401      0.0000 
     14 C5'       198.1730  224.0370  186.4880 C.3       1 ATP401      0.0000 
     15 C4'       199.1150  225.2380  186.3130 C.3       1 ATP401      0.0000 
     16 O4'       198.9070  225.7660  185.1210 O.3       1 ATP401      0.0000 
     17 C3'       198.7690  226.2980  187.3260 C.3       1 ATP401      0.0000 
     18 O3'       199.8840  226.8780  187.8050 O.3       1 ATP401      0.0000 
     19 C2'       197.9350  227.3110  186.4900 C.3       1 ATP401      0.0000 
     20 O2'       197.9530  228.6370  187.1220 O.3       1 ATP401      0.0000 
     21 C1'       198.5840  227.3160  185.3800 C.3       1 ATP401      0.0000 
     22 N9        197.8770  227.8870  184.2270 N.pl3     1 ATP401      0.0000 
     23 C8        196.6270  227.5870  183.8100 C.2       1 ATP401      0.0000 
     24 N7        196.3570  228.3060  182.7280 N.2       1 ATP401      0.0000 
     25 C5        197.4530  229.0610  182.4580 C.ar      1 ATP401      0.0000 
     26 C6        197.7180  229.9710  181.4660 C.ar      1 ATP401      0.0000 
     27 N6        196.9250  230.4540  180.3540 N.pl3     1 ATP401      0.0000 
     28 N1        198.9150  230.5910  181.4260 N.ar      1 ATP401      0.0000 
     29 C2        199.8340  230.3220  182.3460 C.ar      1 ATP401      0.0000 
     30 N3        199.5690  229.4150  183.3330 N.ar      1 ATP401      0.0000 
     31 C4        198.3770  228.7950  183.3750 C.ar      1 ATP401      0.0000 
@<TRIPOS>BOND
     1    1    2 ar   
     2    1    3 ar   
     3    1    4 ar   
     4    1    8 1    
     5    5    6 ar   
     6    5    7 ar   
     7    5    8 1    
     8    5   12 1    
     9    9   10 ar   
    10    9   11 ar   
    11    9   12 1    
    12    9   13 1    
    13   13   14 1    
    14   14   15 1    
    15   15   16 1    
    16   15   17 1    
    17   16   21 1    
    18   17   18 1    
    19   17   19 1    
    20   19   20 1    
    21   19   21 1    
    22   21   22 1    
    23   22   23 1    
    24   22   31 1    
    25   23   24 2    
    26   24   25 1    
    27   25   26 ar   
    28   25   31 ar   
    29   26   27 1    
    30   26   28 ar   
    31   28   29 ar   
    32   29   30 ar   
    33   30   31 ar   
@<TRIPOS>SUBSTRUCTURE
     1 ATP401      1 GROUP   
@<TRIPOS>SET
ATOM$ORANGE STATIC     ATOMS   COLORGROUP SYSTEM 
20 14 14 15 15 17 17 19 19 21 21 23 23 25 25 26 26 29 \
29 31 31 

