#    Name: 6olm_3_ATP_CAVITY_N1_4
#    Modification time : Fri May 22 19:36:29 2020

@<TRIPOS>MOLECULE
6olm_3_ATP_CAVITY_N1_4
   45     0     3     0     0
SMALL
NO_CHARGES


@<TRIPOS>ATOM
      1 N         219.3400  189.6200  189.7600 N.am      1 ALA2        0.0000 
      2 O         221.2500  190.3400  188.1500 O.2       1 ALA2        0.0000 
      3 N         226.3200  190.2900  185.7400 N.am      1 ALA2        0.0000 
      4 N         225.6300  191.9600  189.8600 N.am      1 ALA2        0.0000 
      5 N         225.2300  193.1400  187.1300 N.am      1 ALA2        0.0000 
      6 N         226.2900  192.2400  186.5800 N.am      1 ALA2        0.0000 
      7 N         228.2200  191.0200  184.1300 N.am      1 ALA2        0.0000 
      8 N         226.6700  193.0000  190.1600 N.am      1 ALA2        0.0000 
      9 N         226.4700  193.5900  188.7900 N.am      1 ALA2        0.0000 
     10 N         227.5300  192.6900  188.2500 N.am      1 ALA2        0.0000 
     11 N         228.7700  193.1400  189.9100 N.am      1 ALA2        0.0000 
     12 N         230.8700  193.2700  189.6600 N.am      1 ALA2        0.0000 
     13 N         231.7400  192.9500  187.7500 N.am      1 ALA2        0.0000 
     14 CA        217.2200  191.4300  190.8500 C.3       2 GLY6        0.0000 
     15 CA        218.2800  190.5200  190.3000 C.3       2 GLY6        0.0000 
     16 CA        220.2100  189.3000  187.8500 C.3       2 GLY6        0.0000 
     17 CA        219.3000  193.5100  191.4500 C.3       2 GLY6        0.0000 
     18 CA        220.3600  192.6000  190.9000 C.3       2 GLY6        0.0000 
     19 CA        221.4200  191.7000  190.3600 C.3       2 GLY6        0.0000 
     20 CA        222.2900  191.3800  188.4400 C.3       2 GLY6        0.0000 
     21 CA        222.2600  193.3300  189.2900 C.3       2 GLY6        0.0000 
     22 CA        223.3300  192.4200  188.7400 C.3       2 GLY6        0.0000 
     23 CA        224.3900  191.5100  188.2000 C.3       2 GLY6        0.0000 
     24 CA        225.4500  190.6100  187.6500 C.3       2 GLY6        0.0000 
     25 CA        224.3700  193.4600  189.0400 C.3       2 GLY6        0.0000 
     26 CA        226.4900  191.6500  187.9500 C.3       2 GLY6        0.0000 
     27 CA        228.4200  190.4300  185.4900 C.3       2 GLY6        0.0000 
     28 CA        228.0200  191.6100  182.7600 C.3       2 GLY6        0.0000 
     29 CA        230.1300  191.7400  182.5100 C.3       2 GLY6        0.0000 
     30 CA        227.7100  194.0400  190.4600 C.3       2 GLY6        0.0000 
     31 CA        230.7000  191.9100  187.4500 C.3       2 GLY6        0.0000 
     32 CA        230.5000  192.5100  186.0900 C.3       2 GLY6        0.0000 
     33 CA        229.8100  194.1800  190.2100 C.3       2 GLY6        0.0000 
     34 CA        230.6700  193.8600  188.3000 C.3       2 GLY6        0.0000 
     35 DU        218.2600  192.4700  191.1500 H         3 CUB7        0.0000 
     36 DU        219.3200  191.5600  190.6000 H         3 CUB7        0.0000 
     37 DU        220.3800  190.6600  190.0600 H         3 CUB7        0.0000 
     38 DU        221.4500  189.7500  189.5100 H         3 CUB7        0.0000 
     39 DU        220.1800  191.2500  188.6900 H         3 CUB7        0.0000 
     40 DU        218.0300  195.0000  190.6300 H         3 CUB7        0.0000 
     41 DU        221.2200  192.2900  188.9900 H         3 CUB7        0.0000 
     42 DU        225.4300  192.5500  188.5000 H         3 CUB7        0.0000 
     43 DU        227.3300  193.2800  186.8800 H         3 CUB7        0.0000 
     44 DU        229.4400  193.4100  186.6400 H         3 CUB7        0.0000 
     45 DU        229.6100  194.7700  188.8500 H         3 CUB7        0.0000 
@<TRIPOS>BOND
@<TRIPOS>SUBSTRUCTURE
     1 ALA2        1 GROUP   
     2 GLY6       14 GROUP   
     3 CUB7       35 GROUP   
@<TRIPOS>SET

