#    Name: 6olm_5_ATP_CAVITY_N1_4
#    Modification time : Fri May 22 19:36:56 2020

@<TRIPOS>MOLECULE
6olm_5_ATP_CAVITY_N1_4
   35     0     3     0     0
SMALL
NO_CHARGES


@<TRIPOS>ATOM
      1 O         162.0600  212.6900  188.2800 O.2       1 ALA2        0.0000 
      2 N         158.4700  216.5900  187.1900 N.am      1 ALA2        0.0000 
      3 O         163.1000  213.7300  188.5800 O.2       1 ALA2        0.0000 
      4 N         158.6500  217.9400  189.4000 N.am      1 ALA2        0.0000 
      5 N         159.7100  217.0400  188.8500 N.am      1 ALA2        0.0000 
      6 N         159.5100  217.6300  187.4900 N.am      1 ALA2        0.0000 
      7 N         159.1200  218.8100  184.7600 N.am      1 ALA2        0.0000 
      8 N         165.4000  213.2700  189.7000 N.am      1 ALA2        0.0000 
      9 N         165.2000  213.8600  188.3300 N.am      1 ALA2        0.0000 
     10 N         161.6200  217.7600  187.2400 N.am      1 ALA2        0.0000 
     11 N         161.4200  218.3500  185.8800 N.am      1 ALA2        0.0000 
     12 N         160.1600  219.8500  185.0600 N.am      1 ALA2        0.0000 
     13 CA        159.3400  208.3900  190.1100 C.3       2 GLY6        0.0000 
     14 CA        161.4200  210.4700  190.7100 C.3       2 GLY6        0.0000 
     15 CA        162.4600  211.5100  191.0100 C.3       2 GLY6        0.0000 
     16 CA        163.5000  212.5500  191.3100 C.3       2 GLY6        0.0000 
     17 CA        164.5600  211.6400  190.7600 C.3       2 GLY6        0.0000 
     18 CA        165.6200  210.7400  190.2100 C.3       2 GLY6        0.0000 
     19 CA        163.3000  213.1400  189.9400 C.3       2 GLY6        0.0000 
     20 CA        160.9700  215.5400  189.6700 C.3       2 GLY6        0.0000 
     21 CA        162.0400  214.6400  189.1200 C.3       2 GLY6        0.0000 
     22 CA        164.1600  212.8200  188.0300 C.3       2 GLY6        0.0000 
     23 CA        165.2300  211.9200  187.4900 C.3       2 GLY6        0.0000 
     24 CA        160.7700  216.1300  188.3100 C.3       2 GLY6        0.0000 
     25 CA        161.8400  215.2300  187.7600 C.3       2 GLY6        0.0000 
     26 CA        158.4500  218.5400  188.0400 C.3       2 GLY6        0.0000 
     27 CA        158.9200  219.4000  183.4000 C.3       2 GLY6        0.0000 
     28 CA        160.5500  218.6700  187.7900 C.3       2 GLY6        0.0000 
     29 CA        160.3500  219.2600  186.4200 C.3       2 GLY6        0.0000 
     30 DU        161.4400  208.5200  189.8600 H         3 CUB7        0.0000 
     31 DU        163.5200  210.6000  190.4600 H         3 CUB7        0.0000 
     32 DU        164.5800  209.7000  189.9200 H         3 CUB7        0.0000 
     33 DU        162.2600  212.1000  189.6400 H         3 CUB7        0.0000 
     34 DU        164.3600  212.2300  189.4000 H         3 CUB7        0.0000 
     35 DU        164.1400  214.7700  188.8800 H         3 CUB7        0.0000 
@<TRIPOS>BOND
@<TRIPOS>SUBSTRUCTURE
     1 ALA2        1 GROUP   
     2 GLY6       13 GROUP   
     3 CUB7       30 GROUP   
@<TRIPOS>SET

