#    Name: 5ux4_2_3UT
#    Modification time : Fri May 22 19:12:18 2020

@<TRIPOS>MOLECULE
5ux4_2_3UT
   33    38     1     0     0
SMALL
NO_CHARGES


@<TRIPOS>ATOM
      1 C28        41.1650    2.9750   17.9670           1 3UT403      0.0000 
      2 O29        40.2870    1.7300   18.3870           1 3UT403      0.0000 
      3 C30        40.3800    0.7710   17.5300           1 3UT403      0.0000 
      4 C31        39.8720    1.1200   16.0150           1 3UT403      0.0000 
      5 C32        40.3290    2.3440   15.6020           1 3UT403      0.0000 
      6 C20        41.1630    3.2120   16.5370           1 3UT403      0.0000 
      7 C13        41.7140    4.4860   15.9480           1 3UT403      0.0000 
      8 C14        41.9750    5.5960   16.7390           1 3UT403      0.0000 
      9 N12        41.9080    4.4960   14.6510           1 3UT403      0.0000 
     10 C11        42.3780    5.5520   14.0080           1 3UT403      0.0000 
     11 F33        42.5910    5.5550   12.6410           1 3UT403      0.0000 
     12 C8         42.6780    6.7250   14.7700           1 3UT403      0.0000 
     13 O7         43.1870    7.8440   14.0060           1 3UT403      0.0000 
     14 C9         42.4780    6.7660   16.1360           1 3UT403      0.0000 
     15 C10        42.8190    8.0230   16.9790           1 3UT403      0.0000 
     16 C15        41.5700    8.5970   17.6290           1 3UT403      0.0000 
     17 O16        41.6550    8.4280   19.0570           1 3UT403      0.0000 
     18 C17        42.9410    7.7620   19.3170           1 3UT403      0.0000 
     19 N18        43.5910    7.5960   18.0050           1 3UT403      0.0000 
     20 N19        43.5320    7.3630   20.5940           1 3UT403      0.0000 
     21 C5         43.5410    9.0220   16.1610           1 3UT403      0.0000 
     22 C6         44.0700   10.0750   16.8810           1 3UT403      0.0000 
     23 C4         43.7180    8.9300   14.7980           1 3UT403      0.0000 
     24 C3         44.4530    9.9050   14.0940           1 3UT403      0.0000 
     25 C2         44.9770   10.9480   14.8120           1 3UT403      0.0000 
     26 C1         44.7980   11.0470   16.1900           1 3UT403      0.0000 
     27 C21        45.3610   12.1280   16.8280           1 3UT403      0.0000 
     28 C26        44.9420   13.4010   16.5080           1 3UT403      0.0000 
     29 C25        45.5340   14.4700   17.1310           1 3UT403      0.0000 
     30 C24        46.5350   14.2090   18.0470           1 3UT403      0.0000 
     31 N23        46.9250   12.9780   18.3260           1 3UT403      0.0000 
     32 C22        46.3720   11.9420   17.7370           1 3UT403      0.0000 
     33 F27        46.7790   10.6720   18.0370           1 3UT403      0.0000 
@<TRIPOS>BOND
     1    1    2 du   
     2    1    6 du   
     3    2    3 du   
     4    3    4 du   
     5    4    5 du   
     6    5    6 du   
     7    6    7 du   
     8    7    8 du   
     9    7    9 du   
    10    8   14 du   
    11    9   10 du   
    12   10   11 du   
    13   10   12 du   
    14   12   13 du   
    15   12   14 du   
    16   13   23 du   
    17   14   15 du   
    18   15   16 du   
    19   15   19 du   
    20   15   21 du   
    21   16   17 du   
    22   17   18 du   
    23   18   19 du   
    24   18   20 du   
    25   21   22 du   
    26   21   23 du   
    27   22   26 du   
    28   23   24 du   
    29   24   25 du   
    30   25   26 du   
    31   26   27 du   
    32   27   28 du   
    33   27   32 du   
    34   28   29 du   
    35   29   30 du   
    36   30   31 du   
    37   31   32 du   
    38   32   33 du   
@<TRIPOS>SUBSTRUCTURE
     1 3UT403      1 GROUP   
@<TRIPOS>SET

