#    Name: 5ux4_1_3UT
#    Modification time : Fri May 22 19:12:13 2020

@<TRIPOS>MOLECULE
5ux4_1_3UT
   33    38     1     0     0
SMALL
NO_CHARGES


@<TRIPOS>ATOM
      1 C28        23.1340   -3.0410   23.9470           1 3UT404      0.0000 
      2 O29        23.7200   -1.6770   24.4920           1 3UT404      0.0000 
      3 C30        23.2540   -0.6620   23.8370           1 3UT404      0.0000 
      4 C31        23.5820   -0.6540   22.2290           1 3UT404      0.0000 
      5 C32        23.2630   -1.8640   21.6680           1 3UT404      0.0000 
      6 C20        22.7420   -2.9880   22.5530           1 3UT404      0.0000 
      7 C13        22.3890   -4.2580   21.8260           1 3UT404      0.0000 
      8 C14        21.9290   -5.3780   22.5090           1 3UT404      0.0000 
      9 N12        22.5340   -4.2490   20.5210           1 3UT404      0.0000 
     10 C11        22.2530   -5.2990   19.7670           1 3UT404      0.0000 
     11 F33        22.4010   -5.3130   18.3920           1 3UT404      0.0000 
     12 C8         21.7710   -6.4760   20.4110           1 3UT404      0.0000 
     13 O7         21.4910   -7.5720   19.5130           1 3UT404      0.0000 
     14 C9         21.5960   -6.5410   21.7790           1 3UT404      0.0000 
     15 C10        21.0650   -7.8310   22.4730           1 3UT404      0.0000 
     16 C15        22.2150   -8.4380   23.2490           1 3UT404      0.0000 
     17 O16        21.8910   -8.4820   24.6490           1 3UT404      0.0000 
     18 C17        20.5350   -7.9180   24.7660           1 3UT404      0.0000 
     19 N18        20.1080   -7.5590   23.3970           1 3UT404      0.0000 
     20 N19        19.7420   -7.7290   25.9800           1 3UT404      0.0000 
     21 C5         20.6150   -8.8240   21.4700           1 3UT404      0.0000 
     22 C6         19.9610   -9.9290   21.9840           1 3UT404      0.0000 
     23 C4         20.8150   -8.6960   20.1140           1 3UT404      0.0000 
     24 C3         20.3520   -9.6650   19.1990           1 3UT404      0.0000 
     25 C2         19.7010  -10.7500   19.7180           1 3UT404      0.0000 
     26 C1         19.4950  -10.8970   21.0850           1 3UT404      0.0000 
     27 C21        18.8320  -12.0380   21.4700           1 3UT404      0.0000 
     28 C26        19.3460  -13.2460   21.0510           1 3UT404      0.0000 
     29 C25        18.6910  -14.4040   21.3870           1 3UT404      0.0000 
     30 C24        17.5300  -14.2860   22.1260           1 3UT404      0.0000 
     31 N23        17.0530  -13.1150   22.5040           1 3UT404      0.0000 
     32 C22        17.6620  -11.9960   22.1910           1 3UT404      0.0000 
     33 F27        17.1450  -10.8000   22.5970           1 3UT404      0.0000 
@<TRIPOS>BOND
     1    1    2 du   
     2    1    6 du   
     3    2    3 du   
     4    3    4 du   
     5    4    5 du   
     6    5    6 du   
     7    6    7 du   
     8    7    8 du   
     9    7    9 du   
    10    8   14 du   
    11    9   10 du   
    12   10   11 du   
    13   10   12 du   
    14   12   13 du   
    15   12   14 du   
    16   13   23 du   
    17   14   15 du   
    18   15   16 du   
    19   15   19 du   
    20   15   21 du   
    21   16   17 du   
    22   17   18 du   
    23   18   19 du   
    24   18   20 du   
    25   21   22 du   
    26   21   23 du   
    27   22   26 du   
    28   23   24 du   
    29   24   25 du   
    30   25   26 du   
    31   26   27 du   
    32   27   28 du   
    33   27   32 du   
    34   28   29 du   
    35   29   30 du   
    36   30   31 du   
    37   31   32 du   
    38   32   33 du   
@<TRIPOS>SUBSTRUCTURE
     1 3UT404      1 GROUP   
@<TRIPOS>SET

