#    Name: 6ppk_1_GNP
#    Modification time : Fri May 22 19:32:46 2020

@<TRIPOS>MOLECULE
6ppk_1_GNP
   32    34     1     0     1
SMALL
NO_CHARGES


@<TRIPOS>ATOM
      1 PG        206.9540  140.4480  177.4090 P.3       1 GNP301      0.0000 
      2 O1G       207.1210  141.7370  178.1170 O.co2     1 GNP301      0.0000 
      3 O2G       205.6210  140.4990  176.5080 O.co2     1 GNP301      0.0000 
      4 O3G       206.8300  139.2570  178.4850 O.co2     1 GNP301      0.0000 
      5 N3B       208.3420  140.1630  176.3820 N.3       1 GNP301      0.0000 
      6 PB        208.5790  138.5940  175.6460 P.3       1 GNP301      0.0000 
      7 O1B       209.1550  137.6630  176.6430 O.co2     1 GNP301      0.0000 
      8 O2B       207.1640  138.0220  175.1330 O.co2     1 GNP301      0.0000 
      9 O3A       209.5840  138.7330  174.3960 O.3       1 GNP301      0.0000 
     10 PA        209.0160  138.7330  172.8900 P.3       1 GNP301      0.0000 
     11 O1A       208.1440  137.5130  172.7140 O.co2     1 GNP301      0.0000 
     12 O2A       208.4580  140.1060  172.5960 O.co2     1 GNP301      0.0000 
     13 O5'       210.3490  138.5320  172.0100 O.3       1 GNP301      0.0000 
     14 C5'       211.4180  139.4710  172.0920 C.3       1 GNP301      0.0000 
     15 C4'       212.0360  139.6560  170.7120 C.3       1 GNP301      0.0000 
     16 O4'       212.9650  138.6000  170.4530 O.3       1 GNP301      0.0000 
     17 C3'       210.9740  139.6230  169.6240 C.3       1 GNP301      0.0000 
     18 O3'       210.9140  140.8950  168.9660 O.3       1 GNP301      0.0000 
     19 C2'       211.3670  138.4910  168.6840 C.3       1 GNP301      0.0000 
     20 O2'       211.5830  138.9360  167.3380 O.3       1 GNP301      0.0000 
     21 C1'       212.6540  137.9040  169.2430 C.3       1 GNP301      0.0000 
     22 N9        212.4660  136.4590  169.5260 N.pl3     1 GNP301      0.0000 
     23 C8        211.5820  135.9340  170.3960 C.2       1 GNP301      0.0000 
     24 N7        211.6630  134.5790  170.4180 N.2       1 GNP301      0.0000 
     25 C5        212.6200  134.2170  169.5440 C.2       1 GNP301      0.0000 
     26 C6        213.2150  132.9430  169.0770 C.2       1 GNP301      0.0000 
     27 O6        212.8220  131.8450  169.5270 O.2       1 GNP301      0.0000 
     28 N1        214.1880  133.0030  168.1580 N.am      1 GNP301      0.0000 
     29 C2        214.6320  134.1700  167.6550 C.2       1 GNP301      0.0000 
     30 N2        215.6200  134.1430  166.7280 N.pl3     1 GNP301      0.0000 
     31 N3        214.1330  135.3740  168.0370 N.2       1 GNP301      0.0000 
     32 C4        213.1460  135.4590  168.9590 C.2       1 GNP301      0.0000 
@<TRIPOS>BOND
     1    1    2 ar   
     2    1    3 ar   
     3    1    4 ar   
     4    1    5 1    
     5    5    6 1    
     6    6    7 ar   
     7    6    8 ar   
     8    6    9 1    
     9    9   10 1    
    10   10   11 ar   
    11   10   12 ar   
    12   10   13 1    
    13   13   14 1    
    14   14   15 1    
    15   15   16 1    
    16   15   17 1    
    17   16   21 1    
    18   17   18 1    
    19   17   19 1    
    20   19   20 1    
    21   19   21 1    
    22   21   22 1    
    23   22   23 1    
    24   22   32 1    
    25   23   24 2    
    26   24   25 1    
    27   25   26 1    
    28   25   32 2    
    29   26   27 2    
    30   26   28 am   
    31   28   29 1    
    32   29   30 1    
    33   29   31 2    
    34   31   32 1    
@<TRIPOS>SUBSTRUCTURE
     1 GNP301      1 GROUP   
@<TRIPOS>SET
ATOM$ORANGE STATIC     ATOMS   COLORGROUP SYSTEM 
20 14 14 15 15 17 17 19 19 21 21 23 23 25 25 26 26 29 \
29 32 32 

