#    Name: 6f97_2_FAD
#    Modification time : Fri May 22 19:24:34 2020

@<TRIPOS>MOLECULE
6f97_2_FAD
   53    58     1     0     1
SMALL
NO_CHARGES


@<TRIPOS>ATOM
      1 PA         36.5960   65.6930   69.2690 P.3       1 FAD700      0.0000 
      2 O1A        35.8610   65.1950   70.4850 O.co2     1 FAD700      0.0000 
      3 O2A        38.0120   65.1080   69.0730 O.co2     1 FAD700      0.0000 
      4 O5B        36.7090   67.2520   69.1980 O.3       1 FAD700      0.0000 
      5 C5B        35.6630   68.1580   69.4780 C.3       1 FAD700      0.0000 
      6 C4B        36.2900   69.3760   70.1280 C.3       1 FAD700      0.0000 
      7 O4B        35.3540   70.4290   70.0920 O.3       1 FAD700      0.0000 
      8 C3B        36.6530   69.1860   71.5900 C.3       1 FAD700      0.0000 
      9 O3B        38.0000   69.5950   71.8050 O.3       1 FAD700      0.0000 
     10 C2B        35.7040   70.0980   72.3500 C.3       1 FAD700      0.0000 
     11 O2B        36.2810   70.6670   73.4980 O.3       1 FAD700      0.0000 
     12 C1B        35.4360   71.1360   71.2970 C.3       1 FAD700      0.0000 
     13 N9A        34.1970   71.8840   71.4250 N.pl3     1 FAD700      0.0000 
     14 C8A        32.9660   71.3650   71.5350 C.2       1 FAD700      0.0000 
     15 N7A        32.0220   72.3720   71.5760 N.2       1 FAD700      0.0000 
     16 C5A        32.6660   73.5830   71.4640 C.ar      1 FAD700      0.0000 
     17 C6A        32.3180   74.9290   71.4600 C.ar      1 FAD700      0.0000 
     18 N6A        31.0090   75.3650   71.5550 N.pl3     1 FAD700      0.0000 
     19 N1A        33.3420   75.8500   71.2560 N.ar      1 FAD700      0.0000 
     20 C2A        34.6370   75.5070   71.1630 C.ar      1 FAD700      0.0000 
     21 N3A        35.0220   74.2110   71.2090 N.ar      1 FAD700      0.0000 
     22 C4A        34.1120   73.2300   71.3340 C.ar      1 FAD700      0.0000 
     23 N1         39.1970   56.5690   69.0360 N.2       1 FAD700      0.0000 
     24 C2         40.2070   55.7750   68.5440 C.2       1 FAD700      0.0000 
     25 O2         40.3220   55.6000   67.2940 O.2       1 FAD700      0.0000 
     26 N3         41.0820   55.1630   69.3590 N.am      1 FAD700      0.0000 
     27 C4         40.9850   55.3330   70.7110 C.2       1 FAD700      0.0000 
     28 O4         41.7840   54.7380   71.4710 O.2       1 FAD700      0.0000 
     29 C4X        39.9610   56.1240   71.2560 C.2       1 FAD700      0.0000 
     30 N5         39.8260   56.2200   72.5850 N.2       1 FAD700      0.0000 
     31 C5X        38.9700   57.1220   73.1450 C.ar      1 FAD700      0.0000 
     32 C6         38.9410   57.3600   74.5230 C.ar      1 FAD700      0.0000 
     33 C7         38.0740   58.3120   75.0820 C.ar      1 FAD700      0.0000 
     34 C7M        38.0730   58.5220   76.5810 C.3       1 FAD700      0.0000 
     35 C8         37.2550   59.0560   74.2410 C.ar      1 FAD700      0.0000 
     36 C8M        36.2980   60.1100   74.7220 C.3       1 FAD700      0.0000 
     37 C9         37.2450   58.8390   72.8700 C.ar      1 FAD700      0.0000 
     38 C9A        38.0650   57.8890   72.2780 C.ar      1 FAD700      0.0000 
     39 N10        38.0790   57.5900   70.8870 N.pl3     1 FAD700      0.0000 
     40 C10        38.9990   56.6720   70.3840 C.2       1 FAD700      0.0000 
     41 C1'        37.2180   58.3130   69.9440 C.3       1 FAD700      0.0000 
     42 C2'        37.8810   59.4400   69.1760 C.3       1 FAD700      0.0000 
     43 O2'        38.7130   60.1350   70.1100 O.3       1 FAD700      0.0000 
     44 C3'        36.7720   60.3240   68.6420 C.3       1 FAD700      0.0000 
     45 O3'        35.7900   59.6130   67.8370 O.3       1 FAD700      0.0000 
     46 C4'        37.3830   61.4970   67.8780 C.3       1 FAD700      0.0000 
     47 O4'        38.1190   62.3680   68.7620 O.3       1 FAD700      0.0000 
     48 C5'        36.2680   62.3610   67.2940 C.3       1 FAD700      0.0000 
     49 O5'        36.8960   63.5180   66.7430 O.3       1 FAD700      0.0000 
     50 P          36.0000   64.8300   66.5800 P.3       1 FAD700      0.0000 
     51 O1P        36.9310   65.8410   65.9700 O.co2     1 FAD700      0.0000 
     52 O2P        34.7080   64.4770   65.9280 O.co2     1 FAD700      0.0000 
     53 O3P        35.6160   65.3190   68.0660 O.3       1 FAD700      0.0000 
@<TRIPOS>BOND
     1    1    2 ar   
     2    1    3 ar   
     3    1    4 1    
     4    1   53 1    
     5    4    5 1    
     6    5    6 1    
     7    6    7 1    
     8    6    8 1    
     9    7   12 1    
    10    8    9 1    
    11    8   10 1    
    12   10   11 1    
    13   10   12 1    
    14   12   13 1    
    15   13   14 1    
    16   13   22 1    
    17   14   15 2    
    18   15   16 1    
    19   16   17 ar   
    20   16   22 ar   
    21   17   18 1    
    22   17   19 ar   
    23   19   20 ar   
    24   20   21 ar   
    25   21   22 ar   
    26   23   24 1    
    27   23   40 2    
    28   24   25 2    
    29   24   26 am   
    30   26   27 am   
    31   27   28 2    
    32   27   29 1    
    33   29   30 2    
    34   29   40 1    
    35   30   31 1    
    36   31   32 ar   
    37   31   38 ar   
    38   32   33 ar   
    39   33   34 1    
    40   33   35 ar   
    41   35   36 1    
    42   35   37 ar   
    43   37   38 ar   
    44   38   39 1    
    45   39   40 1    
    46   39   41 1    
    47   41   42 1    
    48   42   43 1    
    49   42   44 1    
    50   44   45 1    
    51   44   46 1    
    52   46   47 1    
    53   46   48 1    
    54   48   49 1    
    55   49   50 1    
    56   50   51 ar   
    57   50   52 ar   
    58   50   53 1    
@<TRIPOS>SUBSTRUCTURE
     1 FAD700      1 GROUP   
@<TRIPOS>SET
ATOM$ORANGE STATIC     ATOMS   COLORGROUP SYSTEM 
54 5 5 6 6 8 8 10 10 12 12 14 14 16 16 17 17 20 \
20 22 22 24 24 27 27 29 29 31 31 32 32 33 33 34 34 35 \
35 36 36 37 37 38 38 40 40 41 41 42 42 44 44 46 46 48 \
48 

