#    Name: 5zm0_1_FAD
#    Modification time : Fri May 22 19:31:24 2020

@<TRIPOS>MOLECULE
5zm0_1_FAD
   53    58     1     0     1
SMALL
NO_CHARGES


@<TRIPOS>ATOM
      1 PA         22.1570   14.9950   18.8240 P.3       1 FAD601      0.0000 
      2 O1A        22.2540   16.1850   19.6910 O.co2     1 FAD601      0.0000 
      3 O2A        22.5830   15.0740   17.4030 O.co2     1 FAD601      0.0000 
      4 O5B        22.8920   13.8280   19.6150 O.3       1 FAD601      0.0000 
      5 C5B        23.4420   12.6830   18.9390 C.3       1 FAD601      0.0000 
      6 C4B        22.9310   11.4090   19.5860 C.3       1 FAD601      0.0000 
      7 O4B        23.2680   11.3890   20.9900 O.3       1 FAD601      0.0000 
      8 C3B        21.4190   11.2260   19.5660 C.3       1 FAD601      0.0000 
      9 O3B        20.9470   10.7040   18.3420 O.3       1 FAD601      0.0000 
     10 C2B        21.1890   10.2860   20.7440 C.3       1 FAD601      0.0000 
     11 O2B        21.4720    8.9240   20.4010 O.3       1 FAD601      0.0000 
     12 C1B        22.2350   10.7930   21.7400 C.3       1 FAD601      0.0000 
     13 N9A        21.7050   11.7850   22.6720 N.pl3     1 FAD601      0.0000 
     14 C8A        21.5740   13.1230   22.4750 C.2       1 FAD601      0.0000 
     15 N7A        21.0390   13.7680   23.4940 N.2       1 FAD601      0.0000 
     16 C5A        20.7800   12.7680   24.4120 C.ar      1 FAD601      0.0000 
     17 C6A        20.2210   12.7850   25.7100 C.ar      1 FAD601      0.0000 
     18 N6A        19.8040   13.8890   26.3160 N.pl3     1 FAD601      0.0000 
     19 N1A        20.0940   11.5990   26.3530 N.ar      1 FAD601      0.0000 
     20 C2A        20.5050   10.4840   25.7350 C.ar      1 FAD601      0.0000 
     21 N3A        21.0760   10.3610   24.5340 N.ar      1 FAD601      0.0000 
     22 C4A        21.1810   11.5330   23.9220 C.ar      1 FAD601      0.0000 
     23 N1         16.4950   10.2350   23.0500 N.2       1 FAD601      0.0000 
     24 C2         16.2870    9.0610   22.3870 C.2       1 FAD601      0.0000 
     25 O2         17.0990    8.6360   21.5800 O.2       1 FAD601      0.0000 
     26 N3         15.1190    8.3440   22.6020 N.am      1 FAD601      0.0000 
     27 C4         14.1030    8.7210   23.4380 C.2       1 FAD601      0.0000 
     28 O4         13.1350    7.9710   23.5980 O.2       1 FAD601      0.0000 
     29 C4X        14.3300    9.9880   24.1140 C.2       1 FAD601      0.0000 
     30 N5         13.3920   10.4230   24.9390 N.2       1 FAD601      0.0000 
     31 C5X        13.5900   11.6570   25.5560 C.ar      1 FAD601      0.0000 
     32 C6         12.6090   12.1410   26.4280 C.ar      1 FAD601      0.0000 
     33 C7         12.7670   13.3690   27.0690 C.ar      1 FAD601      0.0000 
     34 C7M        11.6950   13.8550   28.0030 C.3       1 FAD601      0.0000 
     35 C8         13.9450   14.1050   26.8610 C.ar      1 FAD601      0.0000 
     36 C8M        14.1780   15.4130   27.5760 C.3       1 FAD601      0.0000 
     37 C9         14.9220   13.6120   26.0210 C.ar      1 FAD601      0.0000 
     38 C9A        14.7720   12.4010   25.3630 C.ar      1 FAD601      0.0000 
     39 N10        15.7440   11.8960   24.4590 N.pl3     1 FAD601      0.0000 
     40 C10        15.5600   10.6770   23.8480 C.2       1 FAD601      0.0000 
     41 C1'        17.0830   12.5210   24.3590 C.3       1 FAD601      0.0000 
     42 C2'        17.2720   13.5950   23.2960 C.3       1 FAD601      0.0000 
     43 O2'        16.3060   14.6120   23.3960 O.3       1 FAD601      0.0000 
     44 C3'        17.3870   12.9460   21.9180 C.3       1 FAD601      0.0000 
     45 O3'        18.3770   11.9210   21.9390 O.3       1 FAD601      0.0000 
     46 C4'        17.7630   13.9790   20.8540 C.3       1 FAD601      0.0000 
     47 O4'        16.7190   14.9500   20.7650 O.3       1 FAD601      0.0000 
     48 C5'        17.9420   13.2920   19.5260 C.3       1 FAD601      0.0000 
     49 O5'        18.2480   14.2760   18.5280 O.3       1 FAD601      0.0000 
     50 P          19.5700   14.2090   17.7230 P.3       1 FAD601      0.0000 
     51 O1P        19.5560   15.4010   16.7910 O.co2     1 FAD601      0.0000 
     52 O2P        19.7490   12.8500   17.1940 O.co2     1 FAD601      0.0000 
     53 O3P        20.6360   14.4550   18.8840 O.3       1 FAD601      0.0000 
@<TRIPOS>BOND
     1    1    2 ar   
     2    1    3 ar   
     3    1    4 1    
     4    1   53 1    
     5    4    5 1    
     6    5    6 1    
     7    6    7 1    
     8    6    8 1    
     9    7   12 1    
    10    8    9 1    
    11    8   10 1    
    12   10   11 1    
    13   10   12 1    
    14   12   13 1    
    15   13   14 1    
    16   13   22 1    
    17   14   15 2    
    18   15   16 1    
    19   16   17 ar   
    20   16   22 ar   
    21   17   18 1    
    22   17   19 ar   
    23   19   20 ar   
    24   20   21 ar   
    25   21   22 ar   
    26   23   24 1    
    27   23   40 2    
    28   24   25 2    
    29   24   26 am   
    30   26   27 am   
    31   27   28 2    
    32   27   29 1    
    33   29   30 2    
    34   29   40 1    
    35   30   31 1    
    36   31   32 ar   
    37   31   38 ar   
    38   32   33 ar   
    39   33   34 1    
    40   33   35 ar   
    41   35   36 1    
    42   35   37 ar   
    43   37   38 ar   
    44   38   39 1    
    45   39   40 1    
    46   39   41 1    
    47   41   42 1    
    48   42   43 1    
    49   42   44 1    
    50   44   45 1    
    51   44   46 1    
    52   46   47 1    
    53   46   48 1    
    54   48   49 1    
    55   49   50 1    
    56   50   51 ar   
    57   50   52 ar   
    58   50   53 1    
@<TRIPOS>SUBSTRUCTURE
     1 FAD601      1 GROUP   
@<TRIPOS>SET
ATOM$ORANGE STATIC     ATOMS   COLORGROUP SYSTEM 
54 5 5 6 6 8 8 10 10 12 12 14 14 16 16 17 17 20 \
20 22 22 24 24 27 27 29 29 31 31 32 32 33 33 34 34 35 \
35 36 36 37 37 38 38 40 40 41 41 42 42 44 44 46 46 48 \
48 

