#    Name: 6hn6_1_CPS_CAVITY_N1_4
#    Modification time : Fri May 22 19:24:46 2020

@<TRIPOS>MOLECULE
6hn6_1_CPS_CAVITY_N1_4
   89     0     4     0     0
SMALL
NO_CHARGES


@<TRIPOS>ATOM
      1 OG         -1.6400   81.9000   55.4100 O.3       1 SER1        0.0000 
      2 OG         -1.3500   82.4500   54.0400 O.3       1 SER1        0.0000 
      3 OG         -1.9200   83.7800   54.4600 O.3       1 SER1        0.0000 
      4 OG          0.8600   82.1100   52.7300 O.3       1 SER1        0.0000 
      5 OG         -0.2800   82.3400   55.8700 O.3       1 SER1        0.0000 
      6 OG         -0.8500   83.6600   56.2900 O.3       1 SER1        0.0000 
      7 OG          1.9300   82.0000   54.5600 O.3       1 SER1        0.0000 
      8 OG          1.6500   83.8700   53.6100 O.3       1 SER1        0.0000 
      9 OG          3.8600   81.1100   54.6100 O.3       1 SER1        0.0000 
     10 OG          3.2900   82.4400   55.0200 O.3       1 SER1        0.0000 
     11 OG          3.5800   82.9900   53.6600 O.3       1 SER1        0.0000 
     12 OG          3.8700   83.5400   52.2900 O.3       1 SER1        0.0000 
     13 OG          6.0700   80.7700   53.2900 O.3       1 SER1        0.0000 
     14 OG          6.3600   81.3200   51.9300 O.3       1 SER1        0.0000 
     15 OG          5.5000   82.1000   53.7100 O.3       1 SER1        0.0000 
     16 OG          5.7900   82.6500   52.3400 O.3       1 SER1        0.0000 
     17 O          -2.1300   83.1200   50.8500 O.2       2 ALA2        0.0000 
     18 N          -2.9900   83.8900   52.6300 N.am      2 ALA2        0.0000 
     19 N          -0.5000   81.6800   52.2600 N.am      2 ALA2        0.0000 
     20 N          -0.7700   83.5500   51.3100 N.am      2 ALA2        0.0000 
     21 O           0.2800   81.0100   55.4600 O.2       2 ALA2        0.0000 
     22 O           0.5700   81.5600   54.0900 O.2       2 ALA2        0.0000 
     23 N           0.0200   85.3100   52.1900 N.am      2 ALA2        0.0000 
     24 N          -0.5500   86.6400   52.6100 N.am      2 ALA2        0.0000 
     25 O           1.6400   81.4500   55.9200 O.2       2 ALA2        0.0000 
     26 O           0.7800   82.2200   57.7000 O.2       2 ALA2        0.0000 
     27 N           1.3800   85.7500   52.6600 N.am      2 ALA2        0.0000 
     28 N           0.2300   85.9800   55.8000 N.am      2 ALA2        0.0000 
     29 N          -0.3400   87.3000   56.2100 N.am      2 ALA2        0.0000 
     30 N           2.1500   85.0900   55.8500 N.am      2 ALA2        0.0000 
     31 N           2.4400   85.6400   54.4900 N.am      2 ALA2        0.0000 
     32 N           0.7300   87.1900   58.0400 N.am      2 ALA2        0.0000 
     33 N           0.4500   89.0600   57.0900 N.am      2 ALA2        0.0000 
     34 N           3.5100   85.5200   56.3100 N.am      2 ALA2        0.0000 
     35 N           6.8600   82.5300   54.1700 N.am      2 ALA2        0.0000 
     36 N           6.2900   83.8600   54.5900 N.am      2 ALA2        0.0000 
     37 N           8.2200   82.9700   54.6400 N.am      2 ALA2        0.0000 
     38 N           8.5100   83.5200   53.2700 N.am      2 ALA2        0.0000 
     39 CA         -2.4900   85.1000   54.8700 C.3       3 GLY6        0.0000 
     40 CA         -3.0500   86.4300   55.2900 C.3       3 GLY6        0.0000 
     41 CA         -0.5700   81.7900   57.2400 C.3       3 GLY6        0.0000 
     42 CA          0.5900   83.9900   51.7800 C.3       3 GLY6        0.0000 
     43 CA         -1.1300   85.5400   55.3400 C.3       3 GLY6        0.0000 
     44 CA         -0.8400   86.0900   53.9700 C.3       3 GLY6        0.0000 
     45 CA         -1.7000   86.8700   55.7500 C.3       3 GLY6        0.0000 
     46 CA          1.3500   80.9000   57.2900 C.3       3 GLY6        0.0000 
     47 CA          1.9400   84.4300   52.2400 C.3       3 GLY6        0.0000 
     48 CA          0.5100   84.1000   56.7500 C.3       3 GLY6        0.0000 
     49 CA          1.0900   85.2000   54.0200 C.3       3 GLY6        0.0000 
     50 CA         -0.0600   85.4300   57.1700 C.3       3 GLY6        0.0000 
     51 CA          0.5200   86.5300   54.4400 C.3       3 GLY6        0.0000 
     52 CA         -0.6300   86.7500   57.5800 C.3       3 GLY6        0.0000 
     53 CA         -0.0500   87.8500   54.8500 C.3       3 GLY6        0.0000 
     54 CA          2.7100   81.3300   57.7500 C.3       3 GLY6        0.0000 
     55 CA          2.1400   82.6600   58.1700 C.3       3 GLY6        0.0000 
     56 CA          1.5700   83.9900   58.5800 C.3       3 GLY6        0.0000 
     57 CA          1.8600   84.5400   57.2200 C.3       3 GLY6        0.0000 
     58 CA          1.3000   85.8600   57.6300 C.3       3 GLY6        0.0000 
     59 CA          3.7900   83.6500   57.2700 C.3       3 GLY6        0.0000 
     60 CA          4.0800   84.2000   55.9000 C.3       3 GLY6        0.0000 
     61 CA          4.3700   84.7500   54.5400 C.3       3 GLY6        0.0000 
     62 CA          7.1400   80.6600   55.1200 C.3       3 GLY6        0.0000 
     63 CA          6.5700   81.9800   55.5400 C.3       3 GLY6        0.0000 
     64 CA          5.4400   84.6300   56.3700 C.3       3 GLY6        0.0000 
     65 CA          8.7900   81.6400   54.2200 C.3       3 GLY6        0.0000 
     66 DU         -1.0600   83.0000   52.6800 H         4 CUB7        0.0000 
     67 DU         -1.6300   84.3300   53.0900 H         4 CUB7        0.0000 
     68 DU         -1.3400   84.8800   51.7300 H         4 CUB7        0.0000 
     69 DU         -2.2000   85.6500   53.5100 H         4 CUB7        0.0000 
     70 DU          0.0100   82.8900   54.5100 H         4 CUB7        0.0000 
     71 DU          0.3000   83.4400   53.1400 H         4 CUB7        0.0000 
     72 DU         -0.5600   84.2100   54.9200 H         4 CUB7        0.0000 
     73 DU         -0.2700   84.7600   53.5600 H         4 CUB7        0.0000 
     74 DU          1.0700   82.7700   56.3400 H         4 CUB7        0.0000 
     75 DU          1.3600   83.3200   54.9700 H         4 CUB7        0.0000 
     76 DU          0.8000   84.6500   55.3900 H         4 CUB7        0.0000 
     77 DU          3.0000   81.8800   56.3900 H         4 CUB7        0.0000 
     78 DU          2.4300   83.2100   56.8000 H         4 CUB7        0.0000 
     79 DU          2.7200   83.7600   55.4400 H         4 CUB7        0.0000 
     80 DU          3.0100   84.3100   54.0700 H         4 CUB7        0.0000 
     81 DU          3.3000   84.8600   52.7100 H         4 CUB7        0.0000 
     82 DU          5.7800   80.2200   54.6600 H         4 CUB7        0.0000 
     83 DU          5.2100   81.5500   55.0700 H         4 CUB7        0.0000 
     84 DU          4.3600   82.3200   56.8500 H         4 CUB7        0.0000 
     85 DU          4.6500   82.8700   55.4900 H         4 CUB7        0.0000 
     86 DU          4.9400   83.4200   54.1200 H         4 CUB7        0.0000 
     87 DU          7.4300   81.2100   53.7600 H         4 CUB7        0.0000 
     88 DU          7.7200   81.7600   52.3900 H         4 CUB7        0.0000 
     89 DU          7.1500   83.0800   52.8100 H         4 CUB7        0.0000 
@<TRIPOS>BOND
@<TRIPOS>SUBSTRUCTURE
     1 SER1        1 GROUP   
     2 ALA2       17 GROUP   
     3 GLY6       39 GROUP   
     4 CUB7       66 GROUP   
@<TRIPOS>SET

