#    Name: 6hn6_1_CPS
#    Modification time : Fri May 22 19:24:44 2020

@<TRIPOS>MOLECULE
6hn6_1_CPS
   42    45     1     0     0
SMALL
NO_CHARGES


@<TRIPOS>ATOM
      1 C1          2.5640   81.5500   55.6900 C.3       1 CPS501      0.0000 
      2 C2          1.5630   82.7090   55.9230 C.3       1 CPS501      0.0000 
      3 C3          0.3610   82.1490   53.6700 C.3       1 CPS501      0.0000 
      4 C4         -0.2070   82.6460   52.3450 C.3       1 CPS501      0.0000 
      5 C5         -1.2130   83.7990   52.5640 C.3       1 CPS501      0.0000 
      6 C6         -0.4670   84.9210   53.3380 C.3       1 CPS501      0.0000 
      7 C7         -1.4640   86.0890   53.3000 C.3       1 CPS501      0.0000 
      8 C8         -2.0830   85.9940   51.8890 C.3       1 CPS501      0.0000 
      9 C9         -1.6750   84.6100   51.3100 C.3       1 CPS501      0.0000 
     10 C10        -2.4270   83.2540   53.3570 C.3       1 CPS501      0.0000 
     11 C11         0.4220   82.1420   56.7940 C.3       1 CPS501      0.0000 
     12 C12         3.8590   81.9970   55.0140 C.3       1 CPS501      0.0000 
     13 C13         4.5560   83.0180   55.8780 C.3       1 CPS501      0.0000 
     14 C14         3.6690   84.2330   56.0980 C.3       1 CPS501      0.0000 
     15 C15         2.2790   83.8840   56.6720 C.3       1 CPS501      0.0000 
     16 C16         1.3910   85.1400   56.7940 C.3       1 CPS501      0.0000 
     17 C17         0.7610   85.6180   55.4810 C.3       1 CPS501      0.0000 
     18 C18         0.0750   84.4710   54.7210 C.3       1 CPS501      0.0000 
     19 C19         1.0070   83.2440   54.5410 C.3       1 CPS501      0.0000 
     20 C20        -2.7420   84.0110   50.3610 C.3       1 CPS501      0.0000 
     21 C21        -2.2440   82.7780   49.6070 C.3       1 CPS501      0.0000 
     22 C22        -3.3030   85.0560   49.3760 C.3       1 CPS501      0.0000 
     23 C23        -4.7860   84.8870   48.9980 C.3       1 CPS501      0.0000 
     24 C24        -5.0750   83.7010   48.1030 C.2       1 CPS501      0.0000 
     25 C25        -4.6860   82.7150   45.8660 C.3       1 CPS501      0.0000 
     26 C26        -3.4820   81.7820   45.8270 C.3       1 CPS501      0.0000 
     27 C27        -2.1700   82.5060   45.5430 C.3       1 CPS501      0.0000 
     28 C28         0.2130   82.5220   45.0890 C.3       1 CPS501      0.0000 
     29 C29        -0.7830   80.4900   45.9990 C.3       1 CPS501      0.0000 
     30 C30        -1.2380   81.1410   43.6420 C.3       1 CPS501      0.0000 
     31 C31        -0.2170   80.1470   43.1060 C.3       1 CPS501      0.0000 
     32 C32        -0.6090   79.4690   41.7960 C.3       1 CPS501      0.0000 
     33 N1         -4.5640   83.7700   46.8680 N.am      1 CPS501      0.0000 
     34 N2         -1.0090   81.6460   45.0610 N.4       1 CPS501      0.0000 
     35 O1         -5.7210   82.7370   48.5200 O.2       1 CPS501      0.0000 
     36 O2          5.8330   83.3570   55.3250 O.3       1 CPS501      0.0000 
     37 O3          1.7320   86.2690   54.6590 O.3       1 CPS501      0.0000 
     38 O4          0.8730   83.0260   51.4870 O.3       1 CPS501      0.0000 
     39 O2S         0.7010   77.3120   42.3950 O.co2     1 CPS501      0.0000 
     40 O3S        -0.0330   77.5930   40.1030 O.co2     1 CPS501      0.0000 
     41 O1S         1.7890   78.9310   40.9630 O.co2     1 CPS501      0.0000 
     42 S           0.5510   78.2260   41.2740 S.o2      1 CPS501      0.0000 
@<TRIPOS>BOND
     1    1    2 1    
     2    1   12 1    
     3    2   11 1    
     4    2   15 1    
     5    2   19 1    
     6    3    4 1    
     7    3   19 1    
     8    4    5 1    
     9    4   38 1    
    10    5    6 1    
    11    5    9 1    
    12    5   10 1    
    13    6    7 1    
    14    6   18 1    
    15    7    8 1    
    16    8    9 1    
    17    9   20 1    
    18   12   13 1    
    19   13   14 1    
    20   13   36 1    
    21   14   15 1    
    22   15   16 1    
    23   16   17 1    
    24   17   18 1    
    25   17   37 1    
    26   18   19 1    
    27   20   21 1    
    28   20   22 1    
    29   22   23 1    
    30   23   24 1    
    31   24   33 am   
    32   24   35 2    
    33   25   26 1    
    34   25   33 1    
    35   26   27 1    
    36   27   34 1    
    37   28   34 1    
    38   29   34 1    
    39   30   31 1    
    40   30   34 1    
    41   31   32 1    
    42   32   42 1    
    43   39   42 ar   
    44   40   42 ar   
    45   41   42 ar   
@<TRIPOS>SUBSTRUCTURE
     1 CPS501      1 GROUP   
@<TRIPOS>SET

