#    Name: 6v7o_2_PRO_GLY_ALA_PRO_PRO_GLY
#    Modification time : Fri May 22 19:29:40 2020

@<TRIPOS>MOLECULE
6v7o_2_PRO_GLY_ALA_PRO_PRO_GLY
   34    36     6     0     0
SMALL
NO_CHARGES


@<TRIPOS>ATOM
      1 N         -47.1300   32.3170   67.4710 N.am      1 PRO679      0.0000 
      2 CA        -46.6910   33.0820   66.3000 C.3       1 PRO679      0.0000 
      3 C         -47.8640   33.7330   65.6060 C.2       1 PRO679      0.0000 
      4 O         -47.8250   34.8920   65.1920 O.2       1 PRO679      0.0000 
      5 CB        -46.0300   32.0300   65.3960 C.3       1 PRO679      0.0000 
      6 CG        -46.2130   30.7050   66.0740 C.3       1 PRO679      0.0000 
      7 CD        -47.1200   30.8650   67.2380 C.3       1 PRO679      0.0000 
      8 N         -48.9180   32.9560   65.4420 N.am      2 GLY680      0.0000 
      9 CA        -50.0790   33.4940   64.7770 C.3       2 GLY680      0.0000 
     10 C         -51.3750   32.8480   65.2070 C.2       2 GLY680      0.0000 
     11 O         -51.9820   33.1970   66.2260 O.2       2 GLY680      0.0000 
     12 N         -51.7970   31.8960   64.3770 N.am      3 ALA681      0.0000 
     13 CA        -52.9970   31.0680   64.4160 C.3       3 ALA681      0.0000 
     14 C         -53.0080   29.7410   65.2010 C.2       3 ALA681      0.0000 
     15 O         -54.0740   29.1170   65.2520 O.2       3 ALA681      0.0000 
     16 CB        -53.3640   30.7480   62.9720 C.3       3 ALA681      0.0000 
     17 N         -51.9400   29.2540   65.8460 N.am      4 PRO682      0.0000 
     18 CA        -52.0790   27.9790   66.5940 C.3       4 PRO682      0.0000 
     19 C         -53.0890   28.0990   67.7220 C.2       4 PRO682      0.0000 
     20 O         -53.0770   29.0810   68.4810 O.2       4 PRO682      0.0000 
     21 CB        -50.6650   27.7260   67.1480 C.3       4 PRO682      0.0000 
     22 CG        -50.0750   29.0500   67.2550 C.3       4 PRO682      0.0000 
     23 CD        -50.5630   29.7540   65.9950 C.3       4 PRO682      0.0000 
     24 N         -53.9840   27.1190   67.8570 N.am      5 PRO683      0.0000 
     25 CA        -54.9450   27.1490   68.9650 C.3       5 PRO683      0.0000 
     26 C         -54.2280   27.0820   70.3060 C.2       5 PRO683      0.0000 
     27 O         -53.1460   26.5040   70.4320 O.2       5 PRO683      0.0000 
     28 CB        -55.8110   25.9040   68.7290 C.3       5 PRO683      0.0000 
     29 CG        -55.0810   25.0720   67.7260 C.3       5 PRO683      0.0000 
     30 CD        -54.1960   25.9840   66.9440 C.3       5 PRO683      0.0000 
     31 N         -54.8480   27.6850   71.3150 N.am      6 GLY684      0.0000 
     32 CA        -54.2650   27.7370   72.6420 C.3       6 GLY684      0.0000 
     33 C         -52.9950   28.5630   72.7040 C.2       6 GLY684      0.0000 
     34 O         -51.9020   28.0230   72.8760 O.2       6 GLY684      0.0000 
@<TRIPOS>BOND
     1    1    2 1    
     2    1    7 1    
     3    2    3 1    
     4    2    5 1    
     5    3    4 2    
     6    3    8 am   
     7    5    6 1    
     8    6    7 1    
     9    8    9 1    
    10    9   10 1    
    11   10   11 2    
    12   10   12 am   
    13   12   13 1    
    14   13   14 1    
    15   13   16 1    
    16   14   15 2    
    17   14   17 am   
    18   17   18 1    
    19   17   23 1    
    20   18   19 1    
    21   18   21 1    
    22   19   20 2    
    23   19   24 am   
    24   21   22 1    
    25   22   23 1    
    26   24   25 1    
    27   24   30 1    
    28   25   26 1    
    29   25   28 1    
    30   26   27 2    
    31   26   31 am   
    32   28   29 1    
    33   29   30 1    
    34   31   32 1    
    35   32   33 1    
    36   33   34 2    
@<TRIPOS>SUBSTRUCTURE
     1 PRO679      1 RESIDUE 
     2 GLY680      8 RESIDUE 
     3 ALA681     12 RESIDUE 
     4 PRO682     17 RESIDUE 
     5 PRO683     24 RESIDUE 
     6 GLY684     31 RESIDUE 
@<TRIPOS>SET

