#    Name: 6v7o_2_PRO_GLY_ALA_PRO_PRO_GLY_CAVITY_N1_6
#    Modification time : Fri May 22 19:29:40 2020

@<TRIPOS>MOLECULE
6v7o_2_PRO_GLY_ALA_PRO_PRO_GLY_CAVITY_N1_6
   81     0     7     0     0
SMALL
NO_CHARGES


@<TRIPOS>ATOM
      1 OG        -53.6100   30.0800   64.0800 O.3       1 SER1        0.0000 
      2 OG        -50.4600   31.8900   63.5200 O.3       1 SER1        0.0000 
      3 OG        -48.0100   32.6800   63.8200 O.3       1 SER1        0.0000 
      4 OG        -49.9000   32.5400   64.7500 O.3       1 SER1        0.0000 
      5 OG        -49.3900   30.6300   65.5200 O.3       1 SER1        0.0000 
      6 OG        -50.5900   31.5100   65.6000 O.3       1 SER1        0.0000 
      7 OG        -50.0800   29.6100   66.3700 O.3       1 SER1        0.0000 
      8 OG        -49.5600   27.7000   67.1400 O.3       1 SER1        0.0000 
      9 OG        -50.7600   28.5800   67.2200 O.3       1 SER1        0.0000 
     10 OG        -51.4500   27.5600   68.0700 O.3       1 SER1        0.0000 
     11 OG        -46.2400   32.4400   64.9600 O.3       1 SER1        0.0000 
     12 OG        -47.4500   33.3300   65.0500 O.3       1 SER1        0.0000 
     13 OG        -46.9300   31.4200   65.8200 O.3       1 SER1        0.0000 
     14 OG        -48.1400   32.3000   65.9000 O.3       1 SER1        0.0000 
     15 OG        -47.6200   30.3900   66.6700 O.3       1 SER1        0.0000 
     16 OG        -48.8300   31.2800   66.7500 O.3       1 SER1        0.0000 
     17 OG        -48.3100   29.3700   67.5200 O.3       1 SER1        0.0000 
     18 OG        -46.5400   29.1300   68.6700 O.3       1 SER1        0.0000 
     19 OG        -47.7500   30.0200   68.7500 O.3       1 SER1        0.0000 
     20 N         -51.3700   25.3800   65.5200 N.am      2 ALA2        0.0000 
     21 N         -52.5700   26.2600   65.6100 N.am      2 ALA2        0.0000 
     22 N         -53.2600   25.2400   66.4600 N.am      2 ALA2        0.0000 
     23 OD1       -50.8100   26.0300   66.7600 O.co2     3 ASP3        0.0000 
     24 OD1       -52.0100   26.9100   66.8400 O.co2     3 ASP3        0.0000 
     25 OD1       -52.7000   25.8900   67.6900 O.co2     3 ASP3        0.0000 
     26 OD1       -53.3900   24.8600   68.5400 O.co2     3 ASP3        0.0000 
     27 OD1       -52.1400   26.5300   68.9200 O.co2     3 ASP3        0.0000 
     28 NZ        -52.0600   24.3500   66.3700 N.4       4 LYS4        0.0000 
     29 NZ        -46.3700   32.0600   67.0500 N.4       4 LYS4        0.0000 
     30 NZ        -47.0600   31.0400   67.9000 N.4       4 LYS4        0.0000 
     31 NZ        -46.5000   31.6900   69.1300 N.4       4 LYS4        0.0000 
     32 CZ        -51.7100   30.2200   63.1400 C.ar      5 PHE5        0.0000 
     33 CZ        -52.9200   31.1100   63.2200 C.ar      5 PHE5        0.0000 
     34 CZ        -52.4000   29.2000   63.9900 C.ar      5 PHE5        0.0000 
     35 CZ        -51.8800   27.2900   64.7600 C.ar      5 PHE5        0.0000 
     36 CZ        -53.0900   28.1700   64.8400 C.ar      5 PHE5        0.0000 
     37 CZ        -54.3000   29.0600   64.9300 C.ar      5 PHE5        0.0000 
     38 CZ        -53.7800   27.1500   65.6900 C.ar      5 PHE5        0.0000 
     39 CZ        -54.9900   28.0300   65.7800 C.ar      5 PHE5        0.0000 
     40 CZ        -54.4700   26.1200   66.5400 C.ar      5 PHE5        0.0000 
     41 CZ        -55.6800   27.0100   66.6300 C.ar      5 PHE5        0.0000 
     42 CZ        -53.9500   24.2100   67.3100 C.ar      5 PHE5        0.0000 
     43 CZ        -56.3700   25.9800   67.4800 C.ar      5 PHE5        0.0000 
     44 CZ        -55.8500   24.0700   68.2500 C.ar      5 PHE5        0.0000 
     45 CZ        -57.0600   24.9600   68.3300 C.ar      5 PHE5        0.0000 
     46 CZ        -51.1500   30.8700   64.3700 C.ar      5 PHE5        0.0000 
     47 CZ        -52.3600   31.7500   64.4600 C.ar      5 PHE5        0.0000 
     48 CZ        -53.5700   32.6400   64.5400 C.ar      5 PHE5        0.0000 
     49 CZ        -50.6300   28.9600   65.1400 C.ar      5 PHE5        0.0000 
     50 CZ        -51.8400   29.8400   65.2200 C.ar      5 PHE5        0.0000 
     51 CZ        -50.1200   27.0500   65.9000 C.ar      5 PHE5        0.0000 
     52 CZ        -51.3200   27.9300   65.9900 C.ar      5 PHE5        0.0000 
     53 CZ        -54.6000   25.7400   68.6300 C.ar      5 PHE5        0.0000 
     54 CZ        -49.2100   33.5600   63.9000 C.ar      5 PHE5        0.0000 
     55 CZ        -51.1100   33.4200   64.8400 C.ar      5 PHE5        0.0000 
     56 CZ        -52.3200   34.3100   64.9200 C.ar      5 PHE5        0.0000 
     57 CZ        -48.8700   28.7200   66.2900 C.ar      5 PHE5        0.0000 
     58 CZ        -49.8600   35.0900   65.2200 C.ar      5 PHE5        0.0000 
     59 CZ        -47.4100   35.8800   65.5200 C.ar      5 PHE5        0.0000 
     60 CZ        -45.6800   33.0900   66.2000 C.ar      5 PHE5        0.0000 
     61 CZ        -46.8900   33.9700   66.2800 C.ar      5 PHE5        0.0000 
     62 CZ        -45.8100   32.7100   68.2800 C.ar      5 PHE5        0.0000 
     63 CA        -55.1600   25.1000   67.4000 C.3       6 GLY6        0.0000 
     64 CA        -46.7600   34.3500   64.2000 C.3       6 GLY6        0.0000 
     65 CA        -48.6500   34.2100   65.1300 C.3       6 GLY6        0.0000 
     66 CA        -46.4100   29.5100   66.5800 C.3       6 GLY6        0.0000 
     67 CA        -47.1000   28.4800   67.4300 C.3       6 GLY6        0.0000 
     68 DU        -53.0500   30.7300   65.3100 H         7 CUB7        0.0000 
     69 DU        -52.5300   28.8200   66.0700 H         7 CUB7        0.0000 
     70 DU        -53.7400   29.7000   66.1600 H         7 CUB7        0.0000 
     71 DU        -53.2200   27.7900   66.9300 H         7 CUB7        0.0000 
     72 DU        -53.9100   26.7700   67.7800 H         7 CUB7        0.0000 
     73 DU        -51.8000   32.4000   65.6900 H         7 CUB7        0.0000 
     74 DU        -51.2800   30.4900   66.4600 H         7 CUB7        0.0000 
     75 DU        -52.6600   28.4400   68.1600 H         7 CUB7        0.0000 
     76 DU        -49.3400   33.1900   65.9900 H         7 CUB7        0.0000 
     77 DU        -50.0300   32.1600   66.8400 H         7 CUB7        0.0000 
     78 DU        -49.5200   30.2500   67.6000 H         7 CUB7        0.0000 
     79 DU        -47.5800   32.9500   67.1300 H         7 CUB7        0.0000 
     80 DU        -48.2700   31.9200   67.9800 H         7 CUB7        0.0000 
     81 DU        -47.1900   30.6600   69.9800 H         7 CUB7        0.0000 
@<TRIPOS>BOND
@<TRIPOS>SUBSTRUCTURE
     1 SER1        1 GROUP   
     2 ALA2       20 GROUP   
     3 ASP3       23 GROUP   
     4 LYS4       28 GROUP   
     5 PHE5       32 GROUP   
     6 GLY6       63 GROUP   
     7 CUB7       68 GROUP   
@<TRIPOS>SET

