#    Name: 6q89_1_LSS
#    Modification time : Fri May 22 19:28:26 2020

@<TRIPOS>MOLECULE
6q89_1_LSS
   31    33     1     0     0
SMALL
NO_CHARGES


@<TRIPOS>ATOM
      1 C1         -3.1570   -4.2110  -28.0590 C.2       1 LSS901      0.0000 
      2 N1        -13.3330   -8.3550  -27.8920 N.ar      1 LSS901      0.0000 
      3 O1         -4.1950   -3.6880  -27.6750 O.2       1 LSS901      0.0000 
      4 S1         -4.2320   -6.5150  -27.2150 S.o2      1 LSS901      0.0000 
      5 C2        -12.9200   -7.9600  -29.1000 C.ar      1 LSS901      0.0000 
      6 N2         -3.0770   -5.6330  -27.8750 N.am      1 LSS901      0.0000 
      7 O2         -9.2920   -4.3230  -29.3760 O.3       1 LSS901      0.0000 
      8 N3        -11.6950   -7.6000  -29.4930 N.ar      1 LSS901      0.0000 
      9 O3         -7.5860   -4.6010  -31.4160 O.3       1 LSS901      0.0000 
     10 C4        -10.8270   -7.6680  -28.4750 C.ar      1 LSS901      0.0000 
     11 N4         -0.8430   -4.4160  -28.6310 N.4       1 LSS901      0.0000 
     12 O4         -7.6020   -7.4260  -29.8650 O.3       1 LSS901      0.0000 
     13 C5        -11.1030   -8.0720  -27.1760 C.ar      1 LSS901      0.0000 
     14 O5         -5.5030   -6.5330  -28.1780 O.3       1 LSS901      0.0000 
     15 C6        -12.4320   -8.4270  -26.8910 C.ar      1 LSS901      0.0000 
     16 N6        -12.8550   -8.8110  -25.6790 N.pl3     1 LSS901      0.0000 
     17 C7         -1.3170   -1.9020  -30.5620 C.3       1 LSS901      0.0000 
     18 N7         -9.9560   -8.0150  -26.4040 N.2       1 LSS901      0.0000 
     19 C8         -9.0340   -7.5890  -27.2240 C.2       1 LSS901      0.0000 
     20 C9         -2.2850   -2.9910  -30.0910 C.3       1 LSS901      0.0000 
     21 N9         -9.4940   -7.3330  -28.4990 N.pl3     1 LSS901      0.0000 
     22 CA         -1.9810   -3.4820  -28.6710 C.3       1 LSS901      0.0000 
     23 C10        -1.4980   -1.5830  -32.0450 C.3       1 LSS901      0.0000 
     24 C11        -1.4520   -0.6410  -29.7040 C.3       1 LSS901      0.0000 
     25 O1A        -4.7140   -5.9430  -26.0090 O.2       1 LSS901      0.0000 
     26 C21        -8.7650   -6.6790  -29.5730 C.3       1 LSS901      0.0000 
     27 C22        -8.2640   -5.2840  -29.1970 C.3       1 LSS901      0.0000 
     28 C23        -7.1040   -5.1020  -30.1730 C.3       1 LSS901      0.0000 
     29 C24        -6.5590   -6.5330  -30.3330 C.3       1 LSS901      0.0000 
     30 C25        -5.2710   -6.8290  -29.6000 C.3       1 LSS901      0.0000 
     31 O2A        -3.7110   -7.8380  -27.2500 O.2       1 LSS901      0.0000 
@<TRIPOS>BOND
     1    1    3 2    
     2    1    6 am   
     3    1   22 1    
     4    2    5 ar   
     5    2   15 ar   
     6    4    6 1    
     7    4   14 1    
     8    4   25 2    
     9    4   31 2    
    10    5    8 ar   
    11    7   27 1    
    12    8   10 ar   
    13    9   28 1    
    14   10   13 ar   
    15   10   21 1    
    16   11   22 1    
    17   12   26 1    
    18   12   29 1    
    19   13   15 ar   
    20   13   18 1    
    21   14   30 1    
    22   15   16 1    
    23   17   20 1    
    24   17   23 1    
    25   17   24 1    
    26   18   19 2    
    27   19   21 1    
    28   20   22 1    
    29   21   26 1    
    30   26   27 1    
    31   27   28 1    
    32   28   29 1    
    33   29   30 1    
@<TRIPOS>SUBSTRUCTURE
     1 LSS901      1 GROUP   
@<TRIPOS>SET

