#    Name: 6q89_1_LSS_CAVITY_N1_6
#    Modification time : Fri May 22 19:28:29 2020

@<TRIPOS>MOLECULE
6q89_1_LSS_CAVITY_N1_6
   80     0     7     0     0
SMALL
NO_CHARGES


@<TRIPOS>ATOM
      1 OG         -6.9100   -8.3300  -30.6500 O.3       1 SER1        0.0000 
      2 OG         -9.0100   -7.6800  -26.4400 O.3       1 SER1        0.0000 
      3 OG         -6.1600   -7.2700  -29.9000 O.3       1 SER1        0.0000 
      4 OG         -5.2100   -7.1300  -31.0500 O.3       1 SER1        0.0000 
      5 OG         -7.3800   -7.6600  -25.0900 O.3       1 SER1        0.0000 
      6 OG         -6.4300   -7.5300  -26.2400 O.3       1 SER1        0.0000 
      7 OG         -7.3100   -6.4800  -26.8500 O.3       1 SER1        0.0000 
      8 OG         -5.7400   -7.6500  -23.7400 O.3       1 SER1        0.0000 
      9 OG         -4.7900   -7.5100  -24.8900 O.3       1 SER1        0.0000 
     10 OG         -5.6800   -6.4600  -25.5000 O.3       1 SER1        0.0000 
     11 OG         -3.9100   -4.0700  -27.6600 O.3       1 SER1        0.0000 
     12 OG         -3.8500   -2.8900  -29.4200 O.3       1 SER1        0.0000 
     13 OG         -2.1500   -1.6800  -29.8200 O.3       1 SER1        0.0000 
     14 O          -9.7600   -8.7500  -27.1900 O.2       2 ALA2        0.0000 
     15 O          -9.7000   -7.5600  -28.9500 O.2       2 ALA2        0.0000 
     16 N          -8.7500   -7.4200  -30.1000 N.am      2 ALA2        0.0000 
     17 N          -8.0000   -6.3600  -29.3500 N.am      2 ALA2        0.0000 
     18 N          -7.0500   -6.2200  -30.5000 N.am      2 ALA2        0.0000 
     19 N          -6.1000   -6.0800  -31.6600 N.am      2 ALA2        0.0000 
     20 O          -9.8300   -5.4500  -28.8000 O.2       2 ALA2        0.0000 
     21 O          -8.8800   -5.3100  -29.9600 O.2       2 ALA2        0.0000 
     22 N          -4.4600   -6.0600  -30.3100 N.am      2 ALA2        0.0000 
     23 O          -7.1800   -4.1000  -30.3600 O.2       2 ALA2        0.0000 
     24 O          -2.8900   -7.2300  -27.2000 O.2       2 ALA2        0.0000 
     25 N          -2.8300   -6.0500  -28.9500 N.am      2 ALA2        0.0000 
     26 N          -3.7100   -5.0000  -29.5600 N.am      2 ALA2        0.0000 
     27 N          -2.0800   -4.9800  -28.2100 N.am      2 ALA2        0.0000 
     28 N          -2.9600   -3.9300  -28.8100 N.am      2 ALA2        0.0000 
     29 N          -2.0100   -3.8000  -29.9700 N.am      2 ALA2        0.0000 
     30 OD1        -9.1500   -5.5700  -26.3000 O.co2     3 ASP3        0.0000 
     31 OD1        -8.4600   -5.6900  -23.8000 O.co2     3 ASP3        0.0000 
     32 OD1        -7.5100   -5.5500  -24.9500 O.co2     3 ASP3        0.0000 
     33 NZ         -8.2000   -5.4300  -27.4500 N.4       4 LYS4        0.0000 
     34 NZ         -7.2500   -5.2900  -28.6100 N.4       4 LYS4        0.0000 
     35 NZ         -1.2600   -2.7300  -29.2200 N.4       4 LYS4        0.0000 
     36 NZ         -0.3100   -2.5900  -30.3700 N.4       4 LYS4        0.0000 
     37 CZ        -10.7100   -8.8800  -26.0400 C.ar      5 PHE5        0.0000 
     38 CZ         -8.8100   -8.6100  -28.3400 C.ar      5 PHE5        0.0000 
     39 CZ         -7.8600   -8.4700  -29.4900 C.ar      5 PHE5        0.0000 
     40 CZ         -5.2800   -8.3100  -29.2900 C.ar      5 PHE5        0.0000 
     41 CZ         -8.0600   -7.5400  -27.5900 C.ar      5 PHE5        0.0000 
     42 CZ         -7.1100   -7.4000  -28.7500 C.ar      5 PHE5        0.0000 
     43 CZ         -5.4800   -7.3900  -27.4000 C.ar      5 PHE5        0.0000 
     44 CZ         -6.3600   -6.3400  -28.0000 C.ar      5 PHE5        0.0000 
     45 CZ         -3.8400   -7.3700  -26.0500 C.ar      5 PHE5        0.0000 
     46 CZ         -4.7300   -6.3200  -26.6500 C.ar      5 PHE5        0.0000 
     47 CZ         -5.5500   -4.0900  -29.0100 C.ar      5 PHE5        0.0000 
     48 CZ         -4.0400   -6.4500  -24.1500 C.ar      5 PHE5        0.0000 
     49 CZ         -4.9300   -5.4000  -24.7500 C.ar      5 PHE5        0.0000 
     50 CZ         -3.9800   -5.2600  -25.9000 C.ar      5 PHE5        0.0000 
     51 CZ         -3.0300   -5.1200  -27.0600 C.ar      5 PHE5        0.0000 
     52 CZ         -4.1800   -4.3300  -24.0100 C.ar      5 PHE5        0.0000 
     53 CZ         -3.0400   -0.6400  -30.4300 C.ar      5 PHE5        0.0000 
     54 CZ         -2.0900   -0.5000  -31.5800 C.ar      5 PHE5        0.0000 
     55 CZ         -1.4000   -0.6200  -29.0800 C.ar      5 PHE5        0.0000 
     56 CA        -12.3500   -8.9000  -27.3900 C.3       6 GLY6        0.0000 
     57 CA        -11.4000   -8.7600  -28.5400 C.3       6 GLY6        0.0000 
     58 CA        -11.6000   -7.8400  -26.6400 C.3       6 GLY6        0.0000 
     59 CA        -10.6500   -7.7000  -27.7900 C.3       6 GLY6        0.0000 
     60 CA        -11.5300   -6.6500  -28.4000 C.3       6 GLY6        0.0000 
     61 CA        -10.8500   -6.7700  -25.9000 C.3       6 GLY6        0.0000 
     62 CA         -9.9000   -6.6300  -27.0500 C.3       6 GLY6        0.0000 
     63 CA        -10.7900   -5.5800  -27.6500 C.3       6 GLY6        0.0000 
     64 CA         -4.5300   -7.2500  -28.5500 C.3       6 GLY6        0.0000 
     65 CA         -8.2600   -6.6200  -25.7000 C.3       6 GLY6        0.0000 
     66 CA         -5.3500   -5.0100  -30.9100 C.3       6 GLY6        0.0000 
     67 CA         -3.7800   -6.1800  -27.8000 C.3       6 GLY6        0.0000 
     68 CA         -4.6000   -3.9500  -30.1600 C.3       6 GLY6        0.0000 
     69 CA         -2.9000   -2.7500  -30.5700 C.3       6 GLY6        0.0000 
     70 CA         -1.9500   -2.6100  -31.7200 C.3       6 GLY6        0.0000 
     71 CA         -3.7900   -1.7000  -31.1800 C.3       6 GLY6        0.0000 
     72 CA         -1.2000   -1.5400  -30.9800 C.3       6 GLY6        0.0000 
     73 CA         -0.4500   -0.4800  -30.2300 C.3       6 GLY6        0.0000 
     74 DU         -8.9500   -6.4900  -28.2000 H         7 CUB7        0.0000 
     75 DU         -5.4100   -6.2000  -29.1500 H         7 CUB7        0.0000 
     76 DU         -6.3000   -5.1500  -29.7600 H         7 CUB7        0.0000 
     77 DU         -6.6900   -7.7900  -22.5900 H         7 CUB7        0.0000 
     78 DU         -6.6300   -6.6000  -24.3500 H         7 CUB7        0.0000 
     79 DU         -4.6600   -5.1400  -28.4100 H         7 CUB7        0.0000 
     80 DU         -5.8800   -5.5400  -23.6000 H         7 CUB7        0.0000 
@<TRIPOS>BOND
@<TRIPOS>SUBSTRUCTURE
     1 SER1        1 GROUP   
     2 ALA2       14 GROUP   
     3 ASP3       30 GROUP   
     4 LYS4       33 GROUP   
     5 PHE5       37 GROUP   
     6 GLY6       56 GROUP   
     7 CUB7       74 GROUP   
@<TRIPOS>SET

