#    Name: 6bxn_2_SAM_CAVITY_N1_4
#    Modification time : Fri May 22 19:36:15 2020

@<TRIPOS>MOLECULE
6bxn_2_SAM_CAVITY_N1_4
   72     0     6     0     0
SMALL
NO_CHARGES


@<TRIPOS>ATOM
      1 OG         13.4700   17.0000   15.0600 O.3       1 SER1        0.0000 
      2 N          11.3800   13.2800   17.1300 N.am      2 ALA2        0.0000 
      3 N          10.1100   14.8800   16.5500 N.am      2 ALA2        0.0000 
      4 O          11.5900   14.6100   16.4700 O.2       2 ALA2        0.0000 
      5 O          11.7900   15.9400   15.8100 O.2       2 ALA2        0.0000 
      6 N          11.5700   13.9100   18.4700 N.am      2 ALA2        0.0000 
      7 N          13.0500   13.6500   18.3900 N.am      2 ALA2        0.0000 
      8 N          10.3100   15.5100   17.9000 N.am      2 ALA2        0.0000 
      9 O          11.7800   15.2500   17.8100 O.2       2 ALA2        0.0000 
     10 O          13.2500   14.9800   17.7300 O.2       2 ALA2        0.0000 
     11 O          13.4600   16.3100   17.0600 O.2       2 ALA2        0.0000 
     12 N          11.7700   14.5500   19.8200 N.am      2 ALA2        0.0000 
     13 N          13.2400   14.2800   19.7300 N.am      2 ALA2        0.0000 
     14 N          14.7100   14.0100   19.6500 N.am      2 ALA2        0.0000 
     15 N          10.5000   16.1500   19.2400 N.am      2 ALA2        0.0000 
     16 N          12.1800   17.2100   18.4900 N.am      2 ALA2        0.0000 
     17 N          12.3800   18.5500   17.8300 N.am      2 ALA2        0.0000 
     18 N          11.9600   15.1900   21.1600 N.am      2 ALA2        0.0000 
     19 N          13.4400   14.9200   21.0700 N.am      2 ALA2        0.0000 
     20 N          14.9100   14.6500   20.9900 N.am      2 ALA2        0.0000 
     21 N          12.1700   16.5200   20.5000 N.am      2 ALA2        0.0000 
     22 N          13.6400   16.2500   20.4100 N.am      2 ALA2        0.0000 
     23 N          13.8400   17.5800   19.7500 N.am      2 ALA2        0.0000 
     24 N          15.3200   17.3100   19.6700 N.am      2 ALA2        0.0000 
     25 N          14.0500   18.9100   19.0900 N.am      2 ALA2        0.0000 
     26 N          15.5200   18.6400   19.0100 N.am      2 ALA2        0.0000 
     27 N          14.2500   20.2400   18.4300 N.am      2 ALA2        0.0000 
     28 N          15.5100   17.9500   21.0100 N.am      2 ALA2        0.0000 
     29 OD1        15.1400   17.3700   16.3200 O.co2     3 ASP3        0.0000 
     30 OD1        16.3900   15.0800   18.9000 O.co2     3 ASP3        0.0000 
     31 OD1        16.6000   16.4100   18.2400 O.co2     3 ASP3        0.0000 
     32 OD1        16.8000   17.7400   17.5800 O.co2     3 ASP3        0.0000 
     33 OD1        16.5900   15.7100   20.2400 O.co2     3 ASP3        0.0000 
     34 CZ         13.6700   18.3300   14.4000 C.ar      4 PHE5        0.0000 
     35 CZ         15.3500   19.3900   13.6500 C.ar      4 PHE5        0.0000 
     36 CZ         16.8200   19.1200   13.5700 C.ar      4 PHE5        0.0000 
     37 CZ         15.3400   18.7000   15.6600 C.ar      4 PHE5        0.0000 
     38 CZ         16.8100   18.4300   15.5700 C.ar      4 PHE5        0.0000 
     39 CZ         12.5900   19.8800   17.1700 C.ar      4 PHE5        0.0000 
     40 CZ         12.7900   21.2100   16.5100 C.ar      4 PHE5        0.0000 
     41 CZ         14.4600   21.5800   17.7700 C.ar      4 PHE5        0.0000 
     42 CA         12.2000   18.6000   14.4800 C.3       5 GLY6        0.0000 
     43 CA         13.8800   19.6600   13.7400 C.3       5 GLY6        0.0000 
     44 CA         14.7300   14.7100   17.6400 C.3       5 GLY6        0.0000 
     45 CA         10.5100   16.8500   17.2300 C.3       5 GLY6        0.0000 
     46 CA         11.9800   16.5800   17.1500 C.3       5 GLY6        0.0000 
     47 CA         14.9300   16.0400   16.9800 C.3       5 GLY6        0.0000 
     48 CA         12.1900   17.9100   16.4900 C.3       5 GLY6        0.0000 
     49 CA         10.9200   19.5100   15.9100 C.3       5 GLY6        0.0000 
     50 CA         12.3900   19.2400   15.8300 C.3       5 GLY6        0.0000 
     51 CA         12.6000   20.5700   15.1700 C.3       5 GLY6        0.0000 
     52 CA         14.9200   15.3500   18.9800 C.3       5 GLY6        0.0000 
     53 CA         16.3800   14.3800   20.9000 C.3       5 GLY6        0.0000 
     54 CA         13.8300   16.8900   21.7600 C.3       5 GLY6        0.0000 
     55 CA         15.3100   16.6200   21.6700 C.3       5 GLY6        0.0000 
     56 DU         13.6600   17.6400   16.4000 H         6 CUB7        0.0000 
     57 DU         13.8700   18.9700   15.7400 H         6 CUB7        0.0000 
     58 DU         14.0700   20.3000   15.0800 H         6 CUB7        0.0000 
     59 DU         15.5400   20.0300   15.0000 H         6 CUB7        0.0000 
     60 DU         11.9700   15.8800   19.1500 H         6 CUB7        0.0000 
     61 DU         13.4500   15.6100   19.0700 H         6 CUB7        0.0000 
     62 DU         13.6500   16.9500   18.4100 H         6 CUB7        0.0000 
     63 DU         15.1200   16.6800   18.3200 H         6 CUB7        0.0000 
     64 DU         13.8600   18.2800   17.7500 H         6 CUB7        0.0000 
     65 DU         15.3300   18.0100   17.6600 H         6 CUB7        0.0000 
     66 DU         14.0600   19.6100   17.0900 H         6 CUB7        0.0000 
     67 DU         17.0100   19.0700   16.9200 H         6 CUB7        0.0000 
     68 DU         14.2700   20.9400   16.4300 H         6 CUB7        0.0000 
     69 DU         15.7400   20.6700   16.3400 H         6 CUB7        0.0000 
     70 DU         15.1100   15.9800   20.3300 H         6 CUB7        0.0000 
     71 DU         16.7900   17.0500   19.5800 H         6 CUB7        0.0000 
     72 DU         15.7300   19.9800   18.3500 H         6 CUB7        0.0000 
@<TRIPOS>BOND
@<TRIPOS>SUBSTRUCTURE
     1 SER1        1 GROUP   
     2 ALA2        2 GROUP   
     3 ASP3       29 GROUP   
     4 PHE5       34 GROUP   
     5 GLY6       42 GROUP   
     6 CUB7       56 GROUP   
@<TRIPOS>SET

