#    Name: 6bxn_1_SAM_CAVITY_N1_ALL
#    Modification time : Fri May 22 19:36:12 2020

@<TRIPOS>MOLECULE
6bxn_1_SAM_CAVITY_N1_ALL
   68     0     6     0     0
SMALL
NO_CHARGES


@<TRIPOS>ATOM
      1 OG         14.4700   10.4300   53.2000 O.3       1 SER1        0.0000 
      2 OG         15.4600   15.0100   55.9000 O.3       1 SER1        0.0000 
      3 N          14.2600    9.1000   53.8600 N.am      2 ALA2        0.0000 
      4 N          12.5500   17.6200   50.0600 N.am      2 ALA2        0.0000 
      5 N          12.9800   10.0100   55.2900 N.am      2 ALA2        0.0000 
      6 N          14.4600    9.7400   55.2000 N.am      2 ALA2        0.0000 
      7 N          12.1200   14.2700   53.3900 N.am      2 ALA2        0.0000 
      8 N          13.6000   14.0000   53.3000 N.am      2 ALA2        0.0000 
      9 N          15.0700   13.7300   53.2200 N.am      2 ALA2        0.0000 
     10 N          12.3300   15.6000   52.7300 N.am      2 ALA2        0.0000 
     11 N          13.8000   15.3300   52.6400 N.am      2 ALA2        0.0000 
     12 N          15.2800   15.0600   52.5600 N.am      2 ALA2        0.0000 
     13 N          11.0600   17.2000   52.1500 N.am      2 ALA2        0.0000 
     14 N          12.5300   16.9300   52.0700 N.am      2 ALA2        0.0000 
     15 N          14.0100   16.6600   51.9800 N.am      2 ALA2        0.0000 
     16 N          15.4800   16.3900   51.9000 N.am      2 ALA2        0.0000 
     17 N           9.7900   18.8000   51.5700 N.am      2 ALA2        0.0000 
     18 N          11.2700   18.5300   51.4900 N.am      2 ALA2        0.0000 
     19 N          12.7400   18.2600   51.4000 N.am      2 ALA2        0.0000 
     20 N          14.2100   17.9900   51.3200 N.am      2 ALA2        0.0000 
     21 N          10.0000   20.1300   50.9100 N.am      2 ALA2        0.0000 
     22 N          11.4700   19.8600   50.8300 N.am      2 ALA2        0.0000 
     23 N          11.2500   17.8400   53.4900 N.am      2 ALA2        0.0000 
     24 N          11.4600   19.1700   52.8300 N.am      2 ALA2        0.0000 
     25 N          12.9300   18.9000   52.7500 N.am      2 ALA2        0.0000 
     26 N          11.6600   20.5000   52.1700 N.am      2 ALA2        0.0000 
     27 N          13.1400   20.2300   52.0900 N.am      2 ALA2        0.0000 
     28 O          14.1900   16.6100   55.3300 O.2       2 ALA2        0.0000 
     29 O          12.9200   18.2100   54.7500 O.2       2 ALA2        0.0000 
     30 O          14.4000   17.9400   54.6700 O.2       2 ALA2        0.0000 
     31 OD1        15.4700   15.7000   53.9000 O.co2     3 ASP3        0.0000 
     32 OD1        16.9400   15.4300   53.8200 O.co2     3 ASP3        0.0000 
     33 OD1        17.1500   16.7600   53.1500 O.co2     3 ASP3        0.0000 
     34 OD1        15.6600   16.3400   55.2400 O.co2     3 ASP3        0.0000 
     35 OD1        15.8700   17.6700   54.5800 O.co2     3 ASP3        0.0000 
     36 CZ         11.7200   11.6100   54.7100 C.ar      4 PHE5        0.0000 
     37 CZ         13.1900   11.3400   54.6200 C.ar      4 PHE5        0.0000 
     38 CZ         14.6600   11.0700   54.5400 C.ar      4 PHE5        0.0000 
     39 CZ         11.9200   12.9400   54.0500 C.ar      4 PHE5        0.0000 
     40 CZ         13.3900   12.6700   53.9600 C.ar      4 PHE5        0.0000 
     41 CZ         16.9300   14.7400   55.8200 C.ar      4 PHE5        0.0000 
     42 CA         14.6500   10.3800   56.5400 C.3       5 GLY6        0.0000 
     43 CA         11.9100   12.2400   56.0500 C.3       5 GLY6        0.0000 
     44 CA         13.3800   11.9800   55.9700 C.3       5 GLY6        0.0000 
     45 CA         12.1100   13.5800   55.3900 C.3       5 GLY6        0.0000 
     46 CA         12.3200   14.9100   54.7300 C.3       5 GLY6        0.0000 
     47 CA         11.0500   16.5100   54.1500 C.3       5 GLY6        0.0000 
     48 CA         12.5200   16.2400   54.0700 C.3       5 GLY6        0.0000 
     49 CA         14.2000   17.3000   53.3200 C.3       5 GLY6        0.0000 
     50 CA         15.6700   17.0300   53.2400 C.3       5 GLY6        0.0000 
     51 CA         14.4100   18.6300   52.6600 C.3       5 GLY6        0.0000 
     52 CA         13.7800   13.9400   56.6500 C.3       5 GLY6        0.0000 
     53 CA         15.2500   13.6700   56.5700 C.3       5 GLY6        0.0000 
     54 CA         13.9900   15.2700   55.9900 C.3       5 GLY6        0.0000 
     55 CA         12.7200   16.8700   55.4100 C.3       5 GLY6        0.0000 
     56 CA         11.4500   18.4700   54.8400 C.3       5 GLY6        0.0000 
     57 CA         13.1300   19.5400   54.0900 C.3       5 GLY6        0.0000 
     58 CA         14.6000   19.2700   54.0100 C.3       5 GLY6        0.0000 
     59 DU         15.7400    8.8300   53.7700 H         6 CUB7        0.0000 
     60 DU         15.9400   10.1600   53.1100 H         6 CUB7        0.0000 
     61 DU         14.8700   12.4000   53.8800 H         6 CUB7        0.0000 
     62 DU         16.1200   10.1100   56.4600 H         6 CUB7        0.0000 
     63 DU         14.8600   11.7100   55.8800 H         6 CUB7        0.0000 
     64 DU         13.5900   13.3100   55.3100 H         6 CUB7        0.0000 
     65 DU         13.7900   14.6400   54.6500 H         6 CUB7        0.0000 
     66 DU         15.2700   14.3700   54.5600 H         6 CUB7        0.0000 
     67 DU         14.0000   15.9700   53.9800 H         6 CUB7        0.0000 
     68 DU         12.7300   17.5700   53.4100 H         6 CUB7        0.0000 
@<TRIPOS>BOND
@<TRIPOS>SUBSTRUCTURE
     1 SER1        1 GROUP   
     2 ALA2        3 GROUP   
     3 ASP3       31 GROUP   
     4 PHE5       36 GROUP   
     5 GLY6       42 GROUP   
     6 CUB7       59 GROUP   
@<TRIPOS>SET

