#    Name: 6bxn_1_SAM_CAVITY_N1_4
#    Modification time : Fri May 22 19:36:12 2020

@<TRIPOS>MOLECULE
6bxn_1_SAM_CAVITY_N1_4
   50     0     6     0     0
SMALL
NO_CHARGES


@<TRIPOS>ATOM
      1 OG         15.4600   15.0100   55.9000 O.3       1 SER1        0.0000 
      2 N          12.5500   17.6200   50.0600 N.am      2 ALA2        0.0000 
      3 N          12.1200   14.2700   53.3900 N.am      2 ALA2        0.0000 
      4 N          13.6000   14.0000   53.3000 N.am      2 ALA2        0.0000 
      5 N          15.0700   13.7300   53.2200 N.am      2 ALA2        0.0000 
      6 N          12.3300   15.6000   52.7300 N.am      2 ALA2        0.0000 
      7 N          13.8000   15.3300   52.6400 N.am      2 ALA2        0.0000 
      8 N          15.2800   15.0600   52.5600 N.am      2 ALA2        0.0000 
      9 N          11.0600   17.2000   52.1500 N.am      2 ALA2        0.0000 
     10 N          12.5300   16.9300   52.0700 N.am      2 ALA2        0.0000 
     11 N          14.0100   16.6600   51.9800 N.am      2 ALA2        0.0000 
     12 N          15.4800   16.3900   51.9000 N.am      2 ALA2        0.0000 
     13 N          11.2700   18.5300   51.4900 N.am      2 ALA2        0.0000 
     14 N          12.7400   18.2600   51.4000 N.am      2 ALA2        0.0000 
     15 N          14.2100   17.9900   51.3200 N.am      2 ALA2        0.0000 
     16 N          11.2500   17.8400   53.4900 N.am      2 ALA2        0.0000 
     17 N          11.4600   19.1700   52.8300 N.am      2 ALA2        0.0000 
     18 N          12.9300   18.9000   52.7500 N.am      2 ALA2        0.0000 
     19 O          14.1900   16.6100   55.3300 O.2       2 ALA2        0.0000 
     20 O          12.9200   18.2100   54.7500 O.2       2 ALA2        0.0000 
     21 O          14.4000   17.9400   54.6700 O.2       2 ALA2        0.0000 
     22 OD1        15.4700   15.7000   53.9000 O.co2     3 ASP3        0.0000 
     23 OD1        16.9400   15.4300   53.8200 O.co2     3 ASP3        0.0000 
     24 OD1        17.1500   16.7600   53.1500 O.co2     3 ASP3        0.0000 
     25 OD1        15.6600   16.3400   55.2400 O.co2     3 ASP3        0.0000 
     26 OD1        15.8700   17.6700   54.5800 O.co2     3 ASP3        0.0000 
     27 CZ         11.9200   12.9400   54.0500 C.ar      4 PHE5        0.0000 
     28 CZ         13.3900   12.6700   53.9600 C.ar      4 PHE5        0.0000 
     29 CZ         16.9300   14.7400   55.8200 C.ar      4 PHE5        0.0000 
     30 CA         13.3800   11.9800   55.9700 C.3       5 GLY6        0.0000 
     31 CA         12.1100   13.5800   55.3900 C.3       5 GLY6        0.0000 
     32 CA         12.3200   14.9100   54.7300 C.3       5 GLY6        0.0000 
     33 CA         11.0500   16.5100   54.1500 C.3       5 GLY6        0.0000 
     34 CA         12.5200   16.2400   54.0700 C.3       5 GLY6        0.0000 
     35 CA         14.2000   17.3000   53.3200 C.3       5 GLY6        0.0000 
     36 CA         15.6700   17.0300   53.2400 C.3       5 GLY6        0.0000 
     37 CA         14.4100   18.6300   52.6600 C.3       5 GLY6        0.0000 
     38 CA         13.7800   13.9400   56.6500 C.3       5 GLY6        0.0000 
     39 CA         15.2500   13.6700   56.5700 C.3       5 GLY6        0.0000 
     40 CA         13.9900   15.2700   55.9900 C.3       5 GLY6        0.0000 
     41 CA         12.7200   16.8700   55.4100 C.3       5 GLY6        0.0000 
     42 CA         11.4500   18.4700   54.8400 C.3       5 GLY6        0.0000 
     43 CA         13.1300   19.5400   54.0900 C.3       5 GLY6        0.0000 
     44 CA         14.6000   19.2700   54.0100 C.3       5 GLY6        0.0000 
     45 DU         14.8700   12.4000   53.8800 H         6 CUB7        0.0000 
     46 DU         13.5900   13.3100   55.3100 H         6 CUB7        0.0000 
     47 DU         13.7900   14.6400   54.6500 H         6 CUB7        0.0000 
     48 DU         15.2700   14.3700   54.5600 H         6 CUB7        0.0000 
     49 DU         14.0000   15.9700   53.9800 H         6 CUB7        0.0000 
     50 DU         12.7300   17.5700   53.4100 H         6 CUB7        0.0000 
@<TRIPOS>BOND
@<TRIPOS>SUBSTRUCTURE
     1 SER1        1 GROUP   
     2 ALA2        2 GROUP   
     3 ASP3       22 GROUP   
     4 PHE5       27 GROUP   
     5 GLY6       30 GROUP   
     6 CUB7       45 GROUP   
@<TRIPOS>SET

