#    Name: 6bxn_2_SAM
#    Modification time : Fri May 22 19:36:14 2020

@<TRIPOS>MOLECULE
6bxn_2_SAM
   27    29     1     0     0
SMALL
NO_CHARGES


@<TRIPOS>ATOM
      1 N          12.4870   17.9030   18.1860 N.4       1 SAM901      0.0000 
      2 CA         13.6480   18.1720   17.3430 C.3       1 SAM901      0.0000 
      3 C          13.8900   17.0140   16.3650 C.2       1 SAM901      0.0000 
      4 O          12.9230   16.4250   15.9000 O.co2     1 SAM901      0.0000 
      5 OXT        15.0010   16.6320   15.9720 O.co2     1 SAM901      0.0000 
      6 CB         14.8580   18.4630   18.2270 C.3       1 SAM901      0.0000 
      7 CG         15.4150   17.2490   18.9480 C.3       1 SAM901      0.0000 
      8 SD         16.0470   17.5180   20.6250 S.3       1 SAM901      0.0000 
      9 CE         17.8070   17.9080   20.3800 C.3       1 SAM901      0.0000 
     10 C5'        16.2380   15.7470   20.9360 C.3       1 SAM901      0.0000 
     11 C4'        17.1350   15.5700   22.1440 C.3       1 SAM901      0.0000 
     12 O4'        16.3980   16.0210   23.2630 O.3       1 SAM901      0.0000 
     13 C3'        17.5580   14.1330   22.3790 C.3       1 SAM901      0.0000 
     14 O3'        18.9000   13.9980   21.9810 O.3       1 SAM901      0.0000 
     15 C2'        17.4390   13.9930   23.8760 C.3       1 SAM901      0.0000 
     16 O2'        18.7270   14.1410   24.4030 O.3       1 SAM901      0.0000 
     17 C1'        16.5940   15.1680   24.3590 C.3       1 SAM901      0.0000 
     18 N9         15.2740   14.6860   24.8250 N.pl3     1 SAM901      0.0000 
     19 C8         14.1170   14.5900   24.0970 C.2       1 SAM901      0.0000 
     20 N7         13.1690   14.0630   24.9130 N.2       1 SAM901      0.0000 
     21 C5         13.6990   13.7970   26.1240 C.ar      1 SAM901      0.0000 
     22 C6         13.1810   13.2570   27.3010 C.ar      1 SAM901      0.0000 
     23 N6         11.9080   12.8550   27.3950 N.pl3     1 SAM901      0.0000 
     24 N1         14.0150   13.1290   28.3880 N.ar      1 SAM901      0.0000 
     25 C2         15.3410   13.5070   28.3160 C.ar      1 SAM901      0.0000 
     26 N3         15.8380   14.0320   27.1560 N.ar      1 SAM901      0.0000 
     27 C4         15.0270   14.1780   26.0760 C.ar      1 SAM901      0.0000 
@<TRIPOS>BOND
     1    1    2 1    
     2    2    3 1    
     3    2    6 1    
     4    3    4 ar   
     5    3    5 ar   
     6    6    7 1    
     7    7    8 1    
     8    8    9 1    
     9    8   10 1    
    10   10   11 1    
    11   11   12 1    
    12   11   13 1    
    13   12   17 1    
    14   13   14 1    
    15   13   15 1    
    16   15   16 1    
    17   15   17 1    
    18   17   18 1    
    19   18   19 1    
    20   18   27 1    
    21   19   20 2    
    22   20   21 1    
    23   21   22 ar   
    24   21   27 ar   
    25   22   23 1    
    26   22   24 ar   
    27   24   25 ar   
    28   25   26 ar   
    29   26   27 ar   
@<TRIPOS>SUBSTRUCTURE
     1 SAM901      1 GROUP   
@<TRIPOS>SET

