#    Name: 6bxn_1_SAM
#    Modification time : Fri May 22 19:36:11 2020

@<TRIPOS>MOLECULE
6bxn_1_SAM
   27    29     1     0     0
SMALL
NO_CHARGES


@<TRIPOS>ATOM
      1 N          13.4680   15.4900   52.7310 N.4       1 SAM901      0.0000 
      2 CA         14.3950   15.1100   53.7870 C.3       1 SAM901      0.0000 
      3 C          14.4280   16.2140   54.8430 C.2       1 SAM901      0.0000 
      4 O          13.3740   16.7200   55.2170 O.co2     1 SAM901      0.0000 
      5 OXT        15.4680   16.6360   55.3540 O.co2     1 SAM901      0.0000 
      6 CB         15.7830   14.8170   53.2200 C.3       1 SAM901      0.0000 
      7 CG         16.4650   15.9620   52.4800 C.3       1 SAM901      0.0000 
      8 SD         16.3190   15.8820   50.6730 S.3       1 SAM901      0.0000 
      9 CE         17.8950   15.0750   50.3010 C.3       1 SAM901      0.0000 
     10 C5'        16.7960   17.6060   50.3740 C.3       1 SAM901      0.0000 
     11 C4'        17.5620   17.6700   49.0690 C.3       1 SAM901      0.0000 
     12 O4'        16.6690   17.2480   48.0510 O.3       1 SAM901      0.0000 
     13 C3'        18.0380   19.0710   48.6980 C.3       1 SAM901      0.0000 
     14 O3'        19.3900   19.2520   49.0440 O.3       1 SAM901      0.0000 
     15 C2'        17.8830   19.0910   47.1950 C.3       1 SAM901      0.0000 
     16 O2'        19.1170   18.6860   46.6640 O.3       1 SAM901      0.0000 
     17 C1'        16.8770   18.0010   46.8770 C.3       1 SAM901      0.0000 
     18 N9         15.5900   18.5720   46.4330 N.pl3     1 SAM901      0.0000 
     19 C8         14.4530   18.7110   47.1850 C.2       1 SAM901      0.0000 
     20 N7         13.5030   19.2710   46.4010 N.2       1 SAM901      0.0000 
     21 C5         14.0240   19.5010   45.1750 C.ar      1 SAM901      0.0000 
     22 C6         13.4990   20.0660   44.0250 C.ar      1 SAM901      0.0000 
     23 N6         12.2350   20.5110   43.9900 N.pl3     1 SAM901      0.0000 
     24 N1         14.3000   20.1590   42.9140 N.ar      1 SAM901      0.0000 
     25 C2         15.5920   19.6920   42.9320 C.ar      1 SAM901      0.0000 
     26 N3         16.0970   19.1490   44.0780 N.ar      1 SAM901      0.0000 
     27 C4         15.3290   19.0620   45.1820 C.ar      1 SAM901      0.0000 
@<TRIPOS>BOND
     1    1    2 1    
     2    2    3 1    
     3    2    6 1    
     4    3    4 ar   
     5    3    5 ar   
     6    6    7 1    
     7    7    8 1    
     8    8    9 1    
     9    8   10 1    
    10   10   11 1    
    11   11   12 1    
    12   11   13 1    
    13   12   17 1    
    14   13   14 1    
    15   13   15 1    
    16   15   16 1    
    17   15   17 1    
    18   17   18 1    
    19   18   19 1    
    20   18   27 1    
    21   19   20 2    
    22   20   21 1    
    23   21   22 ar   
    24   21   27 ar   
    25   22   23 1    
    26   22   24 ar   
    27   24   25 ar   
    28   25   26 ar   
    29   26   27 ar   
@<TRIPOS>SUBSTRUCTURE
     1 SAM901      1 GROUP   
@<TRIPOS>SET

