#    Name: 6a3g_1_NAI
#    Modification time : Fri May 22 19:29:49 2020

@<TRIPOS>MOLECULE
6a3g_1_NAI
   44    48     1     0     1
SMALL
NO_CHARGES


@<TRIPOS>ATOM
      1 PA        -32.2200  -16.5790    6.4800 P.3       1 NAI401      0.0000 
      2 O1A       -30.8740  -16.1610    5.9160 O.co2     1 NAI401      0.0000 
      3 O2A       -32.7700  -17.9240    6.1550 O.co2     1 NAI401      0.0000 
      4 O5B       -32.1700  -16.3640    8.0470 O.3       1 NAI401      0.0000 
      5 C5B       -33.3010  -16.5050    8.8850 C.3       1 NAI401      0.0000 
      6 C4B       -32.8810  -16.9830   10.2620 C.3       1 NAI401      0.0000 
      7 O4B       -34.0760  -17.0510   11.0540 O.3       1 NAI401      0.0000 
      8 C3B       -32.2050  -18.3400   10.2800 C.3       1 NAI401      0.0000 
      9 O3B       -30.8510  -18.1990   10.7150 O.3       1 NAI401      0.0000 
     10 C2B       -33.0460  -19.1450   11.2410 C.3       1 NAI401      0.0000 
     11 O2B       -32.3230  -20.0270   12.1150 O.3       1 NAI401      0.0000 
     12 C1B       -33.7690  -18.0450   12.0150 C.3       1 NAI401      0.0000 
     13 N9A       -34.9510  -18.5940   12.6740 N.pl3     1 NAI401      0.0000 
     14 C8A       -35.8250  -19.4930   12.1810 C.2       1 NAI401      0.0000 
     15 N7A       -36.7470  -19.7940   13.1170 N.2       1 NAI401      0.0000 
     16 C5A       -36.4760  -19.0560   14.2090 C.ar      1 NAI401      0.0000 
     17 C6A       -37.0210  -18.8840   15.5720 C.ar      1 NAI401      0.0000 
     18 N6A       -38.1210  -19.5360   15.9560 N.pl3     1 NAI401      0.0000 
     19 N1A       -36.4050  -18.0310   16.4270 N.ar      1 NAI401      0.0000 
     20 C2A       -35.3190  -17.3360   16.0620 C.ar      1 NAI401      0.0000 
     21 N3A       -34.7570  -17.4360   14.8360 N.ar      1 NAI401      0.0000 
     22 C4A       -35.2810  -18.2820   13.9050 C.ar      1 NAI401      0.0000 
     23 O3        -33.3490  -15.5100    6.0110 O.3       1 NAI401      0.0000 
     24 PN        -32.9670  -13.9880    5.6190 P.3       1 NAI401      0.0000 
     25 O1N       -32.1070  -13.3690    6.6820 O.co2     1 NAI401      0.0000 
     26 O2N       -32.5390  -13.9430    4.1640 O.co2     1 NAI401      0.0000 
     27 O5D       -34.4770  -13.4150    5.6090 O.3       1 NAI401      0.0000 
     28 C5D       -35.1310  -13.0850    6.8510 C.3       1 NAI401      0.0000 
     29 C4D       -36.2590  -12.0860    6.5370 C.3       1 NAI401      0.0000 
     30 O4D       -35.6950  -10.9690    5.8570 O.3       1 NAI401      0.0000 
     31 C3D       -37.2980  -12.6320    5.5720 C.3       1 NAI401      0.0000 
     32 O3D       -38.5800  -12.2130    5.9990 O.3       1 NAI401      0.0000 
     33 C2D       -36.9090  -12.0740    4.1910 C.3       1 NAI401      0.0000 
     34 O2D       -38.0190  -11.8590    3.3400 O.3       1 NAI401      0.0000 
     35 C1D       -36.2710  -10.7450    4.5640 C.3       1 NAI401      0.0000 
     36 N1N       -35.2140  -10.2560    3.7240 N.pl3     1 NAI401      0.0000 
     37 C2N       -35.1290   -8.9320    3.5010 C.2       1 NAI401      0.0000 
     38 C3N       -34.1130   -8.3340    2.6940 C.2       1 NAI401      0.0000 
     39 C7N       -34.0690   -6.8310    2.4110 C.2       1 NAI401      0.0000 
     40 O7N       -33.3830   -6.3290    1.4940 O.2       1 NAI401      0.0000 
     41 N7N       -34.8090   -6.0190    3.1960 N.am      1 NAI401      0.0000 
     42 C4N       -33.1440   -9.2220    2.1610 C.3       1 NAI401      0.0000 
     43 C5N       -33.2210  -10.6060    2.4650 C.2       1 NAI401      0.0000 
     44 C6N       -34.2630  -11.0900    3.2540 C.2       1 NAI401      0.0000 
@<TRIPOS>BOND
     1    1    2 ar   
     2    1    3 ar   
     3    1    4 1    
     4    1   23 1    
     5    4    5 1    
     6    5    6 1    
     7    6    7 1    
     8    6    8 1    
     9    7   12 1    
    10    8    9 1    
    11    8   10 1    
    12   10   11 1    
    13   10   12 1    
    14   12   13 1    
    15   13   14 1    
    16   13   22 1    
    17   14   15 2    
    18   15   16 1    
    19   16   17 ar   
    20   16   22 ar   
    21   17   18 1    
    22   17   19 ar   
    23   19   20 ar   
    24   20   21 ar   
    25   21   22 ar   
    26   23   24 1    
    27   24   25 ar   
    28   24   26 ar   
    29   24   27 1    
    30   27   28 1    
    31   28   29 1    
    32   29   30 1    
    33   29   31 1    
    34   30   35 1    
    35   31   32 1    
    36   31   33 1    
    37   33   34 1    
    38   33   35 1    
    39   35   36 1    
    40   36   37 1    
    41   36   44 1    
    42   37   38 2    
    43   38   39 1    
    44   38   42 1    
    45   39   40 2    
    46   39   41 am   
    47   42   43 1    
    48   43   44 2    
@<TRIPOS>SUBSTRUCTURE
     1 NAI401      1 GROUP   
@<TRIPOS>SET
ATOM$ORANGE STATIC     ATOMS   COLORGROUP SYSTEM 
42 5 5 6 6 8 8 10 10 12 12 14 14 16 16 17 17 20 \
20 22 22 28 28 29 29 31 31 33 33 35 35 37 37 38 38 39 \
39 42 42 43 43 44 44 

