#    Name: 6a3g_1_NAI_CAVITY_N1_6
#    Modification time : Fri May 22 19:29:51 2020

@<TRIPOS>MOLECULE
6a3g_1_NAI_CAVITY_N1_6
   66     0     6     0     0
SMALL
NO_CHARGES


@<TRIPOS>ATOM
      1 O         -32.7500  -11.0500   -2.4200 O.2       1 ALA2        0.0000 
      2 O         -32.5800  -12.5200   -2.1400 O.2       1 ALA2        0.0000 
      3 N         -37.3800  -11.8500    4.3200 N.am      1 ALA2        0.0000 
      4 N         -36.4300  -12.9800    5.8400 N.am      1 ALA2        0.0000 
      5 N         -35.6500  -12.6600    7.0800 N.am      1 ALA2        0.0000 
      6 O         -35.3100  -15.5800    7.6400 O.2       1 ALA2        0.0000 
      7 N         -34.2100  -14.1200    6.5600 N.am      1 ALA2        0.0000 
      8 O         -33.8700  -17.0500    7.1200 O.2       1 ALA2        0.0000 
      9 O         -32.6000  -17.0600    6.3200 O.2       1 ALA2        0.0000 
     10 N         -34.5300  -15.2600    8.8800 N.am      1 ALA2        0.0000 
     11 N         -33.2600  -15.2600    8.0800 N.am      1 ALA2        0.0000 
     12 O         -31.9900  -15.2700    7.2900 O.2       1 ALA2        0.0000 
     13 O         -32.3100  -16.4000    9.6000 O.2       1 ALA2        0.0000 
     14 OD1       -32.4100  -13.9800   -1.8600 O.co2     2 ASP3        0.0000 
     15 OD1       -33.0700  -12.1900   -0.1000 O.co2     2 ASP3        0.0000 
     16 OD1       -31.6300  -13.6500   -0.6200 O.co2     2 ASP3        0.0000 
     17 OD1       -31.4600  -15.1200   -0.3400 O.co2     2 ASP3        0.0000 
     18 OD1       -31.2900  -16.5800   -0.0600 O.co2     2 ASP3        0.0000 
     19 OD1       -31.1200  -18.0500    0.2100 O.co2     2 ASP3        0.0000 
     20 OD1       -36.2800  -10.3900    3.2500 O.co2     2 ASP3        0.0000 
     21 OD1       -36.1100  -11.8500    3.5300 O.co2     2 ASP3        0.0000 
     22 OD1       -35.9400  -13.3100    3.8100 O.co2     2 ASP3        0.0000 
     23 OD1       -35.0100  -10.3900    2.4500 O.co2     2 ASP3        0.0000 
     24 OD1       -33.7300  -10.3900    1.6600 O.co2     2 ASP3        0.0000 
     25 OD1       -35.1600  -12.9900    5.0500 O.co2     2 ASP3        0.0000 
     26 OD1       -33.8900  -12.9900    4.2500 O.co2     2 ASP3        0.0000 
     27 OD1       -33.7200  -14.4500    4.5300 O.co2     2 ASP3        0.0000 
     28 NZ        -34.0200  -11.0500   -1.6200 N.4       3 LYS4        0.0000 
     29 NZ        -33.8500  -12.5100   -1.3400 N.4       3 LYS4        0.0000 
     30 NZ        -35.5000  -10.0600    4.4900 N.4       3 LYS4        0.0000 
     31 CZ        -32.2400  -15.4400   -1.5800 C.ar      4 PHE5        0.0000 
     32 CZ        -31.9700  -10.7300   -1.1800 C.ar      4 PHE5        0.0000 
     33 CZ        -31.8000  -12.1900   -0.9000 C.ar      4 PHE5        0.0000 
     34 CZ        -37.2100  -13.3100    4.6000 C.ar      4 PHE5        0.0000 
     35 CZ        -32.4600  -10.4000    0.8600 C.ar      4 PHE5        0.0000 
     36 CZ        -32.2900  -11.8600    1.1400 C.ar      4 PHE5        0.0000 
     37 CZ        -30.8500  -13.3300    0.6200 C.ar      4 PHE5        0.0000 
     38 CZ        -29.5800  -13.3300   -0.1800 C.ar      4 PHE5        0.0000 
     39 CZ        -36.2600  -14.4500    6.1200 C.ar      4 PHE5        0.0000 
     40 CZ        -34.9900  -14.4500    5.3200 C.ar      4 PHE5        0.0000 
     41 CZ        -33.5500  -15.9200    4.8100 C.ar      4 PHE5        0.0000 
     42 CZ        -32.7900  -11.5300    3.1700 C.ar      4 PHE5        0.0000 
     43 CZ        -34.0400  -15.5900    6.8400 C.ar      4 PHE5        0.0000 
     44 CA        -30.7000  -10.7300   -1.9700 C.3       5 GLY6        0.0000 
     45 CA        -30.5300  -12.1900   -1.7000 C.3       5 GLY6        0.0000 
     46 CA        -30.3600  -13.6600   -1.4200 C.3       5 GLY6        0.0000 
     47 CA        -29.4100  -14.7900    0.1000 C.3       5 GLY6        0.0000 
     48 CA        -36.6000  -11.5200    5.5600 C.3       5 GLY6        0.0000 
     49 CA        -35.3300  -11.5200    4.7700 C.3       5 GLY6        0.0000 
     50 CA        -34.2300  -10.0600    3.6900 C.3       5 GLY6        0.0000 
     51 CA        -34.0600  -11.5300    3.9700 C.3       5 GLY6        0.0000 
     52 CA        -28.6300  -14.4700    1.3400 C.3       5 GLY6        0.0000 
     53 CA        -35.8200  -11.1900    6.8000 C.3       5 GLY6        0.0000 
     54 CA        -35.4800  -14.1200    7.3600 C.3       5 GLY6        0.0000 
     55 CA        -34.3800  -12.6600    6.2900 C.3       5 GLY6        0.0000 
     56 CA        -33.1100  -12.6600    5.4900 C.3       5 GLY6        0.0000 
     57 CA        -34.3600  -16.7200    9.1600 C.3       5 GLY6        0.0000 
     58 CA        -31.8200  -16.7300    7.5600 C.3       5 GLY6        0.0000 
     59 CA        -30.5500  -16.7300    6.7700 C.3       5 GLY6        0.0000 
     60 CA        -30.8700  -17.8700    9.0800 C.3       5 GLY6        0.0000 
     61 DU        -33.2400  -10.7200   -0.3800 H         6 CUB7        0.0000 
     62 DU        -30.1900  -15.1200   -1.1400 H         6 CUB7        0.0000 
     63 DU        -29.2400  -16.2600    0.3800 H         6 CUB7        0.0000 
     64 DU        -32.9400  -14.1300    5.7700 H         6 CUB7        0.0000 
     65 DU        -32.7700  -15.5900    6.0500 H         6 CUB7        0.0000 
     66 DU        -33.0900  -16.7300    8.3600 H         6 CUB7        0.0000 
@<TRIPOS>BOND
@<TRIPOS>SUBSTRUCTURE
     1 ALA2        1 GROUP   
     2 ASP3       14 GROUP   
     3 LYS4       28 GROUP   
     4 PHE5       31 GROUP   
     5 GLY6       44 GROUP   
     6 CUB7       61 GROUP   
@<TRIPOS>SET

