#    Name: 6o50_1_EBW_CAVITY_N1_4
#    Modification time : Fri May 22 19:33:00 2020

@<TRIPOS>MOLECULE
6o50_1_EBW_CAVITY_N1_4
   72     0     6     0     0
SMALL
NO_CHARGES


@<TRIPOS>ATOM
      1 OG         34.6000  -13.2700   -9.8200 O.3       1 SER1        0.0000 
      2 OG         35.5000  -14.4600   -9.6900 O.3       1 SER1        0.0000 
      3 OG         35.3000  -16.4200   -8.8900 O.3       1 SER1        0.0000 
      4 OG         33.9600  -13.5400   -7.8100 O.3       1 SER1        0.0000 
      5 OG         34.8600  -14.7300   -7.6800 O.3       1 SER1        0.0000 
      6 OG         33.7500  -15.5000   -7.0200 O.3       1 SER1        0.0000 
      7 OG         32.9100  -17.7200   -4.2200 O.3       1 SER1        0.0000 
      8 OG         32.7100  -19.6800   -3.4200 O.3       1 SER1        0.0000 
      9 OG         33.3700  -17.2300   -2.8800 O.3       1 SER1        0.0000 
     10 OG         34.2800  -18.4200   -2.7500 O.3       1 SER1        0.0000 
     11 OG         33.1700  -19.1800   -2.0800 O.3       1 SER1        0.0000 
     12 OG         32.9300  -15.5400   -1.6700 O.3       1 SER1        0.0000 
     13 OG         33.8400  -16.7300   -1.5400 O.3       1 SER1        0.0000 
     14 OG         32.2900  -15.8100    0.3300 O.3       1 SER1        0.0000 
     15 N          38.0300  -17.8100   -5.9600 N.am      2 ALA2        0.0000 
     16 N          38.9300  -19.0000   -5.8300 N.am      2 ALA2        0.0000 
     17 N          38.7300  -20.9600   -5.0300 N.am      2 ALA2        0.0000 
     18 N          37.3900  -18.0800   -3.9500 N.am      2 ALA2        0.0000 
     19 N          38.2900  -19.2700   -3.8300 N.am      2 ALA2        0.0000 
     20 N          37.8500  -17.5800   -2.6200 N.am      2 ALA2        0.0000 
     21 NZ         33.5800  -15.2700   -3.6700 N.4       3 LYS4        0.0000 
     22 CZ         36.1400  -14.1900  -11.6900 C.ar      4 PHE5        0.0000 
     23 CZ         35.7000  -12.5100  -10.4800 C.ar      4 PHE5        0.0000 
     24 CZ         36.6000  -13.7000  -10.3500 C.ar      4 PHE5        0.0000 
     25 CZ         37.5100  -14.8900  -10.2200 C.ar      4 PHE5        0.0000 
     26 CZ         36.4000  -15.6500   -9.5600 C.ar      4 PHE5        0.0000 
     27 CZ         37.3000  -16.8400   -9.4300 C.ar      4 PHE5        0.0000 
     28 CZ         36.2000  -17.6100   -8.7600 C.ar      4 PHE5        0.0000 
     29 CZ         37.1000  -18.8000   -8.6300 C.ar      4 PHE5        0.0000 
     30 CZ         35.0600  -12.7700   -8.4800 C.ar      4 PHE5        0.0000 
     31 CZ         37.0700  -13.2000   -9.0200 C.ar      4 PHE5        0.0000 
     32 CZ         35.9600  -13.9700   -8.3500 C.ar      4 PHE5        0.0000 
     33 CZ         37.9700  -14.3900   -8.8900 C.ar      4 PHE5        0.0000 
     34 CZ         36.8700  -15.1600   -8.2200 C.ar      4 PHE5        0.0000 
     35 CZ         35.7600  -15.9200   -7.5500 C.ar      4 PHE5        0.0000 
     36 CZ         34.6600  -16.6900   -6.8900 C.ar      4 PHE5        0.0000 
     37 CZ         33.5500  -17.4500   -6.2200 C.ar      4 PHE5        0.0000 
     38 CZ         36.6600  -17.1100   -7.4300 C.ar      4 PHE5        0.0000 
     39 CZ         35.5600  -17.8800   -6.7600 C.ar      4 PHE5        0.0000 
     40 CZ         34.4500  -18.6400   -6.0900 C.ar      4 PHE5        0.0000 
     41 CZ         37.5700  -18.3000   -7.3000 C.ar      4 PHE5        0.0000 
     42 CZ         36.4600  -19.0700   -6.6300 C.ar      4 PHE5        0.0000 
     43 CZ         37.3600  -20.2600   -6.5000 C.ar      4 PHE5        0.0000 
     44 CZ         37.1600  -22.2200   -5.7100 C.ar      4 PHE5        0.0000 
     45 CZ         35.1200  -16.1900   -5.5500 C.ar      4 PHE5        0.0000 
     46 CZ         34.0100  -16.9600   -4.8800 C.ar      4 PHE5        0.0000 
     47 CZ         37.1300  -16.6200   -6.0900 C.ar      4 PHE5        0.0000 
     48 CZ         36.0200  -17.3800   -5.4200 C.ar      4 PHE5        0.0000 
     49 CZ         34.9200  -18.1500   -4.7500 C.ar      4 PHE5        0.0000 
     50 CZ         33.8100  -18.9100   -4.0900 C.ar      4 PHE5        0.0000 
     51 CZ         35.8200  -19.3400   -4.6300 C.ar      4 PHE5        0.0000 
     52 CZ         36.7200  -20.5300   -4.5000 C.ar      4 PHE5        0.0000 
     53 CZ         34.4800  -16.4600   -3.5500 C.ar      4 PHE5        0.0000 
     54 CZ         36.4900  -16.8900   -4.0800 C.ar      4 PHE5        0.0000 
     55 CZ         36.9500  -16.3900   -2.7500 C.ar      4 PHE5        0.0000 
     56 CA         37.7700  -16.3500   -8.0900 C.3       5 GLY6        0.0000 
     57 CA         38.6700  -17.5400   -7.9600 C.3       5 GLY6        0.0000 
     58 CA         38.2700  -21.4500   -6.3700 C.3       5 GLY6        0.0000 
     59 CA         35.6200  -21.2900   -3.8300 C.3       5 GLY6        0.0000 
     60 CA         36.5200  -22.4900   -3.7000 C.3       5 GLY6        0.0000 
     61 CA         34.9400  -15.9600   -2.2100 C.3       5 GLY6        0.0000 
     62 CA         35.8400  -17.1600   -2.0800 C.3       5 GLY6        0.0000 
     63 CA         34.3000  -16.2300   -0.2000 C.3       5 GLY6        0.0000 
     64 DU         36.9200  -18.5700   -5.2900 H         6 CUB7        0.0000 
     65 DU         37.8300  -19.7600   -5.1600 H         6 CUB7        0.0000 
     66 DU         37.6300  -21.7200   -4.3700 H         6 CUB7        0.0000 
     67 DU         35.3800  -17.6500   -3.4200 H         6 CUB7        0.0000 
     68 DU         36.2800  -18.8400   -3.2900 H         6 CUB7        0.0000 
     69 DU         35.1800  -19.6100   -2.6200 H         6 CUB7        0.0000 
     70 DU         37.1900  -20.0300   -3.1600 H         6 CUB7        0.0000 
     71 DU         39.1900  -20.4600   -3.7000 H         6 CUB7        0.0000 
     72 DU         36.7500  -18.3500   -1.9500 H         6 CUB7        0.0000 
@<TRIPOS>BOND
@<TRIPOS>SUBSTRUCTURE
     1 SER1        1 GROUP   
     2 ALA2       15 GROUP   
     3 LYS4       21 GROUP   
     4 PHE5       22 GROUP   
     5 GLY6       56 GROUP   
     6 CUB7       64 GROUP   
@<TRIPOS>SET

