#    Name: 6o50_1_EBW
#    Modification time : Fri May 22 19:32:58 2020

@<TRIPOS>MOLECULE
6o50_1_EBW
   30    31     1     0     0
SMALL
NO_CHARGES


@<TRIPOS>ATOM
      1 C1         36.4330  -14.5840   -9.5220 C.2       1 EBW601      0.0000 
      2 C2         36.1190  -15.0520   -8.1200 C.3       1 EBW601      0.0000 
      3 C5         35.7320  -13.3790  -10.1010 C.3       1 EBW601      0.0000 
      4 C6         35.9060  -16.5480   -8.1250 C.3       1 EBW601      0.0000 
      5 C7         35.5950  -17.1250   -6.7640 C.ar      1 EBW601      0.0000 
      6 C8         36.4700  -18.0380   -6.2010 C.ar      1 EBW601      0.0000 
      7 C9         36.1960  -18.5770   -4.9560 C.ar      1 EBW601      0.0000 
      8 C10        35.0430  -18.2100   -4.2830 C.ar      1 EBW601      0.0000 
      9 C11        34.1670  -17.2950   -4.8450 C.ar      1 EBW601      0.0000 
     10 N1         32.3170   -9.2950  -13.6620 N.4       1 EBW601      0.0000 
     11 N2         34.7750  -18.7600   -3.0060 N.4       1 EBW601      0.0000 
     12 C12        34.4420  -16.7530   -6.0910 C.ar      1 EBW601      0.0000 
     13 C13        34.9340  -13.7740  -11.3230 C.3       1 EBW601      0.0000 
     14 C14        34.2430  -12.5880  -11.9510 C.ar      1 EBW601      0.0000 
     15 C15        33.2270  -11.9490  -11.2630 C.ar      1 EBW601      0.0000 
     16 C16        32.5890  -10.8580  -11.8320 C.ar      1 EBW601      0.0000 
     17 C17        32.9730  -10.4130  -13.0880 C.ar      1 EBW601      0.0000 
     18 C18        33.9920  -11.0550  -13.7750 C.ar      1 EBW601      0.0000 
     19 C19        34.6270  -12.1420  -13.2040 C.ar      1 EBW601      0.0000 
     20 C20        32.8540   -9.0390  -14.9490 C.3       1 EBW601      0.0000 
     21 C21        30.9270   -9.5660  -13.7570 C.3       1 EBW601      0.0000 
     22 C22        32.5380   -8.1660  -12.8320 C.3       1 EBW601      0.0000 
     23 C23        34.0020   -8.0740  -12.4570 C.2       1 EBW601      0.0000 
     24 C24        34.7750  -17.6830   -2.0810 C.3       1 EBW601      0.0000 
     25 C25        35.7900  -19.6990   -2.6820 C.3       1 EBW601      0.0000 
     26 C26        33.5130  -19.4090   -3.0000 C.3       1 EBW601      0.0000 
     27 C27        35.9540  -17.7720   -1.1400 C.2       1 EBW601      0.0000 
     28 C28        36.9620  -16.8870   -1.2730 C.2       1 EBW601      0.0000 
     29 C29        34.3570   -7.6210  -11.2380 C.2       1 EBW601      0.0000 
     30 O1         37.2480  -15.1870  -10.1900 O.2       1 EBW601      0.0000 
@<TRIPOS>BOND
     1    1    2 1    
     2    1    3 1    
     3    1   30 2    
     4    2    4 1    
     5    3   13 1    
     6    4    5 1    
     7    5    6 ar   
     8    5   12 ar   
     9    6    7 ar   
    10    7    8 ar   
    11    8    9 ar   
    12    8   11 1    
    13    9   12 ar   
    14   10   17 1    
    15   10   20 1    
    16   10   21 1    
    17   10   22 1    
    18   11   24 1    
    19   11   25 1    
    20   11   26 1    
    21   13   14 1    
    22   14   15 ar   
    23   14   19 ar   
    24   15   16 ar   
    25   16   17 ar   
    26   17   18 ar   
    27   18   19 ar   
    28   22   23 1    
    29   23   29 2    
    30   24   27 1    
    31   27   28 2    
@<TRIPOS>SUBSTRUCTURE
     1 EBW601      1 GROUP   
@<TRIPOS>SET

