#    Name: 6o50_2_EBW_CAVITY_N1_4
#    Modification time : Fri May 22 19:33:07 2020

@<TRIPOS>MOLECULE
6o50_2_EBW_CAVITY_N1_4
  109     0     6     0     0
SMALL
NO_CHARGES


@<TRIPOS>ATOM
      1 OG         33.0800  -20.1900    6.7300 O.3       1 SER1        0.0000 
      2 OG         31.9700  -20.9500    7.4000 O.3       1 SER1        0.0000 
      3 OG         25.5700  -21.4100   13.1500 O.3       1 SER1        0.0000 
      4 OG         26.4700  -22.6000   13.2800 O.3       1 SER1        0.0000 
      5 OG         25.3700  -23.3600   13.9400 O.3       1 SER1        0.0000 
      6 OG         24.2600  -24.1300   14.6100 O.3       1 SER1        0.0000 
      7 OG         28.4800  -23.0200   12.7400 O.3       1 SER1        0.0000 
      8 OG         31.5900  -22.6800   11.5400 O.3       1 SER1        0.0000 
      9 OG         30.4900  -23.4500   12.2000 O.3       1 SER1        0.0000 
     10 OG         26.9400  -22.1000   14.6100 O.3       1 SER1        0.0000 
     11 OG         27.8400  -23.2900   14.7400 O.3       1 SER1        0.0000 
     12 OG         30.9500  -22.9500   13.5400 O.3       1 SER1        0.0000 
     13 OG         29.8500  -23.7200   14.2100 O.3       1 SER1        0.0000 
     14 OG         29.4100  -22.0300   15.4100 O.3       1 SER1        0.0000 
     15 OG         28.3000  -22.8000   16.0800 O.3       1 SER1        0.0000 
     16 OG         26.5600  -23.8300   18.7500 O.3       1 SER1        0.0000 
     17 OG         28.5600  -24.2600   18.2100 O.3       1 SER1        0.0000 
     18 N          33.3100  -23.8300    6.3200 N.am      2 ALA2        0.0000 
     19 N          33.7800  -23.3400    7.6600 N.am      2 ALA2        0.0000 
     20 N          35.7800  -23.7600    7.1200 N.am      2 ALA2        0.0000 
     21 O          33.5400  -19.6900    8.0700 O.2       2 ALA2        0.0000 
     22 N          34.2400  -22.8400    8.9900 N.am      2 ALA2        0.0000 
     23 N          36.2500  -23.2700    8.4600 N.am      2 ALA2        0.0000 
     24 N          35.1400  -24.0300    9.1200 N.am      2 ALA2        0.0000 
     25 N          34.0400  -24.8000    9.7900 N.am      2 ALA2        0.0000 
     26 N          37.1500  -24.4600    8.5900 N.am      2 ALA2        0.0000 
     27 O          23.1600  -24.8900   15.2800 O.2       2 ALA2        0.0000 
     28 N          24.0600  -26.0800   15.4100 N.am      2 ALA2        0.0000 
     29 N          38.0200  -20.0500    8.3300 N.am      2 ALA2        0.0000 
     30 N          36.7100  -22.7700    9.7900 N.am      2 ALA2        0.0000 
     31 N          35.6100  -23.5400   10.4600 N.am      2 ALA2        0.0000 
     32 N          34.5000  -24.3000   11.1300 N.am      2 ALA2        0.0000 
     33 N          34.9700  -23.8000   12.4600 N.am      2 ALA2        0.0000 
     34 O          33.8600  -24.5700   13.1300 O.2       2 ALA2        0.0000 
     35 O          32.7600  -25.3300   13.8000 O.2       2 ALA2        0.0000 
     36 O          25.6500  -22.6400   18.6200 O.2       2 ALA2        0.0000 
     37 NZ         29.9600  -20.5300    7.9400 N.4       3 LYS4        0.0000 
     38 NZ         29.3200  -20.8000    9.9400 N.4       3 LYS4        0.0000 
     39 NZ         27.1100  -22.3300   11.2700 N.4       3 LYS4        0.0000 
     40 NZ         24.0900  -23.9000   17.9500 N.4       3 LYS4        0.0000 
     41 NZ         22.9800  -24.6700   18.6200 N.4       3 LYS4        0.0000 
     42 NZ         24.5500  -23.4000   19.2900 N.4       3 LYS4        0.0000 
     43 CZ         30.8700  -21.7200    8.0600 C.ar      4 PHE5        0.0000 
     44 CZ         32.8700  -22.1400    7.5300 C.ar      4 PHE5        0.0000 
     45 CZ         30.4300  -20.0300    9.2700 C.ar      4 PHE5        0.0000 
     46 CZ         32.4400  -20.4600    8.7400 C.ar      4 PHE5        0.0000 
     47 CZ         31.3300  -21.2200    9.4000 C.ar      4 PHE5        0.0000 
     48 CZ         30.2300  -21.9900   10.0700 C.ar      4 PHE5        0.0000 
     49 CZ         29.1200  -22.7500   10.7400 C.ar      4 PHE5        0.0000 
     50 CZ         35.5500  -20.1200    7.5300 C.ar      4 PHE5        0.0000 
     51 CZ         34.4400  -20.8800    8.2000 C.ar      4 PHE5        0.0000 
     52 CZ         32.2300  -22.4100    9.5300 C.ar      4 PHE5        0.0000 
     53 CZ         33.1400  -23.6100    9.6600 C.ar      4 PHE5        0.0000 
     54 CZ         31.7900  -20.7300   10.7400 C.ar      4 PHE5        0.0000 
     55 CZ         27.3800  -23.7900   13.4100 C.ar      4 PHE5        0.0000 
     56 CZ         33.8000  -21.1500   10.2000 C.ar      4 PHE5        0.0000 
     57 CZ         32.7000  -21.9200   10.8700 C.ar      4 PHE5        0.0000 
     58 CZ         36.9100  -20.8100    9.0000 C.ar      4 PHE5        0.0000 
     59 CZ         35.8100  -21.5800    9.6700 C.ar      4 PHE5        0.0000 
     60 CZ         34.7000  -22.3400   10.3300 C.ar      4 PHE5        0.0000 
     61 CZ         33.6000  -23.1100   11.0000 C.ar      4 PHE5        0.0000 
     62 CZ         32.4900  -23.8700   11.6600 C.ar      4 PHE5        0.0000 
     63 CZ         31.3900  -24.6400   12.3300 C.ar      4 PHE5        0.0000 
     64 CZ         30.2900  -25.4000   13.0000 C.ar      4 PHE5        0.0000 
     65 CZ         32.2900  -25.8300   12.4600 C.ar      4 PHE5        0.0000 
     66 CZ         23.8200  -22.4400   15.8200 C.ar      4 PHE5        0.0000 
     67 CZ         23.6200  -24.4000   16.6100 C.ar      4 PHE5        0.0000 
     68 CZ         22.5200  -25.1600   17.2800 C.ar      4 PHE5        0.0000 
     69 CZ         26.7300  -24.0600   15.4100 C.ar      4 PHE5        0.0000 
     70 CZ         25.6300  -24.8200   16.0800 C.ar      4 PHE5        0.0000 
     71 CZ         24.5200  -25.5900   16.7400 C.ar      4 PHE5        0.0000 
     72 CZ         32.0600  -22.1900   12.8700 C.ar      4 PHE5        0.0000 
     73 CZ         28.7400  -24.4800   14.8700 C.ar      4 PHE5        0.0000 
     74 CZ         27.6400  -25.2500   15.5400 C.ar      4 PHE5        0.0000 
     75 CZ         26.5300  -26.0100   16.2100 C.ar      4 PHE5        0.0000 
     76 CZ         34.0600  -22.6100   12.3400 C.ar      4 PHE5        0.0000 
     77 CZ         32.9600  -23.3800   13.0000 C.ar      4 PHE5        0.0000 
     78 CZ         31.8500  -24.1400   13.6700 C.ar      4 PHE5        0.0000 
     79 CZ         30.7500  -24.9100   14.3300 C.ar      4 PHE5        0.0000 
     80 CZ         37.1700  -22.2700   11.1300 C.ar      4 PHE5        0.0000 
     81 CZ         36.0700  -23.0400   11.8000 C.ar      4 PHE5        0.0000 
     82 CZ         23.1800  -22.7100   17.8200 C.ar      4 PHE5        0.0000 
     83 CZ         24.9900  -25.0900   18.0800 C.ar      4 PHE5        0.0000 
     84 CZ         30.3100  -23.2200   15.5400 C.ar      4 PHE5        0.0000 
     85 CZ         29.2000  -23.9900   16.2100 C.ar      4 PHE5        0.0000 
     86 CZ         28.1000  -24.7500   16.8800 C.ar      4 PHE5        0.0000 
     87 CZ         31.2100  -24.4100   15.6700 C.ar      4 PHE5        0.0000 
     88 CZ         29.6700  -23.4900   17.5500 C.ar      4 PHE5        0.0000 
     89 CZ         30.5700  -24.6800   17.6800 C.ar      4 PHE5        0.0000 
     90 CA         31.5100  -21.4500    6.0600 C.3       5 GLY6        0.0000 
     91 CA         32.4100  -22.6400    6.1900 C.3       5 GLY6        0.0000 
     92 CA         24.4700  -22.1700   13.8100 C.3       5 GLY6        0.0000 
     93 CA         33.4000  -25.0700   11.7900 C.3       5 GLY6        0.0000 
     94 CA         34.3000  -26.2600   11.9200 C.3       5 GLY6        0.0000 
     95 CA         24.2900  -21.9400   17.1600 C.3       5 GLY6        0.0000 
     96 CA         27.4000  -21.6000   15.9500 C.3       5 GLY6        0.0000 
     97 CA         26.2900  -22.3700   16.6200 C.3       5 GLY6        0.0000 
     98 CA         25.1900  -23.1400   17.2900 C.3       5 GLY6        0.0000 
     99 CA         27.6600  -23.0700   18.0900 C.3       5 GLY6        0.0000 
    100 DU         33.9800  -21.3800    6.8600 H         6 CUB7        0.0000 
    101 DU         34.8800  -22.5700    6.9900 H         6 CUB7        0.0000 
    102 DU         33.3400  -21.6500    8.8700 H         6 CUB7        0.0000 
    103 DU         36.4500  -21.3100    7.6600 H         6 CUB7        0.0000 
    104 DU         35.3500  -22.0700    8.3300 H         6 CUB7        0.0000 
    105 DU         37.3500  -22.5000    7.7900 H         6 CUB7        0.0000 
    106 DU         37.8200  -22.0000    9.1300 H         6 CUB7        0.0000 
    107 DU         25.8300  -22.8700   15.2800 H         6 CUB7        0.0000 
    108 DU         24.7300  -23.6300   15.9500 H         6 CUB7        0.0000 
    109 DU         27.2000  -23.5600   16.7500 H         6 CUB7        0.0000 
@<TRIPOS>BOND
@<TRIPOS>SUBSTRUCTURE
     1 SER1        1 GROUP   
     2 ALA2       18 GROUP   
     3 LYS4       37 GROUP   
     4 PHE5       43 GROUP   
     5 GLY6       90 GROUP   
     6 CUB7      100 GROUP   
@<TRIPOS>SET

