#    Name: 6o50_2_EBW
#    Modification time : Fri May 22 19:33:06 2020

@<TRIPOS>MOLECULE
6o50_2_EBW
   30    31     1     0     0
SMALL
NO_CHARGES


@<TRIPOS>ATOM
      1 C1         30.5960  -24.1020   13.3230 C.2       1 EBW601      0.0000 
      2 C2         30.7390  -23.4730   11.9560 C.3       1 EBW601      0.0000 
      3 C5         29.2610  -24.1300   14.0270 C.3       1 EBW601      0.0000 
      4 C6         32.0900  -22.7990   11.8960 C.3       1 EBW601      0.0000 
      5 C7         32.4790  -22.2190   10.5570 C.ar      1 EBW601      0.0000 
      6 C8         33.6470  -22.6560    9.9580 C.ar      1 EBW601      0.0000 
      7 C9         34.0340  -22.1340    8.7380 C.ar      1 EBW601      0.0000 
      8 C10        33.2570  -21.1690    8.1220 C.ar      1 EBW601      0.0000 
      9 C11        32.0850  -20.7280    8.7180 C.ar      1 EBW601      0.0000 
     10 N1         24.1460  -23.1230   17.6500 N.4       1 EBW601      0.0000 
     11 N2         33.6690  -20.6540    6.8680 N.4       1 EBW601      0.0000 
     12 C12        31.6970  -21.2510    9.9430 C.ar      1 EBW601      0.0000 
     13 C13        29.3550  -23.5080   15.4040 C.3       1 EBW601      0.0000 
     14 C14        27.9840  -23.4120   16.0250 C.ar      1 EBW601      0.0000 
     15 C15        26.9680  -22.8120   15.3020 C.ar      1 EBW601      0.0000 
     16 C16        25.6990  -22.7180   15.8450 C.ar      1 EBW601      0.0000 
     17 C17        25.4530  -23.2240   17.1120 C.ar      1 EBW601      0.0000 
     18 C18        26.4710  -23.8280   17.8350 C.ar      1 EBW601      0.0000 
     19 C19        27.7390  -23.9230   17.2890 C.ar      1 EBW601      0.0000 
     20 C20        24.1100  -23.7130   18.9370 C.3       1 EBW601      0.0000 
     21 C21        23.7690  -21.7580   17.7270 C.3       1 EBW601      0.0000 
     22 C22        23.2670  -23.8290   16.7890 C.3       1 EBW601      0.0000 
     23 C23        23.8150  -25.2160   16.5200 C.2       1 EBW601      0.0000 
     24 C24        32.8460  -21.2520    5.8790 C.3       1 EBW601      0.0000 
     25 C25        35.0300  -20.9980    6.6550 C.3       1 EBW601      0.0000 
     26 C26        33.5310  -19.2420    6.8410 C.3       1 EBW601      0.0000 
     27 C27        33.5640  -22.4110    5.2250 C.2       1 EBW601      0.0000 
     28 C28        33.2280  -23.6700    5.5740 C.2       1 EBW601      0.0000 
     29 C29        23.7170  -25.7570   15.2890 C.2       1 EBW601      0.0000 
     30 O1         31.5710  -24.5820   13.8640 O.2       1 EBW601      0.0000 
@<TRIPOS>BOND
     1    1    2 1    
     2    1    3 1    
     3    1   30 2    
     4    2    4 1    
     5    3   13 1    
     6    4    5 1    
     7    5    6 ar   
     8    5   12 ar   
     9    6    7 ar   
    10    7    8 ar   
    11    8    9 ar   
    12    8   11 1    
    13    9   12 ar   
    14   10   17 1    
    15   10   20 1    
    16   10   21 1    
    17   10   22 1    
    18   11   24 1    
    19   11   25 1    
    20   11   26 1    
    21   13   14 1    
    22   14   15 ar   
    23   14   19 ar   
    24   15   16 ar   
    25   16   17 ar   
    26   17   18 ar   
    27   18   19 ar   
    28   22   23 1    
    29   23   29 2    
    30   24   27 1    
    31   27   28 2    
@<TRIPOS>SUBSTRUCTURE
     1 EBW601      1 GROUP   
@<TRIPOS>SET

