#    Name: 6ko8_1_CHD
#    Modification time : Fri May 22 19:32:53 2020

@<TRIPOS>MOLECULE
6ko8_1_CHD
   29    32     1     0     0
SMALL
NO_CHARGES


@<TRIPOS>ATOM
      1 C1        -10.5690  -29.5660   11.7600 C.3       1 CHD201      0.0000 
      2 C2        -12.0430  -29.4590   12.0780 C.3       1 CHD201      0.0000 
      3 C3        -12.1500  -29.4310   13.5700 C.3       1 CHD201      0.0000 
      4 O3        -13.5030  -29.2630   13.9800 O.3       1 CHD201      0.0000 
      5 C4        -11.5990  -30.7050   14.1000 C.3       1 CHD201      0.0000 
      6 C5        -10.1700  -31.0330   13.6790 C.3       1 CHD201      0.0000 
      7 C6         -9.7020  -32.4140   14.1980 C.3       1 CHD201      0.0000 
      8 C7        -10.2700  -33.6090   13.4150 C.3       1 CHD201      0.0000 
      9 O7        -11.6580  -33.8600   13.7450 O.3       1 CHD201      0.0000 
     10 C8        -10.0770  -33.4280   11.9130 C.3       1 CHD201      0.0000 
     11 C9        -10.6690  -32.0900   11.4560 C.3       1 CHD201      0.0000 
     12 C10        -9.9500  -30.9060   12.1630 C.3       1 CHD201      0.0000 
     13 C11       -10.6800  -31.9300    9.9220 C.3       1 CHD201      0.0000 
     14 C12       -11.2320  -33.1320    9.1850 C.3       1 CHD201      0.0000 
     15 O12       -12.6670  -33.2060    9.4050 O.3       1 CHD201      0.0000 
     16 C13       -10.5140  -34.4160    9.6280 C.3       1 CHD201      0.0000 
     17 C14       -10.6990  -34.5720   11.1280 C.3       1 CHD201      0.0000 
     18 C15       -10.2020  -35.9690   11.4100 C.3       1 CHD201      0.0000 
     19 C16       -10.6240  -36.7680   10.1570 C.3       1 CHD201      0.0000 
     20 C17       -11.1040  -35.7410    9.0960 C.3       1 CHD201      0.0000 
     21 C18        -9.0140  -34.3540    9.2960 C.3       1 CHD201      0.0000 
     22 C19        -8.4380  -30.8470   11.8250 C.3       1 CHD201      0.0000 
     23 C20       -10.8020  -36.1130    7.6210 C.3       1 CHD201      0.0000 
     24 C21       -11.1910  -35.0190    6.6210 C.3       1 CHD201      0.0000 
     25 C22       -11.4930  -37.4140    7.2370 C.3       1 CHD201      0.0000 
     26 C23       -13.0120  -37.2990    7.1860 C.3       1 CHD201      0.0000 
     27 O25       -14.4000  -36.8270    9.0650 O.co2     1 CHD201      0.0000 
     28 C24       -13.6500  -37.6630    8.5130 C.2       1 CHD201      0.0000 
     29 O26       -13.3670  -38.7880    8.9820 O.co2     1 CHD201      0.0000 
@<TRIPOS>BOND
     1    1    2 1    
     2    1   12 1    
     3    2    3 1    
     4    3    4 1    
     5    3    5 1    
     6    5    6 1    
     7    6    7 1    
     8    6   12 1    
     9    7    8 1    
    10    8    9 1    
    11    8   10 1    
    12   10   11 1    
    13   10   17 1    
    14   11   12 1    
    15   11   13 1    
    16   12   22 1    
    17   13   14 1    
    18   14   15 1    
    19   14   16 1    
    20   16   17 1    
    21   16   20 1    
    22   16   21 1    
    23   17   18 1    
    24   18   19 1    
    25   19   20 1    
    26   20   23 1    
    27   23   24 1    
    28   23   25 1    
    29   25   26 1    
    30   26   28 1    
    31   27   28 ar   
    32   28   29 ar   
@<TRIPOS>SUBSTRUCTURE
     1 CHD201      1 GROUP   
@<TRIPOS>SET

