#    Name: 5n5i_1_LMP_CAVITY_N1_8
#    Modification time : Fri May 22 19:16:25 2020

@<TRIPOS>MOLECULE
5n5i_1_LMP_CAVITY_N1_8
  110     0     7     0     0
SMALL
NO_CHARGES


@<TRIPOS>ATOM
      1 OG         18.9300   14.3100   42.3000 O.3       1 SER1        0.0000 
      2 OG         18.7700   12.7900   43.7700 O.3       1 SER1        0.0000 
      3 OG         18.9000   14.2900   49.9500 O.3       1 SER1        0.0000 
      4 OG         19.8500   15.0400   50.8400 O.3       1 SER1        0.0000 
      5 OG         19.6900   13.5200   52.3100 O.3       1 SER1        0.0000 
      6 OG         21.1300   18.8400   48.7900 O.3       1 SER1        0.0000 
      7 OG         22.0700   19.5900   49.6800 O.3       1 SER1        0.0000 
      8 N          20.6100   13.7900   43.4800 N.am      2 ALA2        0.0000 
      9 O          21.4400   13.5200   47.9000 O.2       2 ALA2        0.0000 
     10 O          22.5500   15.7900   47.3200 O.2       2 ALA2        0.0000 
     11 O          21.6500   15.5400   48.4900 O.2       2 ALA2        0.0000 
     12 O          22.3900   14.2700   48.7900 O.2       2 ALA2        0.0000 
     13 O          23.5000   16.5500   48.2100 O.2       2 ALA2        0.0000 
     14 O          22.4800   15.2700   52.9100 O.2       2 ALA2        0.0000 
     15 O          23.2200   14.0000   53.2000 O.2       2 ALA2        0.0000 
     16 O          24.3300   16.2800   52.6200 O.2       2 ALA2        0.0000 
     17 O          25.1100   15.5000   54.9800 O.2       2 ALA2        0.0000 
     18 O          26.9600   16.5100   54.6900 O.2       2 ALA2        0.0000 
     19 OD1        20.5900   13.7700   51.1300 O.co2     3 ASP3        0.0000 
     20 OD1        21.5300   14.5200   52.0200 O.co2     3 ASP3        0.0000 
     21 NZ         12.8600   14.6000   43.4600 N.4       4 LYS4        0.0000 
     22 NZ         13.8100   15.3500   44.3500 N.4       4 LYS4        0.0000 
     23 NZ         16.3500   14.5800   42.2900 N.4       4 LYS4        0.0000 
     24 NZ         15.4500   14.3300   43.4700 N.4       4 LYS4        0.0000 
     25 NZ         14.5500   14.0800   44.6400 N.4       4 LYS4        0.0000 
     26 NZ         15.2800   12.8100   44.9300 N.4       4 LYS4        0.0000 
     27 NZ         17.1300   13.8100   44.6500 N.4       4 LYS4        0.0000 
     28 NZ         20.6300   14.2700   53.1900 N.4       4 LYS4        0.0000 
     29 NZ         27.0000   17.0100   56.7500 N.4       4 LYS4        0.0000 
     30 NZ         28.6400   15.9900   55.8800 N.4       4 LYS4        0.0000 
     31 CZ         15.7000   16.8600   46.1200 C.ar      5 PHE5        0.0000 
     32 CZ         17.3400   15.8300   45.2400 C.ar      5 PHE5        0.0000 
     33 CZ         16.4400   15.5800   46.4200 C.ar      5 PHE5        0.0000 
     34 CZ         20.4500   12.2600   44.9500 C.ar      5 PHE5        0.0000 
     35 CZ         19.5500   12.0100   46.1200 C.ar      5 PHE5        0.0000 
     36 CZ         18.2900   16.5900   46.1300 C.ar      5 PHE5        0.0000 
     37 CZ         19.0200   15.3100   46.4200 C.ar      5 PHE5        0.0000 
     38 CZ         18.1200   15.0600   47.6000 C.ar      5 PHE5        0.0000 
     39 CZ         18.8600   13.7900   47.8900 C.ar      5 PHE5        0.0000 
     40 CZ         20.5000   12.7700   47.0100 C.ar      5 PHE5        0.0000 
     41 CZ         19.9700   16.0600   47.3100 C.ar      5 PHE5        0.0000 
     42 CZ         19.0700   15.8100   48.4800 C.ar      5 PHE5        0.0000 
     43 CZ         19.8000   14.5400   48.7800 C.ar      5 PHE5        0.0000 
     44 CZ         20.5400   13.2700   49.0700 C.ar      5 PHE5        0.0000 
     45 CZ         20.1800   18.0900   47.9100 C.ar      5 PHE5        0.0000 
     46 CZ         20.9200   16.8200   48.2000 C.ar      5 PHE5        0.0000 
     47 CZ         20.0100   16.5700   49.3700 C.ar      5 PHE5        0.0000 
     48 CZ         19.1100   16.3200   50.5500 C.ar      5 PHE5        0.0000 
     49 CZ         18.9500   14.7900   52.0100 C.ar      5 PHE5        0.0000 
     50 CZ         20.2300   18.5900   49.9700 C.ar      5 PHE5        0.0000 
     51 CZ         20.9600   17.3200   50.2600 C.ar      5 PHE5        0.0000 
     52 CZ         20.0600   17.0700   51.4300 C.ar      5 PHE5        0.0000 
     53 CZ         19.9000   15.5400   52.9000 C.ar      5 PHE5        0.0000 
     54 CZ         22.8100   18.3200   49.9800 C.ar      5 PHE5        0.0000 
     55 CZ         21.9100   18.0700   51.1500 C.ar      5 PHE5        0.0000 
     56 CZ         22.6400   16.8000   51.4400 C.ar      5 PHE5        0.0000 
     57 CZ         21.7400   16.5500   52.6200 C.ar      5 PHE5        0.0000 
     58 CZ         20.8400   16.3000   53.7900 C.ar      5 PHE5        0.0000 
     59 CZ         20.6800   14.7700   55.2500 C.ar      5 PHE5        0.0000 
     60 CZ         23.4300   16.0300   53.8000 C.ar      5 PHE5        0.0000 
     61 CZ         22.5200   15.7800   54.9700 C.ar      5 PHE5        0.0000 
     62 CZ         21.6200   15.5200   56.1400 C.ar      5 PHE5        0.0000 
     63 CZ         23.2600   14.5000   55.2600 C.ar      5 PHE5        0.0000 
     64 CZ         25.2700   17.0300   53.5100 C.ar      5 PHE5        0.0000 
     65 CZ         24.3700   16.7800   54.6800 C.ar      5 PHE5        0.0000 
     66 CZ         23.4700   16.5300   55.8600 C.ar      5 PHE5        0.0000 
     67 CZ         24.2100   15.2500   56.1500 C.ar      5 PHE5        0.0000 
     68 CZ         25.3200   17.5300   55.5700 C.ar      5 PHE5        0.0000 
     69 CA         13.6400   13.8300   45.8100 C.3       6 GLY6        0.0000 
     70 CA         17.0800   13.3100   42.5900 C.3       6 GLY6        0.0000 
     71 CA         14.7600   16.1000   45.2300 C.3       6 GLY6        0.0000 
     72 CA         15.4900   14.8300   45.5300 C.3       6 GLY6        0.0000 
     73 CA         14.5900   14.5800   46.7000 C.3       6 GLY6        0.0000 
     74 CA         18.0300   14.0600   43.4800 C.3       6 GLY6        0.0000 
     75 CA         16.2300   13.5600   45.8200 C.3       6 GLY6        0.0000 
     76 CA         17.8700   12.5400   44.9400 C.3       6 GLY6        0.0000 
     77 CA         15.5400   15.3300   47.5900 C.3       6 GLY6        0.0000 
     78 CA         20.7800   15.3100   42.0200 C.3       6 GLY6        0.0000 
     79 CA         17.1800   14.3100   46.7100 C.3       6 GLY6        0.0000 
     80 CA         16.2700   14.0600   47.8800 C.3       6 GLY6        0.0000 
     81 CA         17.9100   13.0400   47.0000 C.3       6 GLY6        0.0000 
     82 CA         17.2200   14.8100   48.7700 C.3       6 GLY6        0.0000 
     83 CA         21.5600   14.5400   44.3700 C.3       6 GLY6        0.0000 
     84 CA         20.6600   14.2900   45.5500 C.3       6 GLY6        0.0000 
     85 CA         21.4000   13.0200   45.8400 C.3       6 GLY6        0.0000 
     86 CA         18.1700   15.5600   49.6600 C.3       6 GLY6        0.0000 
     87 CA         21.6100   15.0400   46.4300 C.3       6 GLY6        0.0000 
     88 CA         20.7100   14.7900   47.6100 C.3       6 GLY6        0.0000 
     89 CA         21.4900   14.0200   49.9600 C.3       6 GLY6        0.0000 
     90 CA         22.6000   16.3000   49.3800 C.3       6 GLY6        0.0000 
     91 CA         21.7000   16.0500   50.5500 C.3       6 GLY6        0.0000 
     92 CA         22.4300   14.7700   50.8500 C.3       6 GLY6        0.0000 
     93 CA         23.5500   17.0500   50.2700 C.3       6 GLY6        0.0000 
     94 CA         23.3800   15.5200   51.7400 C.3       6 GLY6        0.0000 
     95 DU         15.6600   16.3600   44.0600 H         7 CUB7        0.0000 
     96 DU         17.2900   15.3300   43.1800 H         7 CUB7        0.0000 
     97 DU         16.3900   15.0800   44.3500 H         7 CUB7        0.0000 
     98 DU         18.2400   16.0800   44.0700 H         7 CUB7        0.0000 
     99 DU         18.9800   14.8100   44.3600 H         7 CUB7        0.0000 
    100 DU         18.0800   14.5600   45.5400 H         7 CUB7        0.0000 
    101 DU         19.7100   13.5400   44.6600 H         7 CUB7        0.0000 
    102 DU         18.8100   13.2900   45.8300 H         7 CUB7        0.0000 
    103 DU         19.9200   15.5600   45.2500 H         7 CUB7        0.0000 
    104 DU         19.7600   14.0400   46.7200 H         7 CUB7        0.0000 
    105 DU         20.7500   15.2900   49.6700 H         7 CUB7        0.0000 
    106 DU         22.7600   17.8200   47.9200 H         7 CUB7        0.0000 
    107 DU         21.8600   17.5700   49.0900 H         7 CUB7        0.0000 
    108 DU         20.8000   15.7900   51.7300 H         7 CUB7        0.0000 
    109 DU         21.5800   15.0200   54.0800 H         7 CUB7        0.0000 
    110 DU         26.0600   16.2600   55.8700 H         7 CUB7        0.0000 
@<TRIPOS>BOND
@<TRIPOS>SUBSTRUCTURE
     1 SER1        1 GROUP   
     2 ALA2        8 GROUP   
     3 ASP3       19 GROUP   
     4 LYS4       21 GROUP   
     5 PHE5       31 GROUP   
     6 GLY6       69 GROUP   
     7 CUB7       95 GROUP   
@<TRIPOS>SET

