#    Name: 5n5i_1_LMP
#    Modification time : Fri May 22 19:16:24 2020

@<TRIPOS>MOLECULE
5n5i_1_LMP
   27    28     1     0     0
SMALL
NO_CHARGES


@<TRIPOS>ATOM
      1 C1         19.7520   15.8390   51.1250           1 LMP304      0.0000 
      2 C2         20.3630   15.2330   49.8700           1 LMP304      0.0000 
      3 C3         21.0820   14.0420   50.4320           1 LMP304      0.0000 
      4 O7A        16.9590   12.8930   43.8990           1 LMP304      0.0000 
      5 C6A        17.1440   13.7740   44.7270           1 LMP304      0.0000 
      6 N7A        16.1000   14.3720   45.3280           1 LMP304      0.0000 
      7 C9A        14.7810   13.7530   45.3260           1 LMP304      0.0000 
      8 C8A        16.1080   15.6580   46.0130           1 LMP304      0.0000 
      9 C5A        18.5870   14.1190   45.0430           1 LMP304      0.0000 
     10 C2A        19.0080   13.5180   46.3790           1 LMP304      0.0000 
     11 N3A        18.9760   15.5190   45.1000           1 LMP304      0.0000 
     12 C4A        19.6850   15.8840   46.3110           1 LMP304      0.0000 
     13 C1A        19.7890   14.5930   47.1200           1 LMP304      0.0000 
     14 S21        19.0850   14.7960   48.7250           1 LMP304      0.0000 
     15 C31        21.7860   13.0120   49.6850           1 LMP304      0.0000 
     16 O31        22.4200   13.3400   48.6500           1 LMP304      0.0000 
     17 O32        21.7300   11.8380   50.1340           1 LMP304      0.0000 
     18 N4         21.0450   13.9690   51.6850           1 LMP304      0.0000 
     19 C11        19.9220   17.3550   51.2010           1 LMP304      0.0000 
     20 C5         20.3020   15.0440   52.3250           1 LMP304      0.0000 
     21 C6         21.3050   15.7290   53.2640           1 LMP304      0.0000 
     22 C61        21.5800   14.7400   54.3940           1 LMP304      0.0000 
     23 O62        22.9640   14.3650   54.3830           1 LMP304      0.0000 
     24 C62        21.2020   15.3250   55.7470           1 LMP304      0.0000 
     25 C7         22.6390   16.1370   52.6710           1 LMP304      0.0000 
     26 O71        23.5720   16.3630   53.4740           1 LMP304      0.0000 
     27 O72        22.8090   16.2600   51.4350           1 LMP304      0.0000 
@<TRIPOS>BOND
     1    1    2 du   
     2    1   19 du   
     3    1   20 du   
     4    2    3 du   
     5    2   14 du   
     6    3   15 du   
     7    3   18 du   
     8    4    5 du   
     9    5    6 du   
    10    5    9 du   
    11    6    7 du   
    12    6    8 du   
    13    9   10 du   
    14    9   11 du   
    15   10   13 du   
    16   11   12 du   
    17   12   13 du   
    18   13   14 du   
    19   15   16 du   
    20   15   17 du   
    21   18   20 du   
    22   20   21 du   
    23   21   22 du   
    24   21   25 du   
    25   22   23 du   
    26   22   24 du   
    27   25   26 du   
    28   25   27 du   
@<TRIPOS>SUBSTRUCTURE
     1 LMP304      1 GROUP   
@<TRIPOS>SET

