#    Name: 6ccx_1_GNP
#    Modification time : Fri May 22 19:31:59 2020

@<TRIPOS>MOLECULE
6ccx_1_GNP
   32    34     1     0     1
SMALL
NO_CHARGES


@<TRIPOS>ATOM
      1 PG         21.6370    9.8470   31.3020 P.3       1 GNP235      0.0000 
      2 O1G        21.7040    9.1070   29.9740 O.co2     1 GNP235      0.0000 
      3 O2G        20.4680   10.7710   31.3860 O.co2     1 GNP235      0.0000 
      4 O3G        22.8190   10.6670   31.6240 O.co2     1 GNP235      0.0000 
      5 N3B        21.5820    8.7490   32.4910 N.3       1 GNP235      0.0000 
      6 PB         20.4400    8.5550   33.6050 P.3       1 GNP235      0.0000 
      7 O1B        19.3990    7.5920   33.1920 O.co2     1 GNP235      0.0000 
      8 O2B        19.9050    9.8780   33.9030 O.co2     1 GNP235      0.0000 
      9 O3A        21.1500    8.0370   34.8830 O.3       1 GNP235      0.0000 
     10 PA         21.9550    6.7200   35.2090 P.3       1 GNP235      0.0000 
     11 O1A        23.2290    6.6390   34.4800 O.co2     1 GNP235      0.0000 
     12 O2A        21.0520    5.5480   35.1760 O.co2     1 GNP235      0.0000 
     13 O5'        22.3970    6.8550   36.7000 O.3       1 GNP235      0.0000 
     14 C5'        23.3000    7.9240   37.0770 C.3       1 GNP235      0.0000 
     15 C4'        23.8360    7.6670   38.4630 C.3       1 GNP235      0.0000 
     16 O4'        22.7180    7.5360   39.3960 O.3       1 GNP235      0.0000 
     17 C3'        24.6480    6.3790   38.6080 C.3       1 GNP235      0.0000 
     18 O3'        25.8090    6.6220   39.3900 O.3       1 GNP235      0.0000 
     19 C2'        23.6570    5.4020   39.2300 C.3       1 GNP235      0.0000 
     20 O2'        24.2140    4.3380   39.9600 O.3       1 GNP235      0.0000 
     21 C1'        22.7900    6.2920   40.0960 C.3       1 GNP235      0.0000 
     22 N9         21.4040    5.7940   40.2980 N.pl3     1 GNP235      0.0000 
     23 C8         20.4390    5.7240   39.3390 C.2       1 GNP235      0.0000 
     24 N7         19.3090    5.2520   39.7760 N.2       1 GNP235      0.0000 
     25 C5         19.5360    4.9810   41.1310 C.2       1 GNP235      0.0000 
     26 C6         18.6650    4.4510   42.1400 C.2       1 GNP235      0.0000 
     27 O6         17.5040    4.0980   42.0640 O.2       1 GNP235      0.0000 
     28 N1         19.2730    4.3390   43.3680 N.am      1 GNP235      0.0000 
     29 C2         20.5730    4.6860   43.6340 C.2       1 GNP235      0.0000 
     30 N2         20.9650    4.4960   44.9040 N.pl3     1 GNP235      0.0000 
     31 N3         21.3970    5.1830   42.7170 N.2       1 GNP235      0.0000 
     32 C4         20.8170    5.3130   41.4780 C.2       1 GNP235      0.0000 
@<TRIPOS>BOND
     1    1    2 ar   
     2    1    3 ar   
     3    1    4 ar   
     4    1    5 1    
     5    5    6 1    
     6    6    7 ar   
     7    6    8 ar   
     8    6    9 1    
     9    9   10 1    
    10   10   11 ar   
    11   10   12 ar   
    12   10   13 1    
    13   13   14 1    
    14   14   15 1    
    15   15   16 1    
    16   15   17 1    
    17   16   21 1    
    18   17   18 1    
    19   17   19 1    
    20   19   20 1    
    21   19   21 1    
    22   21   22 1    
    23   22   23 1    
    24   22   32 1    
    25   23   24 2    
    26   24   25 1    
    27   25   26 1    
    28   25   32 2    
    29   26   27 2    
    30   26   28 am   
    31   28   29 1    
    32   29   30 1    
    33   29   31 2    
    34   31   32 1    
@<TRIPOS>SUBSTRUCTURE
     1 GNP235      1 GROUP   
@<TRIPOS>SET
ATOM$ORANGE STATIC     ATOMS   COLORGROUP SYSTEM 
20 14 14 15 15 17 17 19 19 21 21 23 23 25 25 26 26 29 \
29 32 32 

