#    Name: 6jup_2_0KX
#    Modification time : Fri May 22 19:33:10 2020

@<TRIPOS>MOLECULE
6jup_2_0KX
   28    29     1     0     0
SMALL
NO_CHARGES


@<TRIPOS>ATOM
      1 PG         93.6510   25.4830   10.8370 P.3       1 0KX401      0.0000 
      2 O1G        93.4250   23.9910   10.8940 O.co2     1 0KX401      0.0000 
      3 O2G        93.5600   25.9570    9.4080 O.co2     1 0KX401      0.0000 
      4 O3G        92.6480   26.2130   11.6930 O.co2     1 0KX401      0.0000 
      5 PB         96.0880   24.6280   12.0130 P.3       1 0KX401      0.0000 
      6 O1B        97.0820   25.1600   13.0180 O.co2     1 0KX401      0.0000 
      7 O2B        95.2120   23.5700   12.6390 O.co2     1 0KX401      0.0000 
      8 O3B        95.1380   25.8300   11.4350 O.3       1 0KX401      0.0000 
      9 PA         96.7440   22.3170   10.3180 P.3       1 0KX401      0.0000 
     10 O1A        97.0780   22.0850    8.8640 O.co2     1 0KX401      0.0000 
     11 O2A        95.3270   21.8810   10.5950 O.co2     1 0KX401      0.0000 
     12 N3A        96.9330   23.9580   10.6940 N.3       1 0KX401      0.0000 
     13 O5'        97.7950   21.5110   11.2940 O.3       1 0KX401      0.0000 
     14 C5'        97.7270   21.7770   12.6640 C.3       1 0KX401      0.0000 
     15 C4'        99.1630   21.7700   13.2500 C.3       1 0KX401      0.0000 
     16 O4'        99.9280   21.0780   12.5150 O.3       1 0KX401      0.0000 
     17 C3'        99.7050   23.2380   13.1470 C.3       1 0KX401      0.0000 
     18 O3'        99.3550   23.9450   14.2710 O.3       1 0KX401      0.0000 
     19 C2'       101.1690   23.0590   13.0030 C.3       1 0KX401      0.0000 
     20 C1'       101.3070   21.8880   12.3900 C.3       1 0KX401      0.0000 
     21 N1        101.6510   22.0830   11.0140 N.am      1 0KX401      0.0000 
     22 C2        103.0910   22.1570   10.6780 C.2       1 0KX401      0.0000 
     23 N3        103.5100   22.3580    9.2650 N.2       1 0KX401      0.0000 
     24 C4        102.5140   22.4820    8.2170 C.2       1 0KX401      0.0000 
     25 C5        101.0680   22.4090    8.5520 C.2       1 0KX401      0.0000 
     26 C6        100.6480   22.2100    9.9680 C.2       1 0KX401      0.0000 
     27 O2        103.8910   22.0530   11.5450 O.2       1 0KX401      0.0000 
     28 N4        102.9350   22.6790    6.8420 N.pl3     1 0KX401      0.0000 
@<TRIPOS>BOND
     1    1    2 ar   
     2    1    3 ar   
     3    1    4 ar   
     4    1    8 1    
     5    5    6 ar   
     6    5    7 ar   
     7    5    8 1    
     8    5   12 1    
     9    9   10 ar   
    10    9   11 ar   
    11    9   12 1    
    12    9   13 1    
    13   13   14 1    
    14   14   15 1    
    15   15   16 1    
    16   15   17 1    
    17   16   20 1    
    18   17   18 1    
    19   17   19 1    
    20   19   20 1    
    21   20   21 1    
    22   21   22 am   
    23   21   26 1    
    24   22   23 1    
    25   22   27 2    
    26   23   24 2    
    27   24   25 1    
    28   24   28 1    
    29   25   26 2    
@<TRIPOS>SUBSTRUCTURE
     1 0KX401      1 GROUP   
@<TRIPOS>SET

