#    Name: 6jup_1_0KX
#    Modification time : Fri May 22 19:33:05 2020

@<TRIPOS>MOLECULE
6jup_1_0KX
   28    29     1     0     0
SMALL
NO_CHARGES


@<TRIPOS>ATOM
      1 PG        120.2280   31.0850  -49.5000 P.3       1 0KX401      0.0000 
      2 O1G       120.0440   29.6180  -49.8070 O.co2     1 0KX401      0.0000 
      3 O2G       119.5970   31.9170  -50.5910 O.co2     1 0KX401      0.0000 
      4 O3G       121.7020   31.3910  -49.3920 O.co2     1 0KX401      0.0000 
      5 PB        118.6880   30.2460  -47.2460 P.3       1 0KX401      0.0000 
      6 O1B       117.6700   30.8240  -46.3000 O.co2     1 0KX401      0.0000 
      7 O2B       117.9980   29.3400  -48.2370 O.co2     1 0KX401      0.0000 
      8 O3B       119.4930   31.4190  -48.0670 O.3       1 0KX401      0.0000 
      9 PA        120.0310   27.7100  -46.6940 P.3       1 0KX401      0.0000 
     10 O1A       119.7920   27.4690  -48.1660 O.co2     1 0KX401      0.0000 
     11 O2A       121.4370   27.2980  -46.3260 O.co2     1 0KX401      0.0000 
     12 N3A       119.8250   29.3570  -46.3470 N.3       1 0KX401      0.0000 
     13 O5'       118.9260   26.8740  -45.8010 O.3       1 0KX401      0.0000 
     14 C5'       117.5820   27.2450  -45.9080 C.3       1 0KX401      0.0000 
     15 C4'       116.9030   27.2040  -44.5070 C.3       1 0KX401      0.0000 
     16 O4'       117.5810   26.4860  -43.7170 O.3       1 0KX401      0.0000 
     17 C3'       116.9180   28.6280  -43.8420 C.3       1 0KX401      0.0000 
     18 O3'       115.8360   29.3680  -44.2410 O.3       1 0KX401      0.0000 
     19 C2'       116.8230   28.3120  -42.3970 C.3       1 0KX401      0.0000 
     20 C1'       117.4160   27.1300  -42.2550 C.3       1 0KX401      0.0000 
     21 N1        118.7000   27.3150  -41.6490 N.am      1 0KX401      0.0000 
     22 C2        118.8090   27.3770  -40.1660 C.2       1 0KX401      0.0000 
     23 N3        120.1420   27.5730  -39.5370 N.2       1 0KX401      0.0000 
     24 C4        121.3310   27.7060  -40.3560 C.2       1 0KX401      0.0000 
     25 C5        121.2230   27.6450  -41.8380 C.2       1 0KX401      0.0000 
     26 C6        119.8910   27.4490  -42.4710 C.2       1 0KX401      0.0000 
     27 O2        117.8420   27.2690  -39.4910 O.2       1 0KX401      0.0000 
     28 N4        122.6230   27.8970  -39.7260 N.pl3     1 0KX401      0.0000 
@<TRIPOS>BOND
     1    1    2 ar   
     2    1    3 ar   
     3    1    4 ar   
     4    1    8 1    
     5    5    6 ar   
     6    5    7 ar   
     7    5    8 1    
     8    5   12 1    
     9    9   10 ar   
    10    9   11 ar   
    11    9   12 1    
    12    9   13 1    
    13   13   14 1    
    14   14   15 1    
    15   15   16 1    
    16   15   17 1    
    17   16   20 1    
    18   17   18 1    
    19   17   19 1    
    20   19   20 1    
    21   20   21 1    
    22   21   22 am   
    23   21   26 1    
    24   22   23 1    
    25   22   27 2    
    26   23   24 2    
    27   24   25 1    
    28   24   28 1    
    29   25   26 2    
@<TRIPOS>SUBSTRUCTURE
     1 0KX401      1 GROUP   
@<TRIPOS>SET

