#    Name: 6jup_2_0KX_CAVITY_N1_8
#    Modification time : Fri May 22 19:33:11 2020

@<TRIPOS>MOLECULE
6jup_2_0KX_CAVITY_N1_8
   69     0     7     0     0
SMALL
NO_CHARGES


@<TRIPOS>ATOM
      1 OG         97.3900   25.2900    9.2900 O.3       1 SER1        0.0000 
      2 OG         97.9500   25.6100   10.6400 O.3       1 SER1        0.0000 
      3 OG         98.4600   24.2000   10.7700 O.3       1 SER1        0.0000 
      4 OG         98.4600   18.0800   13.9000 O.3       1 SER1        0.0000 
      5 OG        102.4500   22.7800   14.4500 O.3       1 SER1        0.0000 
      6 N          98.1800   20.9800   11.6600 N.am      2 ALA2        0.0000 
      7 N         100.2600   23.2100   10.2600 N.am      2 ALA2        0.0000 
      8 O          96.4300   23.7100   13.3900 O.2       2 ALA2        0.0000 
      9 N          97.2100   25.5200   12.6300 N.am      2 ALA2        0.0000 
     10 O          97.7200   24.1200   12.7500 O.2       2 ALA2        0.0000 
     11 N          98.7400   21.3100   13.0100 N.am      2 ALA2        0.0000 
     12 N          99.2500   19.9000   13.1400 N.am      2 ALA2        0.0000 
     13 N          99.7600   18.5000   13.2600 N.am      2 ALA2        0.0000 
     14 N          98.5100   25.9300   11.9900 N.am      2 ALA2        0.0000 
     15 N          99.5300   23.1200   12.2500 N.am      2 ALA2        0.0000 
     16 N         100.8200   23.5400   11.6100 N.am      2 ALA2        0.0000 
     17 N         101.3300   22.1300   11.7400 N.am      2 ALA2        0.0000 
     18 O          98.2800   24.4400   14.1100 O.2       2 ALA2        0.0000 
     19 N         101.3800   23.8600   12.9700 N.am      2 ALA2        0.0000 
     20 N         101.8900   22.4600   13.0900 N.am      2 ALA2        0.0000 
     21 OD1        96.6000   23.4700   10.0500 O.co2     3 ASP3        0.0000 
     22 OD1        95.3600   24.7900   11.9100 O.co2     3 ASP3        0.0000 
     23 OD1        96.6500   25.2000   11.2700 O.co2     3 ASP3        0.0000 
     24 OD1        97.1600   23.7900   11.4000 O.co2     3 ASP3        0.0000 
     25 NZ         97.6700   22.3900   11.5300 N.4       4 LYS4        0.0000 
     26 NZ         96.9400   22.3000   13.5200 N.4       4 LYS4        0.0000 
     27 NZ         97.9500   19.4900   13.7700 N.4       4 LYS4        0.0000 
     28 NZ         98.2300   22.7100   12.8800 N.4       4 LYS4        0.0000 
     29 CZ         98.5100   19.8100   15.1200 C.ar      5 PHE5        0.0000 
     30 CZ         99.3000   21.6300   14.3600 C.ar      5 PHE5        0.0000 
     31 CZ         99.8100   20.2300   14.4900 C.ar      5 PHE5        0.0000 
     32 CZ         99.8600   21.9600   15.7200 C.ar      5 PHE5        0.0000 
     33 CZ        100.3700   20.5500   15.8400 C.ar      5 PHE5        0.0000 
     34 CZ        100.9300   20.8800   17.2000 C.ar      5 PHE5        0.0000 
     35 CZ        102.2200   21.2900   16.5600 C.ar      5 PHE5        0.0000 
     36 CZ        103.2400   18.4800   16.8100 C.ar      5 PHE5        0.0000 
     37 CZ        103.2900   20.2100   18.0400 C.ar      5 PHE5        0.0000 
     38 CA         98.9700   22.8000   10.8900 C.3       6 GLY6        0.0000 
     39 CA        100.2700   17.0900   13.3900 C.3       6 GLY6        0.0000 
     40 CA         99.0200   24.5300   12.1200 C.3       6 GLY6        0.0000 
     41 CA        100.0400   21.7200   12.3700 C.3       6 GLY6        0.0000 
     42 CA        100.5400   20.3100   12.5000 C.3       6 GLY6        0.0000 
     43 CA         98.0000   21.2200   15.0000 C.3       6 GLY6        0.0000 
     44 CA         99.0200   18.4100   15.2500 C.3       6 GLY6        0.0000 
     45 CA         98.7900   23.0400   14.2400 C.3       6 GLY6        0.0000 
     46 CA        100.3200   18.8200   14.6200 C.3       6 GLY6        0.0000 
     47 CA        100.8300   17.4200   14.7400 C.3       6 GLY6        0.0000 
     48 CA        100.0900   23.4500   13.6000 C.3       6 GLY6        0.0000 
     49 CA        103.1900   22.8700   12.4600 C.3       6 GLY6        0.0000 
     50 CA        100.8800   19.1500   15.9700 C.3       6 GLY6        0.0000 
     51 CA        101.3900   17.7400   16.1000 C.3       6 GLY6        0.0000 
     52 CA        100.6500   23.7700   14.9500 C.3       6 GLY6        0.0000 
     53 CA        101.1500   22.3700   15.0800 C.3       6 GLY6        0.0000 
     54 CA        102.6800   18.1500   15.4600 C.3       6 GLY6        0.0000 
     55 CA        101.9400   24.1900   14.3200 C.3       6 GLY6        0.0000 
     56 CA        104.2500   21.7900   13.9400 C.3       6 GLY6        0.0000 
     57 CA        100.4200   22.2800   17.0700 C.3       6 GLY6        0.0000 
     58 CA        101.4400   19.4700   17.3200 C.3       6 GLY6        0.0000 
     59 CA        101.7100   22.6900   16.4300 C.3       6 GLY6        0.0000 
     60 CA        102.7300   19.8800   16.6900 C.3       6 GLY6        0.0000 
     61 DU        100.6000   22.0400   13.7300 H         7 CUB7        0.0000 
     62 DU        101.1000   20.6400   13.8500 H         7 CUB7        0.0000 
     63 DU        101.6100   19.2300   13.9800 H         7 CUB7        0.0000 
     64 DU        102.4000   21.0500   13.2200 H         7 CUB7        0.0000 
     65 DU        101.6600   20.9600   15.2100 H         7 CUB7        0.0000 
     66 DU        102.1700   19.5600   15.3300 H         7 CUB7        0.0000 
     67 DU        102.9600   21.3800   14.5700 H         7 CUB7        0.0000 
     68 DU        103.5200   21.7000   15.9300 H         7 CUB7        0.0000 
     69 DU        104.0300   20.2900   16.0500 H         7 CUB7        0.0000 
@<TRIPOS>BOND
@<TRIPOS>SUBSTRUCTURE
     1 SER1        1 GROUP   
     2 ALA2        6 GROUP   
     3 ASP3       21 GROUP   
     4 LYS4       25 GROUP   
     5 PHE5       29 GROUP   
     6 GLY6       38 GROUP   
     7 CUB7       61 GROUP   
@<TRIPOS>SET

