#    Name: 6jup_1_0KX_CAVITY_N1_4
#    Modification time : Fri May 22 19:33:06 2020

@<TRIPOS>MOLECULE
6jup_1_0KX_CAVITY_N1_4
   74     0     7     0     0
SMALL
NO_CHARGES


@<TRIPOS>ATOM
      1 OG        116.4200   24.0900  -44.8500 O.3       1 SER1        0.0000 
      2 OG        113.9800   28.4600  -39.9000 O.3       1 SER1        0.0000 
      3 OG        116.5700   29.2800  -41.1700 O.3       1 SER1        0.0000 
      4 OG        114.5400   28.7800  -38.5400 O.3       1 SER1        0.0000 
      5 O         119.0100   31.0300  -49.2400 O.2       2 ALA2        0.0000 
      6 O         117.4800   29.1300  -46.5000 O.2       2 ALA2        0.0000 
      7 N         118.5000   26.3200  -46.2400 N.am      2 ALA2        0.0000 
      8 N         117.5400   30.8600  -45.2700 N.am      2 ALA2        0.0000 
      9 N         118.8300   31.2700  -45.9000 N.am      2 ALA2        0.0000 
     10 N         117.0300   26.1400  -42.2700 N.am      2 ALA2        0.0000 
     11 N         117.3100   29.3700  -43.1500 N.am      2 ALA2        0.0000 
     12 N         117.8200   27.9600  -43.0300 N.am      2 ALA2        0.0000 
     13 N         118.6000   29.7800  -43.7900 N.am      2 ALA2        0.0000 
     14 N         119.1100   28.3700  -43.6600 N.am      2 ALA2        0.0000 
     15 N         119.3900   31.6000  -44.5500 N.am      2 ALA2        0.0000 
     16 N         117.0800   27.8700  -41.0400 N.am      2 ALA2        0.0000 
     17 OD1       120.3000   31.4500  -49.8800 O.co2     3 ASP3        0.0000 
     18 OD1       120.8100   30.0400  -49.7500 O.co2     3 ASP3        0.0000 
     19 OD1       121.6000   31.8600  -50.5100 O.co2     3 ASP3        0.0000 
     20 OD1       122.1100   30.4500  -50.3900 O.co2     3 ASP3        0.0000 
     21 OD1       118.7800   29.5400  -47.1300 O.co2     3 ASP3        0.0000 
     22 OD1       119.2900   28.1400  -47.0000 O.co2     3 ASP3        0.0000 
     23 OD1       119.5700   31.3600  -47.8900 O.co2     3 ASP3        0.0000 
     24 OD1       120.0800   29.9500  -47.7600 O.co2     3 ASP3        0.0000 
     25 OD1       120.5800   28.5500  -47.6400 O.co2     3 ASP3        0.0000 
     26 OD1       121.0900   27.1400  -47.5100 O.co2     3 ASP3        0.0000 
     27 OD1       120.8600   31.7700  -48.5300 O.co2     3 ASP3        0.0000 
     28 OD1       121.3700   30.3700  -48.4000 O.co2     3 ASP3        0.0000 
     29 OD1       121.8800   28.9600  -48.2700 O.co2     3 ASP3        0.0000 
     30 OD1       122.6700   30.7800  -49.0300 O.co2     3 ASP3        0.0000 
     31 OD1       120.1300   31.6800  -46.5400 O.co2     3 ASP3        0.0000 
     32 OD1       121.4200   32.1000  -47.1700 O.co2     3 ASP3        0.0000 
     33 OD1       120.1800   33.4100  -45.3100 O.co2     3 ASP3        0.0000 
     34 NZ        121.3200   28.6400  -49.6200 N.4       4 LYS4        0.0000 
     35 NZ        122.6200   29.0500  -50.2600 N.4       4 LYS4        0.0000 
     36 NZ        123.1200   27.6400  -50.1300 N.4       4 LYS4        0.0000 
     37 NZ        117.2100   25.9100  -45.6100 N.4       4 LYS4        0.0000 
     38 NZ        117.9900   27.7200  -46.3700 N.4       4 LYS4        0.0000 
     39 NZ        122.3900   27.5500  -48.1400 N.4       4 LYS4        0.0000 
     40 NZ        123.1800   29.3700  -48.9100 N.4       4 LYS4        0.0000 
     41 NZ        123.9600   31.1900  -49.6700 N.4       4 LYS4        0.0000 
     42 CZ        114.6200   25.0800  -44.3400 C.ar      5 PHE5        0.0000 
     43 CZ        115.4000   26.9000  -45.1000 C.ar      5 PHE5        0.0000 
     44 CZ        115.9100   25.5000  -44.9700 C.ar      5 PHE5        0.0000 
     45 CZ        113.3700   26.4000  -42.4800 C.ar      5 PHE5        0.0000 
     46 CZ        114.6700   26.8100  -43.1100 C.ar      5 PHE5        0.0000 
     47 CA        115.1300   23.6800  -44.2100 C.3       6 GLY6        0.0000 
     48 CA        116.1900   28.7200  -45.8600 C.3       6 GLY6        0.0000 
     49 CA        116.7000   27.3100  -45.7300 C.3       6 GLY6        0.0000 
     50 CA        118.2700   30.9500  -47.2600 C.3       6 GLY6        0.0000 
     51 CA        112.8600   27.8100  -42.6000 C.3       6 GLY6        0.0000 
     52 CA        114.1600   28.2200  -43.2400 C.3       6 GLY6        0.0000 
     53 CA        115.4500   28.6300  -43.8700 C.3       6 GLY6        0.0000 
     54 CA        116.7500   29.0400  -44.5100 C.3       6 GLY6        0.0000 
     55 CA        117.7700   26.2300  -44.2500 C.3       6 GLY6        0.0000 
     56 CA        118.0400   29.4500  -45.1400 C.3       6 GLY6        0.0000 
     57 CA        119.0600   26.6400  -44.8900 C.3       6 GLY6        0.0000 
     58 CA        119.8500   28.4600  -45.6500 C.3       6 GLY6        0.0000 
     59 CA        113.4200   28.1300  -41.2500 C.3       6 GLY6        0.0000 
     60 CA        114.7200   28.5400  -41.8900 C.3       6 GLY6        0.0000 
     61 CA        116.0100   28.9600  -42.5200 C.3       6 GLY6        0.0000 
     62 CA        115.7900   27.4600  -40.4100 C.3       6 GLY6        0.0000 
     63 DU        115.1800   25.4100  -42.9900 H         7 CUB7        0.0000 
     64 DU        115.9600   27.2300  -43.7500 H         7 CUB7        0.0000 
     65 DU        116.4700   25.8200  -43.6200 H         7 CUB7        0.0000 
     66 DU        117.2600   27.6400  -44.3800 H         7 CUB7        0.0000 
     67 DU        118.5500   28.0500  -45.0200 H         7 CUB7        0.0000 
     68 DU        119.3400   29.8700  -45.7800 H         7 CUB7        0.0000 
     69 DU        122.4400   29.2800  -46.9200 H         7 CUB7        0.0000 
     70 DU        113.9300   26.7300  -41.1200 H         7 CUB7        0.0000 
     71 DU        115.2300   27.1400  -41.7600 H         7 CUB7        0.0000 
     72 DU        115.7400   25.7300  -41.6300 H         7 CUB7        0.0000 
     73 DU        116.5200   27.5500  -42.3900 H         7 CUB7        0.0000 
     74 DU        114.4900   27.0500  -39.7700 H         7 CUB7        0.0000 
@<TRIPOS>BOND
@<TRIPOS>SUBSTRUCTURE
     1 SER1        1 GROUP   
     2 ALA2        5 GROUP   
     3 ASP3       17 GROUP   
     4 LYS4       34 GROUP   
     5 PHE5       42 GROUP   
     6 GLY6       47 GROUP   
     7 CUB7       63 GROUP   
@<TRIPOS>SET

