#    Name: 5zq4_2_AMP
#    Modification time : Fri May 22 19:25:48 2020

@<TRIPOS>MOLECULE
5zq4_2_AMP
   23    25     1     0     1
SMALL
NO_CHARGES


@<TRIPOS>ATOM
      1 P          27.7760   -3.2650   -5.2310 P.3       1 AMP601      0.0000 
      2 O1P        27.1070   -3.3340   -6.5860 O.co2     1 AMP601      0.0000 
      3 O2P        27.8620   -1.8530   -4.6830 O.co2     1 AMP601      0.0000 
      4 O3P        29.0330   -4.0810   -5.0990 O.co2     1 AMP601      0.0000 
      5 O5'        26.8270   -3.9960   -4.1730 O.3       1 AMP601      0.0000 
      6 C5'        27.3490   -4.5410   -2.9590 C.3       1 AMP601      0.0000 
      7 C4'        26.2400   -4.8670   -1.9790 C.3       1 AMP601      0.0000 
      8 O4'        25.6330   -6.1450   -2.3200 O.3       1 AMP601      0.0000 
      9 C3'        26.6340   -5.0470   -0.5160 C.3       1 AMP601      0.0000 
     10 O3'        26.8560   -3.8310    0.1730 O.3       1 AMP601      0.0000 
     11 C2'        25.4600   -5.8450    0.0320 C.3       1 AMP601      0.0000 
     12 O2'        24.3290   -5.0080    0.2080 O.3       1 AMP601      0.0000 
     13 C1'        25.1740   -6.7820   -1.1380 C.3       1 AMP601      0.0000 
     14 N9         25.8920   -8.0620   -0.9790 N.pl3     1 AMP601      0.0000 
     15 C8         27.0920   -8.3510   -1.5090 C.2       1 AMP601      0.0000 
     16 N7         27.4630   -9.6090   -1.1680 N.2       1 AMP601      0.0000 
     17 C5         26.4880  -10.1350   -0.4110 C.ar      1 AMP601      0.0000 
     18 C6         26.2620  -11.4280    0.2600 C.ar      1 AMP601      0.0000 
     19 N6         27.1950  -12.4130    0.1600 N.pl3     1 AMP601      0.0000 
     20 N1         25.1050  -11.5730    0.9630 N.ar      1 AMP601      0.0000 
     21 C2         24.1820  -10.5890    1.0500 C.ar      1 AMP601      0.0000 
     22 N3         24.3290   -9.3890    0.4530 N.ar      1 AMP601      0.0000 
     23 C4         25.4480   -9.1140   -0.2820 C.ar      1 AMP601      0.0000 
@<TRIPOS>BOND
     1    1    2 ar   
     2    1    3 ar   
     3    1    4 ar   
     4    1    5 1    
     5    5    6 1    
     6    6    7 1    
     7    7    8 1    
     8    7    9 1    
     9    8   13 1    
    10    9   10 1    
    11    9   11 1    
    12   11   12 1    
    13   11   13 1    
    14   13   14 1    
    15   14   15 1    
    16   14   23 1    
    17   15   16 2    
    18   16   17 1    
    19   17   18 ar   
    20   17   23 ar   
    21   18   19 1    
    22   18   20 ar   
    23   20   21 ar   
    24   21   22 ar   
    25   22   23 ar   
@<TRIPOS>SUBSTRUCTURE
     1 AMP601      1 GROUP   
@<TRIPOS>SET
ATOM$ORANGE STATIC     ATOMS   COLORGROUP SYSTEM 
20 6 6 7 7 9 9 11 11 13 13 15 15 17 17 18 18 21 \
21 23 23 

