#    Name: 5zq4_2_AMP_CAVITY_N1_ALL
#    Modification time : Fri May 22 19:25:49 2020

@<TRIPOS>MOLECULE
5zq4_2_AMP_CAVITY_N1_ALL
  133     0     6     0     0
SMALL
NO_CHARGES


@<TRIPOS>ATOM
      1 OG         26.3900   -2.6400   -8.4000 O.3       1 SER1        0.0000 
      2 OG         26.5000   -3.7700   -5.2400 O.3       1 SER1        0.0000 
      3 OG         27.0600   -3.0300   -6.4200 O.3       1 SER1        0.0000 
      4 OG         28.1800  -11.4000   -1.6200 O.3       1 SER1        0.0000 
      5 OG         24.7200   -3.1300    0.0400 O.3       1 SER1        0.0000 
      6 OG         24.6100   -1.1300   -0.6600 O.3       1 SER1        0.0000 
      7 OG         25.2800   -2.3900   -1.1400 O.3       1 SER1        0.0000 
      8 OG         24.4900    0.8700   -1.3700 O.3       1 SER1        0.0000 
      9 OG         25.1600   -0.3900   -1.8400 O.3       1 SER1        0.0000 
     10 OG         25.8300   -1.6500   -2.3200 O.3       1 SER1        0.0000 
     11 OG         26.5000   -2.9000   -2.7900 O.3       1 SER1        0.0000 
     12 OG         27.1700   -4.1600   -3.2700 O.3       1 SER1        0.0000 
     13 OG         27.0600   -2.1600   -3.9700 O.3       1 SER1        0.0000 
     14 OG         27.7200   -3.4200   -4.4500 O.3       1 SER1        0.0000 
     15 OG         28.8500  -11.7900    0.3600 O.3       1 SER1        0.0000 
     16 OG         29.4100  -11.0500   -0.8200 O.3       1 SER1        0.0000 
     17 OG         26.6200   -4.0300    0.3600 O.3       1 SER1        0.0000 
     18 OG         29.9600  -10.3100   -2.0000 O.3       1 SER1        0.0000 
     19 OG         30.6300  -11.5700   -2.4800 O.3       1 SER1        0.0000 
     20 OG         26.3900   -0.0400   -1.0500 O.3       1 SER1        0.0000 
     21 OG         26.2700    1.9600   -1.7600 O.3       1 SER1        0.0000 
     22 OG         31.1600   -0.1000   -8.3800 O.3       1 SER1        0.0000 
     23 OG         27.8400   -3.6800    1.1600 O.3       1 SER1        0.0000 
     24 OG         31.8500  -11.2200   -1.6800 O.3       1 SER1        0.0000 
     25 N          24.2900   -6.7300   -0.5200 N.am      2 ALA2        0.0000 
     26 N          24.9500   -7.9900   -0.9900 N.am      2 ALA2        0.0000 
     27 N          23.2700    0.5200   -2.1700 N.am      2 ALA2        0.0000 
     28 N          24.8400   -5.1200    0.7500 N.am      2 ALA2        0.0000 
     29 N          25.3900   -4.3800   -0.4300 N.am      2 ALA2        0.0000 
     30 N          32.4100  -10.4800   -2.8600 N.am      2 ALA2        0.0000 
     31 O          29.3900    0.5400   -3.0900 O.2       2 ALA2        0.0000 
     32 O          30.0600   -0.7200   -3.5700 O.2       2 ALA2        0.0000 
     33 O          29.9400    2.1500   -1.8200 O.2       2 ALA2        0.0000 
     34 O          31.2800   -0.3600   -2.7700 O.2       2 ALA2        0.0000 
     35 OD1        26.3900   -1.7700   -5.9500 O.co2     3 ASP3        0.0000 
     36 OD1        29.5000   -4.0600   -9.7300 O.co2     3 ASP3        0.0000 
     37 OD1        25.0500    1.6100   -2.5500 O.co2     3 ASP3        0.0000 
     38 OD1        27.6100   -1.4200   -5.1500 O.co2     3 ASP3        0.0000 
     39 OD1        28.1600   -0.6800   -6.3300 O.co2     3 ASP3        0.0000 
     40 OD1        26.9400    0.7000   -2.2300 O.co2     3 ASP3        0.0000 
     41 OD1        27.6100   -0.5500   -2.7000 O.co2     3 ASP3        0.0000 
     42 OD1        28.2800   -1.8100   -3.1800 O.co2     3 ASP3        0.0000 
     43 OD1        28.8300   -1.0700   -4.3600 O.co2     3 ASP3        0.0000 
     44 OD1        29.3900   -0.3300   -5.5400 O.co2     3 ASP3        0.0000 
     45 OD1        28.0500    3.0500   -2.1400 O.co2     3 ASP3        0.0000 
     46 OD1        28.7200    1.8000   -2.6200 O.co2     3 ASP3        0.0000 
     47 CZ         26.9400   -1.9000   -9.5800 C.ar      4 PHE5        0.0000 
     48 CZ         23.5000   -3.4800   -0.7500 C.ar      4 PHE5        0.0000 
     49 CZ         24.1700   -4.7300   -1.2200 C.ar      4 PHE5        0.0000 
     50 CZ         24.8400   -5.9900   -1.7000 C.ar      4 PHE5        0.0000 
     51 CZ         24.0600   -2.7400   -1.9300 C.ar      4 PHE5        0.0000 
     52 CZ         26.0600   -6.5100   -3.3500 C.ar      4 PHE5        0.0000 
     53 CZ         23.9400   -0.7400   -2.6400 C.ar      4 PHE5        0.0000 
     54 CZ         27.6100   -2.2900   -7.6000 C.ar      4 PHE5        0.0000 
     55 CZ         28.1600   -1.5500   -8.7800 C.ar      4 PHE5        0.0000 
     56 CZ         28.7200   -0.8100   -9.9600 C.ar      4 PHE5        0.0000 
     57 CZ         25.5100   -6.3800    0.2800 C.ar      4 PHE5        0.0000 
     58 CZ         26.1800   -7.6300   -0.2000 C.ar      4 PHE5        0.0000 
     59 CZ         26.8500   -8.8900   -0.6700 C.ar      4 PHE5        0.0000 
     60 CZ         28.7400  -10.6600   -2.8000 C.ar      4 PHE5        0.0000 
     61 CZ         25.9500   -3.6400   -1.6100 C.ar      4 PHE5        0.0000 
     62 CZ         26.6200   -4.9000   -2.0800 C.ar      4 PHE5        0.0000 
     63 CZ         28.7200    0.0600   -7.5200 C.ar      4 PHE5        0.0000 
     64 CZ         26.0600   -4.7700    1.5500 C.ar      4 PHE5        0.0000 
     65 CZ         28.7400   -9.8000   -0.3500 C.ar      4 PHE5        0.0000 
     66 CZ         27.2900   -5.2900   -0.1100 C.ar      4 PHE5        0.0000 
     67 CZ         27.9500   -6.5400   -0.5800 C.ar      4 PHE5        0.0000 
     68 CZ         28.6200   -7.8000   -1.0600 C.ar      4 PHE5        0.0000 
     69 CZ         29.2900   -9.0600   -1.5300 C.ar      4 PHE5        0.0000 
     70 CZ         26.5000   -2.0300   -0.3400 C.ar      4 PHE5        0.0000 
     71 CZ         27.1700   -3.2900   -0.8200 C.ar      4 PHE5        0.0000 
     72 CZ         27.0600   -1.2900   -1.5200 C.ar      4 PHE5        0.0000 
     73 CZ         27.7200   -2.5500   -2.0000 C.ar      4 PHE5        0.0000 
     74 CZ         28.5100   -4.9300    0.6800 C.ar      4 PHE5        0.0000 
     75 CZ         29.0600   -4.1900   -0.5000 C.ar      4 PHE5        0.0000 
     76 CZ         28.9500   -2.2000   -1.2000 C.ar      4 PHE5        0.0000 
     77 CZ         28.1600    1.0600   -1.4400 C.ar      4 PHE5        0.0000 
     78 CZ         28.8300   -0.2000   -1.9100 C.ar      4 PHE5        0.0000 
     79 CZ         29.5000   -1.4600   -2.3800 C.ar      4 PHE5        0.0000 
     80 CZ         29.7300   -4.5800    1.4800 C.ar      4 PHE5        0.0000 
     81 CZ         30.1700   -1.8500   -0.4100 C.ar      4 PHE5        0.0000 
     82 CA         27.6100   -3.1600  -10.0500 C.3       5 GLY6        0.0000 
     83 CA         28.1600   -2.4100  -11.2300 C.3       5 GLY6        0.0000 
     84 CA         25.6200   -9.2400   -1.4600 C.3       5 GLY6        0.0000 
     85 CA         25.5100   -7.2500   -2.1700 C.3       5 GLY6        0.0000 
     86 CA         26.1800   -8.5000   -2.6500 C.3       5 GLY6        0.0000 
     87 CA         26.7300   -7.7600   -3.8300 C.3       5 GLY6        0.0000 
     88 CA         27.4000   -9.0200   -4.3000 C.3       5 GLY6        0.0000 
     89 CA         26.6200   -5.7700   -4.5300 C.3       5 GLY6        0.0000 
     90 CA         27.2900   -7.0200   -5.0100 C.3       5 GLY6        0.0000 
     91 CA         27.1700   -5.0200   -5.7100 C.3       5 GLY6        0.0000 
     92 CA         27.7300   -4.2800   -6.9000 C.3       5 GLY6        0.0000 
     93 CA         28.2800   -3.5400   -8.0800 C.3       5 GLY6        0.0000 
     94 CA         28.9500   -4.8000   -8.5500 C.3       5 GLY6        0.0000 
     95 CA         28.8300   -2.8000   -9.2600 C.3       5 GLY6        0.0000 
     96 CA         27.5200  -10.1500   -1.1400 C.3       5 GLY6        0.0000 
     97 CA         28.0700   -9.4100   -2.3200 C.3       5 GLY6        0.0000 
     98 CA         28.5100   -6.6700   -4.2100 C.3       5 GLY6        0.0000 
     99 CA         28.3900   -4.6700   -4.9200 C.3       5 GLY6        0.0000 
    100 CA         28.9500   -3.9300   -6.1000 C.3       5 GLY6        0.0000 
    101 CA         29.9400    0.4100   -6.7200 C.3       5 GLY6        0.0000 
    102 CA         30.6100   -0.8400   -7.2000 C.3       5 GLY6        0.0000 
    103 CA         27.4900    2.3100   -0.9600 C.3       5 GLY6        0.0000 
    104 CA         29.9400    1.2800   -4.2700 C.3       5 GLY6        0.0000 
    105 CA         30.6100    0.0200   -4.7500 C.3       5 GLY6        0.0000 
    106 CA         31.2800   -1.2300   -5.2200 C.3       5 GLY6        0.0000 
    107 CA         32.5000   -0.8800   -4.4300 C.3       5 GLY6        0.0000 
    108 DU         29.3900   -2.0600  -10.4400 H         6 CUB7        0.0000 
    109 DU         26.0600   -5.6400   -0.9000 H         6 CUB7        0.0000 
    110 DU         26.7300   -6.8900   -1.3800 H         6 CUB7        0.0000 
    111 DU         27.4000   -8.1500   -1.8500 H         6 CUB7        0.0000 
    112 DU         27.2900   -6.1500   -2.5600 H         6 CUB7        0.0000 
    113 DU         27.9500   -7.4100   -3.0300 H         6 CUB7        0.0000 
    114 DU         28.6200   -8.6700   -3.5100 H         6 CUB7        0.0000 
    115 DU         27.8400   -5.4100   -3.7400 H         6 CUB7        0.0000 
    116 DU         28.2800   -2.6800   -5.6300 H         6 CUB7        0.0000 
    117 DU         28.8300   -1.9400   -6.8100 H         6 CUB7        0.0000 
    118 DU         29.5000   -3.1900   -7.2800 H         6 CUB7        0.0000 
    119 DU         29.3900   -1.2000   -7.9900 H         6 CUB7        0.0000 
    120 DU         30.0600   -2.4500   -8.4600 H         6 CUB7        0.0000 
    121 DU         29.9400   -0.4600   -9.1700 H         6 CUB7        0.0000 
    122 DU         30.6100   -1.7100   -9.6400 H         6 CUB7        0.0000 
    123 DU         27.8400   -4.5500   -1.2900 H         6 CUB7        0.0000 
    124 DU         28.5100   -5.8000   -1.7600 H         6 CUB7        0.0000 
    125 DU         29.1800   -7.0600   -2.2400 H         6 CUB7        0.0000 
    126 DU         30.5200   -9.5700   -3.1900 H         6 CUB7        0.0000 
    127 DU         28.3900   -3.8100   -2.4700 H         6 CUB7        0.0000 
    128 DU         28.9500   -3.0700   -3.6500 H         6 CUB7        0.0000 
    129 DU         29.5000   -2.3200   -4.8300 H         6 CUB7        0.0000 
    130 DU         30.0600   -1.5800   -6.0100 H         6 CUB7        0.0000 
    131 DU         31.7400   -9.2200   -2.3900 H         6 CUB7        0.0000 
    132 DU         32.2900   -8.4800   -3.5700 H         6 CUB7        0.0000 
    133 DU         30.7200   -1.9700   -4.0400 H         6 CUB7        0.0000 
@<TRIPOS>BOND
@<TRIPOS>SUBSTRUCTURE
     1 SER1        1 GROUP   
     2 ALA2       25 GROUP   
     3 ASP3       35 GROUP   
     4 PHE5       47 GROUP   
     5 GLY6       82 GROUP   
     6 CUB7      108 GROUP   
@<TRIPOS>SET

