#    Name: 5zq4_1_AMP
#    Modification time : Fri May 22 19:25:42 2020

@<TRIPOS>MOLECULE
5zq4_1_AMP
   23    25     1     0     1
SMALL
NO_CHARGES


@<TRIPOS>ATOM
      1 P         -11.9550   -5.4390  -42.0960 P.3       1 AMP601      0.0000 
      2 O1P       -11.9060   -4.4760  -43.2610 O.co2     1 AMP601      0.0000 
      3 O2P       -13.3450   -5.8880  -41.6970 O.co2     1 AMP601      0.0000 
      4 O3P       -11.0690   -5.0290  -40.9390 O.co2     1 AMP601      0.0000 
      5 O5'       -11.3160   -6.8110  -42.6000 O.3       1 AMP601      0.0000 
      6 C5'       -11.5860   -7.3260  -43.8980 C.3       1 AMP601      0.0000 
      7 C4'       -10.3530   -7.9490  -44.5100 C.3       1 AMP601      0.0000 
      8 O4'        -9.8360   -8.9970  -43.6480 O.3       1 AMP601      0.0000 
      9 C3'       -10.5410   -8.6420  -45.8480 C.3       1 AMP601      0.0000 
     10 O3'       -10.5940   -7.7350  -46.9310 O.3       1 AMP601      0.0000 
     11 C2'        -9.3510   -9.5950  -45.8950 C.3       1 AMP601      0.0000 
     12 O2'        -8.1580   -8.8990  -46.2330 O.3       1 AMP601      0.0000 
     13 C1'        -9.2490  -10.0160  -44.4310 C.3       1 AMP601      0.0000 
     14 N9         -9.9770  -11.2660  -44.1710 N.pl3     1 AMP601      0.0000 
     15 C8        -11.1270  -11.3710  -43.4850 C.2       1 AMP601      0.0000 
     16 N7        -11.5270  -12.6630  -43.4150 N.2       1 AMP601      0.0000 
     17 C5        -10.6230  -13.4070  -44.0690 C.ar      1 AMP601      0.0000 
     18 C6        -10.4480  -14.8450  -44.3710 C.ar      1 AMP601      0.0000 
     19 N6        -11.3550  -15.7580  -43.9340 N.pl3     1 AMP601      0.0000 
     20 N1         -9.3530  -15.2010  -45.0910 N.ar      1 AMP601      0.0000 
     21 C2         -8.4530  -14.2910  -45.5200 C.ar      1 AMP601      0.0000 
     22 N3         -8.5510  -12.9710  -45.2840 N.ar      1 AMP601      0.0000 
     23 C4         -9.5950  -12.4820  -44.5710 C.ar      1 AMP601      0.0000 
@<TRIPOS>BOND
     1    1    2 ar   
     2    1    3 ar   
     3    1    4 ar   
     4    1    5 1    
     5    5    6 1    
     6    6    7 1    
     7    7    8 1    
     8    7    9 1    
     9    8   13 1    
    10    9   10 1    
    11    9   11 1    
    12   11   12 1    
    13   11   13 1    
    14   13   14 1    
    15   14   15 1    
    16   14   23 1    
    17   15   16 2    
    18   16   17 1    
    19   17   18 ar   
    20   17   23 ar   
    21   18   19 1    
    22   18   20 ar   
    23   20   21 ar   
    24   21   22 ar   
    25   22   23 ar   
@<TRIPOS>SUBSTRUCTURE
     1 AMP601      1 GROUP   
@<TRIPOS>SET
ATOM$ORANGE STATIC     ATOMS   COLORGROUP SYSTEM 
20 6 6 7 7 9 9 11 11 13 13 15 15 17 17 18 18 21 \
21 23 23 

