#    Name: 5zq4_1_AMP_CAVITY_N1_ALL
#    Modification time : Fri May 22 19:25:43 2020

@<TRIPOS>MOLECULE
5zq4_1_AMP_CAVITY_N1_ALL
   90     0     6     0     0
SMALL
NO_CHARGES


@<TRIPOS>ATOM
      1 OG        -14.7500  -14.4700  -44.6400 O.3       1 SER1        0.0000 
      2 OG        -17.9800   -9.3100  -39.1200 O.3       1 SER1        0.0000 
      3 OG        -14.7500  -13.6000  -42.1900 O.3       1 SER1        0.0000 
      4 OG        -14.1900  -12.8600  -43.3700 O.3       1 SER1        0.0000 
      5 OG        -12.9700  -12.5100  -42.5800 O.3       1 SER1        0.0000 
      6 OG        -12.3000  -13.7600  -43.0500 O.3       1 SER1        0.0000 
      7 OG        -11.6300  -15.0200  -43.5200 O.3       1 SER1        0.0000 
      8 OG        -13.6400  -10.3800  -39.6500 O.3       1 SER1        0.0000 
      9 OG        -10.2000   -7.9400  -46.0300 O.3       1 SER1        0.0000 
     10 OG        -11.4200   -6.5500  -41.9300 O.3       1 SER1        0.0000 
     11 OG        -10.8700   -5.8100  -43.1100 O.3       1 SER1        0.0000 
     12 OG         -9.6500   -6.3300  -44.7700 O.3       1 SER1        0.0000 
     13 OG         -8.4200   -6.8400  -46.4200 O.3       1 SER1        0.0000 
     14 N         -11.6300  -15.8900  -45.9700 N.am      2 ALA2        0.0000 
     15 N         -10.4100  -15.5300  -45.1800 N.am      2 ALA2        0.0000 
     16 N          -8.7500  -11.5800  -43.8200 N.am      2 ALA2        0.0000 
     17 N          -8.0800  -12.8300  -44.3000 N.am      2 ALA2        0.0000 
     18 N          -8.8600   -9.5800  -44.5300 N.am      2 ALA2        0.0000 
     19 N          -8.1900  -10.8400  -45.0100 N.am      2 ALA2        0.0000 
     20 N          -8.3100   -8.8400  -45.7100 N.am      2 ALA2        0.0000 
     21 OD1       -16.2000   -8.2200  -39.5000 O.co2     3 ASP3        0.0000 
     22 OD1       -15.5300   -9.4800  -39.9800 O.co2     3 ASP3        0.0000 
     23 CZ        -13.6400  -12.1200  -44.5500 C.ar      4 PHE5        0.0000 
     24 CZ        -12.9700  -13.3700  -45.0300 C.ar      4 PHE5        0.0000 
     25 CZ        -12.3000  -14.6300  -45.5000 C.ar      4 PHE5        0.0000 
     26 CZ        -13.7600  -10.1200  -45.2600 C.ar      4 PHE5        0.0000 
     27 CZ        -13.3200   -7.3800  -47.1500 C.ar      4 PHE5        0.0000 
     28 CZ        -16.0900  -10.2200  -38.7900 C.ar      4 PHE5        0.0000 
     29 CZ        -13.5300  -13.2500  -41.4000 C.ar      4 PHE5        0.0000 
     30 CZ        -12.4200  -11.7600  -43.7600 C.ar      4 PHE5        0.0000 
     31 CZ        -11.7500  -13.0200  -44.2300 C.ar      4 PHE5        0.0000 
     32 CZ        -11.0800  -14.2800  -44.7100 C.ar      4 PHE5        0.0000 
     33 CZ        -12.5300   -9.7700  -44.4700 C.ar      4 PHE5        0.0000 
     34 CZ        -11.8600  -11.0200  -44.9400 C.ar      4 PHE5        0.0000 
     35 CZ        -11.9800   -9.0300  -45.6500 C.ar      4 PHE5        0.0000 
     36 CZ        -12.0900   -7.0300  -46.3500 C.ar      4 PHE5        0.0000 
     37 CZ        -11.4200   -8.2900  -46.8300 C.ar      4 PHE5        0.0000 
     38 CZ        -12.9700  -11.6400  -40.1300 C.ar      4 PHE5        0.0000 
     39 CZ        -12.3000  -12.8900  -40.6000 C.ar      4 PHE5        0.0000 
     40 CZ         -9.9700  -11.9300  -44.6200 C.ar      4 PHE5        0.0000 
     41 CZ         -9.3000  -13.1800  -45.0900 C.ar      4 PHE5        0.0000 
     42 CZ         -8.6300  -14.4400  -45.5700 C.ar      4 PHE5        0.0000 
     43 CZ        -10.0900   -9.9300  -45.3300 C.ar      4 PHE5        0.0000 
     44 CZ         -9.4200  -11.1900  -45.8000 C.ar      4 PHE5        0.0000 
     45 CZ         -8.7500  -12.4400  -46.2700 C.ar      4 PHE5        0.0000 
     46 CZ        -10.8700   -6.6800  -45.5600 C.ar      4 PHE5        0.0000 
     47 CZ         -9.5300   -9.1900  -46.5100 C.ar      4 PHE5        0.0000 
     48 CZ        -10.7600   -7.8100  -42.4000 C.ar      4 PHE5        0.0000 
     49 CZ        -10.0900   -9.0600  -42.8800 C.ar      4 PHE5        0.0000 
     50 CZ        -10.2000   -7.0700  -43.5800 C.ar      4 PHE5        0.0000 
     51 CZ         -9.5300   -8.3200  -44.0600 C.ar      4 PHE5        0.0000 
     52 CZ         -8.9800   -7.5800  -45.2400 C.ar      4 PHE5        0.0000 
     53 CZ         -9.0900   -5.5900  -45.9500 C.ar      4 PHE5        0.0000 
     54 CA        -17.9800  -10.1800  -41.5600 C.3       5 GLY6        0.0000 
     55 CA        -16.0900  -11.0900  -41.2400 C.3       5 GLY6        0.0000 
     56 CA        -15.4200  -12.3400  -41.7200 C.3       5 GLY6        0.0000 
     57 CA        -15.4200  -11.4700  -39.2700 C.3       5 GLY6        0.0000 
     58 CA        -14.8600  -10.7300  -40.4500 C.3       5 GLY6        0.0000 
     59 CA        -14.1900  -11.9900  -40.9200 C.3       5 GLY6        0.0000 
     60 CA        -14.3100   -9.1300  -39.1800 C.3       5 GLY6        0.0000 
     61 CA        -13.7600   -8.3900  -40.3600 C.3       5 GLY6        0.0000 
     62 CA        -13.0900   -9.6400  -40.8400 C.3       5 GLY6        0.0000 
     63 CA        -12.4200  -10.9000  -41.3100 C.3       5 GLY6        0.0000 
     64 CA        -11.7500  -12.1500  -41.7800 C.3       5 GLY6        0.0000 
     65 CA        -13.2000   -7.6400  -41.5400 C.3       5 GLY6        0.0000 
     66 CA        -12.5300   -8.9000  -42.0200 C.3       5 GLY6        0.0000 
     67 CA        -11.1900  -11.4100  -42.9600 C.3       5 GLY6        0.0000 
     68 CA        -10.5300  -12.6700  -43.4400 C.3       5 GLY6        0.0000 
     69 CA         -9.8600  -13.9300  -43.9100 C.3       5 GLY6        0.0000 
     70 CA         -9.1900  -15.1800  -44.3900 C.3       5 GLY6        0.0000 
     71 CA        -11.1900  -10.5500  -40.5200 C.3       5 GLY6        0.0000 
     72 CA        -10.6400   -9.8100  -41.7000 C.3       5 GLY6        0.0000 
     73 CA         -9.4200  -10.3200  -43.3500 C.3       5 GLY6        0.0000 
     74 DU        -16.7600   -9.8300  -40.7700 H         6 CUB7        0.0000 
     75 DU        -14.8600  -11.6000  -42.9000 H         6 CUB7        0.0000 
     76 DU        -14.3100  -10.8600  -44.0800 H         6 CUB7        0.0000 
     77 DU        -14.3100   -9.9900  -41.6300 H         6 CUB7        0.0000 
     78 DU        -13.6400  -11.2500  -42.1000 H         6 CUB7        0.0000 
     79 DU        -13.7600   -9.2500  -42.8100 H         6 CUB7        0.0000 
     80 DU        -13.0900  -10.5100  -43.2800 H         6 CUB7        0.0000 
     81 DU        -13.2000   -8.5100  -43.9900 H         6 CUB7        0.0000 
     82 DU        -12.6500   -7.7700  -45.1700 H         6 CUB7        0.0000 
     83 DU        -11.8600  -10.1600  -42.4900 H         6 CUB7        0.0000 
     84 DU        -11.9800   -8.1600  -43.2000 H         6 CUB7        0.0000 
     85 DU        -11.3100   -9.4200  -43.6700 H         6 CUB7        0.0000 
     86 DU        -10.6400  -10.6700  -44.1400 H         6 CUB7        0.0000 
     87 DU        -12.0900   -6.1600  -43.9000 H         6 CUB7        0.0000 
     88 DU        -11.4200   -7.4200  -44.3800 H         6 CUB7        0.0000 
     89 DU        -10.7600   -8.6800  -44.8500 H         6 CUB7        0.0000 
     90 DU        -12.0900   -5.3000  -41.4600 H         6 CUB7        0.0000 
@<TRIPOS>BOND
@<TRIPOS>SUBSTRUCTURE
     1 SER1        1 GROUP   
     2 ALA2       14 GROUP   
     3 ASP3       21 GROUP   
     4 PHE5       23 GROUP   
     5 GLY6       54 GROUP   
     6 CUB7       74 GROUP   
@<TRIPOS>SET

