#    Name: 5mnw_1_Z90
#    Modification time : Fri May 22 19:20:23 2020

@<TRIPOS>MOLECULE
5mnw_1_Z90
   79    82     1     0     0
SMALL
NO_CHARGES


@<TRIPOS>ATOM
      1 OAA        -3.0250    3.5900    3.2720 O.co2     1 Z90201      0.0000 
      2 OAB        -4.8140    6.1570    7.4920 O.co2     1 Z90201      0.0000 
      3 OAC        -4.5020    1.9480    3.5050 O.co2     1 Z90201      0.0000 
      4 OAD        -3.5030    7.5100    6.4270 O.co2     1 Z90201      0.0000 
      5 CAE         2.7850    9.2270   13.1100 C.ar      1 Z90201      0.0000 
      6 CAF         1.7300    8.7810   12.3280 C.ar      1 Z90201      0.0000 
      7 CAG         4.0610    8.7100   12.9190 C.ar      1 Z90201      0.0000 
      8 CAH         3.5030   -0.2540    1.7950 C.ar      1 Z90201      0.0000 
      9 CAI         4.8040   -0.0360    2.2440 C.ar      1 Z90201      0.0000 
     10 CAJ         1.9490    7.8160   11.3500 C.ar      1 Z90201      0.0000 
     11 CAK         4.2800    7.7450   11.9460 C.ar      1 Z90201      0.0000 
     12 CAL         2.4290    0.3430    2.4480 C.ar      1 Z90201      0.0000 
     13 CAM         5.0280    0.7770    3.3480 C.ar      1 Z90201      0.0000 
     14 CAN         2.9340    5.8480    7.0120 C.ar      1 Z90201      0.0000 
     15 CAO         5.2320    5.4970    7.6440 C.ar      1 Z90201      0.0000 
     16 CAP         3.0910    4.9630    5.9550 C.ar      1 Z90201      0.0000 
     17 CAQ         5.3880    4.6070    6.5870 C.ar      1 Z90201      0.0000 
     18 CAR        -0.6310    4.5870    6.0970 C.ar      1 Z90201      0.0000 
     19 CAS        -1.8040    3.3680    7.8090 C.ar      1 Z90201      0.0000 
     20 CAT        -1.6230    5.5560    6.1050 C.ar      1 Z90201      0.0000 
     21 CAU        -2.8000    4.3380    7.8160 C.ar      1 Z90201      0.0000 
     22 CAV        -2.8380    0.4580    5.0290 C.3       1 Z90201      0.0000 
     23 CAW        -1.7280   -0.4170    5.6210 C.3       1 Z90201      0.0000 
     24 CAX        -2.2480    1.4990    4.0720 C.3       1 Z90201      0.0000 
     25 CAY         3.4500    6.3420   10.1750 C.3       1 Z90201      0.0000 
     26 CAZ         3.8620    7.0430    8.8810 C.3       1 Z90201      0.0000 
     27 CBA         1.5860    1.7690    4.1970 C.3       1 Z90201      0.0000 
     28 CBB        -0.8950    0.3950    6.6180 C.3       1 Z90201      0.0000 
     29 CBC         1.0620    0.8660    5.3130 C.3       1 Z90201      0.0000 
     30 CBD         4.4650    3.4720    4.6710 C.3       1 Z90201      0.0000 
     31 CBE         0.2570    2.4990    6.8910 C.3       1 Z90201      0.0000 
     32 OBF         4.1030    2.1550    5.0850 O.3       1 Z90201      0.0000 
     33 CBG        -3.3520    2.4230    3.5690 C.2       1 Z90201      0.0000 
     34 CBH        -3.7090    6.3980    6.9590 C.2       1 Z90201      0.0000 
     35 CBI         3.2250    7.2980   11.1590 C.ar      1 Z90201      0.0000 
     36 CBJ         4.0060    6.1190    7.8540 C.ar      1 Z90201      0.0000 
     37 CBK         4.3160    4.3440    5.7400 C.ar      1 Z90201      0.0000 
     38 CBL        -0.7190    3.4910    6.9450 C.ar      1 Z90201      0.0000 
     39 CBM        -2.7090    5.4320    6.9620 C.ar      1 Z90201      0.0000 
     40 CBN         2.6530    1.1570    3.5500 C.ar      1 Z90201      0.0000 
     41 CBO         3.9500    1.3660    3.9910 C.ar      1 Z90201      0.0000 
     42 NBP        -0.1360    1.4500    5.9350 N.4       1 Z90201      0.0000 
     43 HAE         2.6130    9.9790   13.8790 H         1 Z90201      0.0000 
     44 HAF         0.7300    9.1860   12.4770 H         1 Z90201      0.0000 
     45 HAG         4.8900    9.0710   13.5250 H         1 Z90201      0.0000 
     46 HAH         3.3260   -0.9010    0.9380 H         1 Z90201      0.0000 
     47 HAI         5.6440   -0.4950    1.7240 H         1 Z90201      0.0000 
     48 HAJ         1.1180    7.4670   10.7370 H         1 Z90201      0.0000 
     49 HAK         5.2810    7.3400   11.7960 H         1 Z90201      0.0000 
     50 HAL         1.4120    0.1700    2.0950 H         1 Z90201      0.0000 
     51 HAM         6.0430    0.9440    3.7100 H         1 Z90201      0.0000 
     52 HAN         1.9700    6.3270    7.1790 H         1 Z90201      0.0000 
     53 HAO         6.0710    5.7060    8.3090 H         1 Z90201      0.0000 
     54 HAP         2.2540    4.7530    5.2930 H         1 Z90201      0.0000 
     55 HAQ         6.3470    4.1140    6.4270 H         1 Z90201      0.0000 
     56 HAR         0.2200    4.6830    5.4210 H         1 Z90201      0.0000 
     57 HAS        -1.8740    2.5140    8.4820 H         1 Z90201      0.0000 
     58 HAT        -1.5490    6.4180    5.4410 H         1 Z90201      0.0000 
     59 HAU        -3.6510    4.2430    8.4900 H         1 Z90201      0.0000 
     60 HAV        -3.5470   -0.1690    4.4930 H         1 Z90201      0.0000 
     61 HAVA       -3.3600    0.9650    5.8440 H         1 Z90201      0.0000 
     62 HAW        -2.1680   -1.2690    6.1380 H         1 Z90201      0.0000 
     63 HAWA       -1.0870   -0.7840    4.8220 H         1 Z90201      0.0000 
     64 HAX        -1.7740    0.9980    3.2340 H         1 Z90201      0.0000 
     65 HAXA       -1.5000    2.0880    4.6000 H         1 Z90201      0.0000 
     66 HAY         2.5460    5.7610   10.0080 H         1 Z90201      0.0000 
     67 HAYA        4.2530    5.6710   10.4860 H         1 Z90201      0.0000 
     68 HAZ         3.1010    7.7730    8.6020 H         1 Z90201      0.0000 
     69 HAZA        4.8070    7.5580    9.0350 H         1 Z90201      0.0000 
     70 HBA         0.7870    1.9630    3.4810 H         1 Z90201      0.0000 
     71 HBAA        1.9080    2.7170    4.6280 H         1 Z90201      0.0000 
     72 HBB        -1.5600    0.8530    7.3520 H         1 Z90201      0.0000 
     73 HBBA       -0.2040   -0.2670    7.1370 H         1 Z90201      0.0000 
     74 HBC         1.8310    0.7480    6.0760 H         1 Z90201      0.0000 
     75 HBCA        0.8180   -0.1140    4.9050 H         1 Z90201      0.0000 
     76 HBD         3.8170    3.7780    3.8470 H         1 Z90201      0.0000 
     77 HBDA        5.4980    3.4780    4.3280 H         1 Z90201      0.0000 
     78 HBE         0.3840    2.0600    7.8790 H         1 Z90201      0.0000 
     79 HBEA        1.2020    2.9460    6.5790 H         1 Z90201      0.0000 
@<TRIPOS>BOND
     1   18   56 1    
     2   19   21 ar   
     3   19   38 ar   
     4   19   57 1    
     5   20   39 ar   
     6   20   58 1    
     7   21   39 ar   
     8   21   59 1    
     9   22   23 1    
    10   22   24 1    
    11   22   60 1    
    12   22   61 1    
    13   23   28 1    
    14   23   62 1    
    15   23   63 1    
    16   24   33 1    
    17   24   64 1    
    18   24   65 1    
    19   25   26 1    
    20   25   66 1    
    21   25   35 1    
    22   25   67 1    
    23   26   36 1    
    24   26   68 1    
    25   26   69 1    
    26   27   70 1    
    27   27   71 1    
    28   27   29 1    
    29   27   40 1    
    30   28   72 1    
    31   28   73 1    
    32   28   42 1    
    33   29   74 1    
    34   29   75 1    
    35   29   42 1    
    36   30   76 1    
    37   30   77 1    
    38   30   32 1    
    39   30   37 1    
    40   31   78 1    
    41   31   79 1    
    42   31   38 1    
    43   31   42 1    
    44   32   41 1    
    45   34   39 1    
    46   40   41 ar   
    47    1   33 ar   
    48    2   34 ar   
    49    3   33 ar   
    50    4   34 ar   
    51    5    6 ar   
    52    5    7 ar   
    53    5   43 1    
    54    6   10 ar   
    55    6   44 1    
    56    7   11 ar   
    57    7   45 1    
    58    8    9 ar   
    59    8   12 ar   
    60    8   46 1    
    61    9   13 ar   
    62    9   47 1    
    63   10   35 ar   
    64   10   48 1    
    65   11   35 ar   
    66   11   49 1    
    67   12   40 ar   
    68   12   50 1    
    69   13   41 ar   
    70   13   51 1    
    71   14   16 ar   
    72   14   36 ar   
    73   14   52 1    
    74   15   17 ar   
    75   15   36 ar   
    76   15   53 1    
    77   16   37 ar   
    78   16   54 1    
    79   17   37 ar   
    80   17   55 1    
    81   18   20 ar   
    82   18   38 ar   
@<TRIPOS>SUBSTRUCTURE
     1 Z90201      1 GROUP   
@<TRIPOS>SET

