#    Name: 5yl2_4_GTP_CAVITY_N1_ALL
#    Modification time : Fri May 22 19:32:53 2020

@<TRIPOS>MOLECULE
5yl2_4_GTP_CAVITY_N1_ALL
   73     0     7     0     0
SMALL
NO_CHARGES


@<TRIPOS>ATOM
      1 OG         18.9000  144.3500  -45.1700 O.3       1 SER1        0.0000 
      2 OG         20.8800  141.8600  -44.1100 O.3       1 SER1        0.0000 
      3 OG         20.3600  144.3600  -43.6400 O.3       1 SER1        0.0000 
      4 OG         19.0300  145.0200  -43.8400 O.3       1 SER1        0.0000 
      5 OG         21.0100  142.5300  -42.7800 O.3       1 SER1        0.0000 
      6 OG         19.6800  143.1900  -42.9800 O.3       1 SER1        0.0000 
      7 OG         19.1600  145.6900  -42.5000 O.3       1 SER1        0.0000 
      8 OG         18.4800  144.5300  -41.8500 O.3       1 SER1        0.0000 
      9 OG         23.3100  147.3700  -42.0700 O.3       1 SER1        0.0000 
     10 OG         21.9800  148.0400  -42.2800 O.3       1 SER1        0.0000 
     11 OG         21.3000  146.8700  -41.6200 O.3       1 SER1        0.0000 
     12 OG         20.6200  145.7000  -40.9700 O.3       1 SER1        0.0000 
     13 O          16.2700  148.6700  -47.0900 O.2       2 ALA2        0.0000 
     14 O          23.5700  143.5300  -45.2200 O.2       2 ALA2        0.0000 
     15 N          22.2400  144.1900  -45.4200 N.am      2 ALA2        0.0000 
     16 N          20.9100  144.8500  -45.6200 N.am      2 ALA2        0.0000 
     17 O          22.8900  142.3600  -44.5700 O.2       2 ALA2        0.0000 
     18 O          24.3800  145.3700  -44.5400 O.2       2 ALA2        0.0000 
     19 N          21.7200  146.6900  -44.9400 N.am      2 ALA2        0.0000 
     20 O          16.4000  149.3400  -45.7600 O.2       2 ALA2        0.0000 
     21 O          22.3700  144.8600  -44.0900 O.2       2 ALA2        0.0000 
     22 N          21.0400  145.5300  -44.2900 N.am      2 ALA2        0.0000 
     23 N          19.7100  146.1900  -44.4900 N.am      2 ALA2        0.0000 
     24 N          18.3800  146.8500  -44.7000 N.am      2 ALA2        0.0000 
     25 O          23.0200  143.0400  -43.2300 O.2       2 ALA2        0.0000 
     26 O          21.6900  143.7000  -43.4300 O.2       2 ALA2        0.0000 
     27 O          20.5200  148.0300  -43.8100 O.2       2 ALA2        0.0000 
     28 O          19.1900  148.6900  -44.0200 O.2       2 ALA2        0.0000 
     29 O          22.6300  146.2100  -41.4200 O.2       2 ALA2        0.0000 
     30 N          15.9800  149.5200  -42.4300 N.am      2 ALA2        0.0000 
     31 O          21.9500  145.0400  -40.7600 O.2       2 ALA2        0.0000 
     32 O          18.6100  145.2000  -40.5200 O.2       2 ALA2        0.0000 
     33 O          17.2800  145.8600  -40.7200 O.2       2 ALA2        0.0000 
     34 N          18.0900  147.7000  -40.0400 N.am      2 ALA2        0.0000 
     35 N          16.7600  148.3600  -40.2400 N.am      2 ALA2        0.0000 
     36 N          15.4300  149.0200  -40.4400 N.am      2 ALA2        0.0000 
     37 O          18.7400  145.8700  -39.1800 O.2       2 ALA2        0.0000 
     38 OD1        24.2500  144.7000  -45.8700 O.co2     3 ASP3        0.0000 
     39 OD1        22.9200  145.3600  -46.0800 O.co2     3 ASP3        0.0000 
     40 OD1        23.0500  146.0300  -44.7400 O.co2     3 ASP3        0.0000 
     41 OD1        23.8600  147.8700  -44.0600 O.co2     3 ASP3        0.0000 
     42 OD1        23.1800  146.7000  -43.4100 O.co2     3 ASP3        0.0000 
     43 NZ         23.1500  143.7100  -41.9000 N.4       4 LYS4        0.0000 
     44 NZ         21.8200  144.3700  -42.1000 N.4       4 LYS4        0.0000 
     45 NZ         19.8100  143.8700  -41.6500 N.4       4 LYS4        0.0000 
     46 NZ         19.9400  144.5400  -40.3100 N.4       4 LYS4        0.0000 
     47 CZ         16.9200  146.8400  -46.2300 C.ar      5 PHE5        0.0000 
     48 CZ         17.0500  147.5100  -44.9000 C.ar      5 PHE5        0.0000 
     49 CZ         17.1800  148.1800  -43.5600 C.ar      5 PHE5        0.0000 
     50 CZ         15.8500  148.8500  -43.7700 C.ar      5 PHE5        0.0000 
     51 CZ         17.8300  146.3600  -42.7100 C.ar      5 PHE5        0.0000 
     52 CZ         17.9600  147.0300  -41.3700 C.ar      5 PHE5        0.0000 
     53 CZ         16.6300  147.6900  -41.5800 C.ar      5 PHE5        0.0000 
     54 CZ         15.3000  148.3500  -41.7800 C.ar      5 PHE5        0.0000 
     55 CA         17.7300  148.6800  -45.5500 C.3       6 GLY6        0.0000 
     56 CA         24.5100  146.0400  -43.2000 C.3       6 GLY6        0.0000 
     57 CA         21.8500  147.3600  -43.6100 C.3       6 GLY6        0.0000 
     58 CA         17.8600  149.3500  -44.2200 C.3       6 GLY6        0.0000 
     59 CA         16.5300  150.0100  -44.4200 C.3       6 GLY6        0.0000 
     60 CA         23.8300  144.8700  -42.5500 C.3       6 GLY6        0.0000 
     61 CA         22.5000  145.5400  -42.7500 C.3       6 GLY6        0.0000 
     62 CA         19.8400  146.8600  -43.1600 C.3       6 GLY6        0.0000 
     63 CA         18.5100  147.5200  -43.3600 C.3       6 GLY6        0.0000 
     64 CA         19.9700  147.5300  -41.8200 C.3       6 GLY6        0.0000 
     65 CA         18.6400  148.1900  -42.0300 C.3       6 GLY6        0.0000 
     66 CA         17.3100  148.8600  -42.2300 C.3       6 GLY6        0.0000 
     67 CA         19.2900  146.3700  -41.1700 C.3       6 GLY6        0.0000 
     68 CA         20.7500  146.3800  -39.6300 C.3       6 GLY6        0.0000 
     69 CA         19.4200  147.0400  -39.8400 C.3       6 GLY6        0.0000 
     70 DU         21.5600  143.0300  -44.7700 H         7 CUB7        0.0000 
     71 DU         20.2300  143.6900  -44.9700 H         7 CUB7        0.0000 
     72 DU         21.1700  146.2000  -42.9600 H         7 CUB7        0.0000 
     73 DU         20.4900  145.0300  -42.3000 H         7 CUB7        0.0000 
@<TRIPOS>BOND
@<TRIPOS>SUBSTRUCTURE
     1 SER1        1 GROUP   
     2 ALA2       13 GROUP   
     3 ASP3       38 GROUP   
     4 LYS4       43 GROUP   
     5 PHE5       47 GROUP   
     6 GLY6       55 GROUP   
     7 CUB7       70 GROUP   
@<TRIPOS>SET

