#    Name: 5yl2_4_GTP
#    Modification time : Fri May 22 19:32:52 2020

@<TRIPOS>MOLECULE
5yl2_4_GTP
   32    34     1     0     1
SMALL
NO_CHARGES


@<TRIPOS>ATOM
      1 PG         27.2930  146.6590  -44.8980 P.3       1 GTP501      0.0000 
      2 O1G        27.9690  147.6880  -45.7900 O.co2     1 GTP501      0.0000 
      3 O2G        26.0270  146.0830  -45.5160 O.co2     1 GTP501      0.0000 
      4 O3G        28.2040  145.6100  -44.2750 O.co2     1 GTP501      0.0000 
      5 O3B        26.8200  147.5120  -43.5900 O.3       1 GTP501      0.0000 
      6 PB         25.4260  148.3280  -43.4410 P.3       1 GTP501      0.0000 
      7 O1B        25.0160  148.9980  -44.7230 O.co2     1 GTP501      0.0000 
      8 O2B        25.5780  149.2310  -42.2320 O.co2     1 GTP501      0.0000 
      9 O3A        24.3630  147.1630  -43.0760 O.3       1 GTP501      0.0000 
     10 PA         22.7730  147.3960  -42.8520 P.3       1 GTP501      0.0000 
     11 O1A        22.0040  146.7570  -43.9830 O.co2     1 GTP501      0.0000 
     12 O2A        22.5090  148.8620  -42.5980 O.co2     1 GTP501      0.0000 
     13 O5'        22.5850  146.5380  -41.4920 O.3       1 GTP501      0.0000 
     14 C5'        21.9140  145.2790  -41.4190 C.3       1 GTP501      0.0000 
     15 C4'        20.8340  145.3470  -40.3370 C.3       1 GTP501      0.0000 
     16 O4'        20.0640  146.5470  -40.4670 O.3       1 GTP501      0.0000 
     17 C3'        19.8390  144.1990  -40.4220 C.3       1 GTP501      0.0000 
     18 O3'        19.6560  143.6750  -39.0990 O.3       1 GTP501      0.0000 
     19 C2'        18.5550  144.8130  -40.9620 C.3       1 GTP501      0.0000 
     20 O2'        17.3810  144.2040  -40.4080 O.3       1 GTP501      0.0000 
     21 C1'        18.6660  146.2790  -40.5790 C.3       1 GTP501      0.0000 
     22 N9         18.1070  147.2170  -41.5820 N.pl3     1 GTP501      0.0000 
     23 C8         18.6110  147.4780  -42.8080 C.2       1 GTP501      0.0000 
     24 N7         17.8640  148.4130  -43.4540 N.2       1 GTP501      0.0000 
     25 C5         16.8550  148.7600  -42.6340 C.2       1 GTP501      0.0000 
     26 C6         15.6940  149.6920  -42.6820 C.2       1 GTP501      0.0000 
     27 O6         15.4540  150.4110  -43.6780 O.2       1 GTP501      0.0000 
     28 N1         14.8990  149.7550  -41.5970 N.am      1 GTP501      0.0000 
     29 C2         15.0920  149.0140  -40.4900 C.2       1 GTP501      0.0000 
     30 N2         14.2130  149.1600  -39.4720 N.pl3     1 GTP501      0.0000 
     31 N3         16.1330  148.1410  -40.3770 N.2       1 GTP501      0.0000 
     32 C4         17.0240  147.9740  -41.3970 C.2       1 GTP501      0.0000 
@<TRIPOS>BOND
     1    1    2 ar   
     2    1    3 ar   
     3    1    4 ar   
     4    1    5 1    
     5    5    6 1    
     6    6    7 ar   
     7    6    8 ar   
     8    6    9 1    
     9    9   10 1    
    10   10   11 ar   
    11   10   12 ar   
    12   10   13 1    
    13   13   14 1    
    14   14   15 1    
    15   15   16 1    
    16   15   17 1    
    17   16   21 1    
    18   17   18 1    
    19   17   19 1    
    20   19   20 1    
    21   19   21 1    
    22   21   22 1    
    23   22   23 1    
    24   22   32 1    
    25   23   24 2    
    26   24   25 1    
    27   25   26 1    
    28   25   32 2    
    29   26   27 2    
    30   26   28 am   
    31   28   29 1    
    32   29   30 1    
    33   29   31 2    
    34   31   32 1    
@<TRIPOS>SUBSTRUCTURE
     1 GTP501      1 GROUP   
@<TRIPOS>SET
ATOM$ORANGE STATIC     ATOMS   COLORGROUP SYSTEM 
20 14 14 15 15 17 17 19 19 21 21 23 23 25 25 26 26 29 \
29 32 32 

