#    Name: 5yl2_5_ACP
#    Modification time : Fri May 22 19:32:56 2020

@<TRIPOS>MOLECULE
5yl2_5_ACP
   31    33     1     0     1
SMALL
NO_CHARGES


@<TRIPOS>ATOM
      1 PG          7.9300  208.0580   94.0590 P.3       1 ACP401      0.0000 
      2 O1G         8.9580  208.9600   93.2060 O.co2     1 ACP401      0.0000 
      3 O2G         7.8700  206.6970   93.4780 O.co2     1 ACP401      0.0000 
      4 O3G         6.4590  208.7060   93.9920 O.co2     1 ACP401      0.0000 
      5 PB         10.2700  208.0770   95.9570 P.3       1 ACP401      0.0000 
      6 O1B        10.8130  209.1840   95.1450 O.co2     1 ACP401      0.0000 
      7 O2B        10.9220  206.7090   95.4140 O.co2     1 ACP401      0.0000 
      8 C3B         8.4640  207.9620   95.7910 C.3       1 ACP401      0.0000 
      9 PA         10.1890  209.5020   98.4580 P.3       1 ACP401      0.0000 
     10 O1A         8.8720  210.0630   97.9790 O.co2     1 ACP401      0.0000 
     11 O2A        11.3290  210.4510   98.7290 O.co2     1 ACP401      0.0000 
     12 O3A        10.7110  208.3110   97.4920 O.3       1 ACP401      0.0000 
     13 O5'         9.9010  208.7290   99.8440 O.3       1 ACP401      0.0000 
     14 C5'         9.4400  207.3760   99.8650 C.3       1 ACP401      0.0000 
     15 C4'         8.5490  207.1120  101.0700 C.3       1 ACP401      0.0000 
     16 O4'         9.2010  207.5020  102.2790 O.3       1 ACP401      0.0000 
     17 C3'         7.2560  207.9020  100.9790 C.3       1 ACP401      0.0000 
     18 O3'         6.2180  207.0670  100.4570 O.3       1 ACP401      0.0000 
     19 C2'         6.9890  208.3800  102.3950 C.3       1 ACP401      0.0000 
     20 O2'         5.9780  207.5950  103.0340 O.3       1 ACP401      0.0000 
     21 C1'         8.2970  208.1900  103.1490 C.3       1 ACP401      0.0000 
     22 N9          8.8610  209.5030  103.5720 N.pl3     1 ACP401      0.0000 
     23 C8          9.7590  210.2350  102.8840 C.2       1 ACP401      0.0000 
     24 N7         10.0770  211.3810  103.5400 N.2       1 ACP401      0.0000 
     25 C5          9.3700  211.4010  104.6820 C.ar      1 ACP401      0.0000 
     26 C6          9.2300  212.3250  105.8420 C.ar      1 ACP401      0.0000 
     27 N6          9.9290  213.4850  105.9060 N.pl3     1 ACP401      0.0000 
     28 N1          8.3770  211.9650  106.8370 N.ar      1 ACP401      0.0000 
     29 C2          7.6700  210.8130  106.7910 C.ar      1 ACP401      0.0000 
     30 N3          7.7510  209.9330  105.7680 N.ar      1 ACP401      0.0000 
     31 C4          8.5680  210.1600  104.7030 C.ar      1 ACP401      0.0000 
@<TRIPOS>BOND
     1    1    2 ar   
     2    1    3 ar   
     3    1    4 ar   
     4    1    8 1    
     5    5    6 ar   
     6    5    7 ar   
     7    5    8 1    
     8    5   12 1    
     9    9   10 ar   
    10    9   11 ar   
    11    9   12 1    
    12    9   13 1    
    13   13   14 1    
    14   14   15 1    
    15   15   16 1    
    16   15   17 1    
    17   16   21 1    
    18   17   18 1    
    19   17   19 1    
    20   19   20 1    
    21   19   21 1    
    22   21   22 1    
    23   22   23 1    
    24   22   31 1    
    25   23   24 2    
    26   24   25 1    
    27   25   26 ar   
    28   25   31 ar   
    29   26   27 1    
    30   26   28 ar   
    31   28   29 ar   
    32   29   30 ar   
    33   30   31 ar   
@<TRIPOS>SUBSTRUCTURE
     1 ACP401      1 GROUP   
@<TRIPOS>SET
ATOM$ORANGE STATIC     ATOMS   COLORGROUP SYSTEM 
22 8 8 14 14 15 15 17 17 19 19 21 21 23 23 25 25 26 \
26 29 29 31 31 

