#    Name: 6cn1_1_EPU
#    Modification time : Fri May 22 19:30:06 2020

@<TRIPOS>MOLECULE
6cn1_1_EPU
   44    46     1     0     0
SMALL
NO_CHARGES


@<TRIPOS>ATOM
      1 N1U        53.9030   43.9520    8.8620 N.am      1 EPU501      0.0000 
      2 C2U        55.2800   43.6240    9.0350 C.2       1 EPU501      0.0000 
      3 N3U        56.1970   44.0610    8.1500 N.am      1 EPU501      0.0000 
      4 C4U        55.8370   44.8050    7.0880 C.2       1 EPU501      0.0000 
      5 C5U        54.5000   45.1400    6.8920 C.2       1 EPU501      0.0000 
      6 C6U        53.5420   44.6960    7.8000 C.2       1 EPU501      0.0000 
      7 O2U        55.6620   42.9320   10.0070 O.2       1 EPU501      0.0000 
      8 O4U        56.6990   45.2060    6.2760 O.2       1 EPU501      0.0000 
      9 C1D        52.8800   43.4810    9.8170 C.3       1 EPU501      0.0000 
     10 C2D        52.4100   44.5860   10.7550 C.3       1 EPU501      0.0000 
     11 O2D        53.0930   44.5140   12.0140 O.3       1 EPU501      0.0000 
     12 C3D        50.9120   44.3700   10.9080 C.3       1 EPU501      0.0000 
     13 C4D        50.5260   43.3560    9.8350 C.3       1 EPU501      0.0000 
     14 O4D        51.7180   43.0090    9.1270 O.3       1 EPU501      0.0000 
     15 O3D        50.5710   43.8710   12.2090 O.3       1 EPU501      0.0000 
     16 C5D        49.4910   43.8880    8.8520 C.3       1 EPU501      0.0000 
     17 O5D        50.0260   45.0230    8.1770 O.3       1 EPU501      0.0000 
     18 PA         49.5320   45.4990    6.7180 P.3       1 EPU501      0.0000 
     19 O1A        50.7560   45.7010    5.8600 O.co2     1 EPU501      0.0000 
     20 O2A        48.4280   44.5900    6.2320 O.co2     1 EPU501      0.0000 
     21 O3A        48.8930   46.9490    7.0280 O.3       1 EPU501      0.0000 
     22 PB         48.9750   48.1710    5.9780 P.3       1 EPU501      0.0000 
     23 O1B        49.0730   47.6260    4.5730 O.co2     1 EPU501      0.0000 
     24 O2B        50.0140   49.1450    6.4720 O.co2     1 EPU501      0.0000 
     25 C1         46.3740   48.4070    5.4750 C.3       1 EPU501      0.0000 
     26 C2         45.2830   49.4710    5.5890 C.3       1 EPU501      0.0000 
     27 C3         44.8500   49.6110    7.0460 C.3       1 EPU501      0.0000 
     28 C4         44.3640   48.2490    7.5310 C.3       1 EPU501      0.0000 
     29 C5         45.4630   47.1960    7.3670 C.3       1 EPU501      0.0000 
     30 C6         44.9830   45.8000    7.7580 C.3       1 EPU501      0.0000 
     31 C7         45.8850   50.9570    3.7310 C.2       1 EPU501      0.0000 
     32 C8         46.3810   52.3230    3.3570 C.3       1 EPU501      0.0000 
     33 N2         45.7510   50.7360    5.0440 N.am      1 EPU501      0.0000 
     34 O1         47.5380   48.8660    6.1650 O.3       1 EPU501      0.0000 
     35 O3         43.7970   50.5680    7.1790 O.3       1 EPU501      0.0000 
     36 O4         43.9590   48.3330    8.9010 O.3       1 EPU501      0.0000 
     37 O5         45.9210   47.1560    6.0120 O.3       1 EPU501      0.0000 
     38 O6         43.8780   45.3940    6.9390 O.3       1 EPU501      0.0000 
     39 O7         45.6290   50.1210    2.8760 O.2       1 EPU501      0.0000 
     40 C1E        44.2410   53.0410    7.3210 C.2       1 EPU501      0.0000 
     41 O1E        45.2170   53.7790    7.5830 O.co2     1 EPU501      0.0000 
     42 O2E        43.3580   53.3770    6.5060 O.co2     1 EPU501      0.0000 
     43 C2E        44.1140   51.7460    7.9850 C.2       1 EPU501      0.0000 
     44 C3E        44.2530   51.6620    9.2990 C.2       1 EPU501      0.0000 
@<TRIPOS>BOND
     1    4    5 1    
     2    4    8 2    
     3    5    6 2    
     4    9   10 1    
     5    9   14 1    
     6   10   11 1    
     7   10   12 1    
     8   12   13 1    
     9   12   15 1    
    10   13   14 1    
    11   13   16 1    
    12   16   17 1    
    13   17   18 1    
    14   18   19 ar   
    15   18   20 ar   
    16   18   21 1    
    17   21   22 1    
    18   22   23 ar   
    19   22   24 ar   
    20   22   34 1    
    21   25   26 1    
    22   25   34 1    
    23   25   37 1    
    24   26   27 1    
    25   26   33 1    
    26   27   28 1    
    27   27   35 1    
    28   28   29 1    
    29   28   36 1    
    30   29   30 1    
    31   29   37 1    
    32   30   38 1    
    33   31   32 1    
    34   31   33 am   
    35   31   39 2    
    36   35   43 1    
    37   40   41 ar   
    38   40   42 ar   
    39   40   43 1    
    40   43   44 2    
    41    1    2 1    
    42    1    6 1    
    43    1    9 1    
    44    2    3 1    
    45    2    7 2    
    46    3    4 1    
@<TRIPOS>SUBSTRUCTURE
     1 EPU501      1 GROUP   
@<TRIPOS>SET

