#    Name: 6cn1_3_EPU
#    Modification time : Fri May 22 19:30:50 2020

@<TRIPOS>MOLECULE
6cn1_3_EPU
   44    46     1     0     0
SMALL
NO_CHARGES


@<TRIPOS>ATOM
      1 N1U        61.3530   32.0770   35.6880 N.am      1 EPU501      0.0000 
      2 C2U        62.4820   32.5220   34.9440 C.2       1 EPU501      0.0000 
      3 N3U        63.7200   32.1300   35.2920 N.am      1 EPU501      0.0000 
      4 C4U        63.9180   31.3220   36.3460 C.2       1 EPU501      0.0000 
      5 C5U        62.8350   30.8730   37.0970 C.2       1 EPU501      0.0000 
      6 C6U        61.5490   31.2700   36.7450 C.2       1 EPU501      0.0000 
      7 O2U        62.3500   33.2760   33.9540 O.2       1 EPU501      0.0000 
      8 O4U        65.0730   30.9660   36.6550 O.2       1 EPU501      0.0000 
      9 C1D        59.9830   32.5000   35.3320 C.3       1 EPU501      0.0000 
     10 C2D        59.1600   31.3730   34.7270 C.3       1 EPU501      0.0000 
     11 O2D        59.1990   31.4300   33.2970 O.3       1 EPU501      0.0000 
     12 C3D        57.7570   31.5850   35.2640 C.3       1 EPU501      0.0000 
     13 C4D        57.8980   32.5460   36.4370 C.3       1 EPU501      0.0000 
     14 O4D        59.2720   32.9420   36.4940 O.3       1 EPU501      0.0000 
     15 O3D        56.8970   32.1570   34.2720 O.3       1 EPU501      0.0000 
     16 C5D        57.4700   31.9430   37.7740 C.3       1 EPU501      0.0000 
     17 O5D        58.2500   30.7870   38.0850 O.3       1 EPU501      0.0000 
     18 PA         58.5940   30.3420   39.6000 P.3       1 EPU501      0.0000 
     19 O1A        60.0910   30.1900   39.7010 O.co2     1 EPU501      0.0000 
     20 O2A        57.8700   31.2250   40.5860 O.co2     1 EPU501      0.0000 
     21 O3A        57.9190   28.8880   39.6960 O.3       1 EPU501      0.0000 
     22 PB         58.6810   27.6220   40.3350 P.3       1 EPU501      0.0000 
     23 O1B        59.5420   28.0700   41.4930 O.co2     1 EPU501      0.0000 
     24 O2B        59.2950   26.8480   39.1920 O.co2     1 EPU501      0.0000 
     25 C1         56.7770   27.1040   42.1290 C.3       1 EPU501      0.0000 
     26 C2         55.8920   25.9310   42.5480 C.3       1 EPU501      0.0000 
     27 C3         54.7940   25.7220   41.5120 C.3       1 EPU501      0.0000 
     28 C4         53.9870   27.0100   41.3990 C.3       1 EPU501      0.0000 
     29 C5         54.9130   28.1660   41.0080 C.3       1 EPU501      0.0000 
     30 C6         54.1760   29.5020   40.9270 C.3       1 EPU501      0.0000 
     31 C7         57.4510   24.5220   43.7940 C.2       1 EPU501      0.0000 
     32 C8         58.2620   23.2590   43.7800 C.3       1 EPU501      0.0000 
     33 N2         56.7000   24.7350   42.7110 N.am      1 EPU501      0.0000 
     34 O1         57.4530   26.7600   40.9160 O.3       1 EPU501      0.0000 
     35 O3         53.9490   24.6260   41.8810 O.3       1 EPU501      0.0000 
     36 O4         52.9460   26.8510   40.4310 O.3       1 EPU501      0.0000 
     37 O5         55.9840   28.2860   41.9540 O.3       1 EPU501      0.0000 
     38 O6         53.5490   29.8150   42.1760 O.3       1 EPU501      0.0000 
     39 O7         57.4920   25.2970   44.7380 O.2       1 EPU501      0.0000 
     40 C1E        54.5010   22.2010   41.4700 C.2       1 EPU501      0.0000 
     41 O1E        55.3890   21.5950   40.8300 O.co2     1 EPU501      0.0000 
     42 O2E        54.0190   21.7440   42.5290 O.co2     1 EPU501      0.0000 
     43 C2E        54.0040   23.4820   40.9740 C.2       1 EPU501      0.0000 
     44 C3E        53.5950   23.5810   39.7180 C.2       1 EPU501      0.0000 
@<TRIPOS>BOND
     1    1    2 1    
     2    1    6 1    
     3    1    9 1    
     4    2    3 1    
     5    2    7 2    
     6    3    4 1    
     7    4    5 1    
     8    4    8 2    
     9    5    6 2    
    10    9   10 1    
    11    9   14 1    
    12   10   11 1    
    13   10   12 1    
    14   12   13 1    
    15   12   15 1    
    16   13   14 1    
    17   13   16 1    
    18   16   17 1    
    19   17   18 1    
    20   18   19 ar   
    21   18   20 ar   
    22   18   21 1    
    23   21   22 1    
    24   22   23 ar   
    25   22   24 ar   
    26   22   34 1    
    27   25   26 1    
    28   25   34 1    
    29   25   37 1    
    30   26   27 1    
    31   26   33 1    
    32   27   28 1    
    33   27   35 1    
    34   28   29 1    
    35   28   36 1    
    36   29   30 1    
    37   29   37 1    
    38   30   38 1    
    39   31   32 1    
    40   31   33 am   
    41   31   39 2    
    42   35   43 1    
    43   40   41 ar   
    44   40   42 ar   
    45   40   43 1    
    46   43   44 2    
@<TRIPOS>SUBSTRUCTURE
     1 EPU501      1 GROUP   
@<TRIPOS>SET

