#    Name: 6cn1_5_EPU
#    Modification time : Fri May 22 19:31:24 2020

@<TRIPOS>MOLECULE
6cn1_5_EPU
   44    46     1     0     0
SMALL
NO_CHARGES


@<TRIPOS>ATOM
      1 N1U        60.0550   31.2590  119.4330 N.am      1 EPU500      0.0000 
      2 C2U        61.4280   31.5820  119.2350 C.2       1 EPU500      0.0000 
      3 N3U        62.3630   31.1220  120.0860 N.am      1 EPU500      0.0000 
      4 C4U        62.0280   30.3580  121.1360 C.2       1 EPU500      0.0000 
      5 C5U        60.6960   30.0240  121.3590 C.2       1 EPU500      0.0000 
      6 C6U        59.7190   30.4940  120.4860 C.2       1 EPU500      0.0000 
      7 O2U        61.7960   32.2930  118.2740 O.2       1 EPU500      0.0000 
      8 O4U        62.9140   29.9410  121.9100 O.2       1 EPU500      0.0000 
      9 C1D        59.0100   31.7590  118.5160 C.3       1 EPU500      0.0000 
     10 C2D        58.5080   30.6820  117.5630 C.3       1 EPU500      0.0000 
     11 O2D        59.1570   30.7970  116.2920 O.3       1 EPU500      0.0000 
     12 C3D        57.0110   30.9090  117.4460 C.3       1 EPU500      0.0000 
     13 C4D        56.6510   31.8830  118.5640 C.3       1 EPU500      0.0000 
     14 O4D        57.8660   32.2340  119.2380 O.3       1 EPU500      0.0000 
     15 O3D        56.6620   31.4610  116.1690 O.3       1 EPU500      0.0000 
     16 C5D        55.6560   31.3060  119.5690 C.3       1 EPU500      0.0000 
     17 O5D        56.1910   30.1250  120.1640 O.3       1 EPU500      0.0000 
     18 PA         55.8510   29.6580  121.6700 P.3       1 EPU500      0.0000 
     19 O1A        57.1550   29.5300  122.4210 O.co2     1 EPU500      0.0000 
     20 O2A        54.7490   30.5170  122.2440 O.co2     1 EPU500      0.0000 
     21 O3A        55.2430   28.1860  121.4200 O.3       1 EPU500      0.0000 
     22 PB         55.5360   26.9430  122.4020 P.3       1 EPU500      0.0000 
     23 O1B        55.7740   27.4550  123.8000 O.co2     1 EPU500      0.0000 
     24 O2B        56.5660   26.0600  121.7410 O.co2     1 EPU500      0.0000 
     25 C1         53.0220   26.5590  123.1980 C.3       1 EPU500      0.0000 
     26 C2         51.9850   25.4380  123.2110 C.3       1 EPU500      0.0000 
     27 C3         51.4200   25.2490  121.8040 C.3       1 EPU500      0.0000 
     28 C4         50.7890   26.5660  121.3630 C.3       1 EPU500      0.0000 
     29 C5         51.8270   27.6880  121.4080 C.3       1 EPU500      0.0000 
     30 C6         51.2190   29.0450  121.0610 C.3       1 EPU500      0.0000 
     31 C7         52.8020   24.0210  125.0410 C.2       1 EPU500      0.0000 
     32 C8         53.4390   22.7100  125.3960 C.3       1 EPU500      0.0000 
     33 N2         52.5750   24.2150  123.7350 N.am      1 EPU500      0.0000 
     34 O1         54.1300   26.1640  122.3840 O.3       1 EPU500      0.0000 
     35 O3         50.4440   24.1980  121.7680 O.3       1 EPU500      0.0000 
     36 O4         50.2610   26.4380  120.0400 O.3       1 EPU500      0.0000 
     37 O5         52.4250   27.7700  122.7100 O.3       1 EPU500      0.0000 
     38 O6         50.2580   29.4290  122.0500 O.3       1 EPU500      0.0000 
     39 O7         52.5220   24.8430  125.9010 O.2       1 EPU500      0.0000 
     40 C1E        51.0310   21.7540  121.6140 C.2       1 EPU500      0.0000 
     41 O1E        51.9120   20.9710  121.1870 O.co2     1 EPU500      0.0000 
     42 O2E        50.3200   21.4710  122.6020 O.co2     1 EPU500      0.0000 
     43 C2E        50.8130   23.0410  120.9540 C.2       1 EPU500      0.0000 
     44 C3E        50.9340   23.1460  119.6370 C.2       1 EPU500      0.0000 
@<TRIPOS>BOND
     1    1    2 1    
     2    1    6 1    
     3    1    9 1    
     4    2    3 1    
     5    2    7 2    
     6    3    4 1    
     7    4    5 1    
     8    4    8 2    
     9    5    6 2    
    10    9   10 1    
    11    9   14 1    
    12   10   11 1    
    13   10   12 1    
    14   12   13 1    
    15   12   15 1    
    16   13   14 1    
    17   13   16 1    
    18   16   17 1    
    19   17   18 1    
    20   18   19 ar   
    21   18   20 ar   
    22   18   21 1    
    23   21   22 1    
    24   22   23 ar   
    25   22   24 ar   
    26   22   34 1    
    27   25   26 1    
    28   25   34 1    
    29   25   37 1    
    30   26   27 1    
    31   26   33 1    
    32   27   28 1    
    33   27   35 1    
    34   28   29 1    
    35   28   36 1    
    36   29   30 1    
    37   29   37 1    
    38   30   38 1    
    39   31   32 1    
    40   31   33 am   
    41   31   39 2    
    42   35   43 1    
    43   40   41 ar   
    44   40   42 ar   
    45   40   43 1    
    46   43   44 2    
@<TRIPOS>SUBSTRUCTURE
     1 EPU500      1 GROUP   
@<TRIPOS>SET

