#    Name: 6cn1_7_EPU
#    Modification time : Fri May 22 19:31:56 2020

@<TRIPOS>MOLECULE
6cn1_7_EPU
   44    46     1     0     0
SMALL
NO_CHARGES


@<TRIPOS>ATOM
      1 N1U        64.6020   43.4480   91.5760 N.am      1 EPU500      0.0000 
      2 C2U        65.8130   43.0970   92.2320 C.2       1 EPU500      0.0000 
      3 N3U        66.9930   43.5230   91.7470 N.am      1 EPU500      0.0000 
      4 C4U        67.0540   44.2820   90.6400 C.2       1 EPU500      0.0000 
      5 C5U        65.8870   44.6400   89.9770 C.2       1 EPU500      0.0000 
      6 C6U        64.6620   44.2040   90.4700 C.2       1 EPU500      0.0000 
      7 O2U        65.8060   42.3930   93.2660 O.2       1 EPU500      0.0000 
      8 O4U        68.1590   44.6680   90.2030 O.2       1 EPU500      0.0000 
      9 C1D        63.2930   42.9960   92.0830 C.3       1 EPU500      0.0000 
     10 C2D        62.4870   44.1410   92.6880 C.3       1 EPU500      0.0000 
     11 O2D        62.6290   44.1750   94.1150 O.3       1 EPU500      0.0000 
     12 C3D        61.0510   43.8840   92.2650 C.3       1 EPU500      0.0000 
     13 C4D        61.1320   42.8500   91.1450 C.3       1 EPU500      0.0000 
     14 O4D        62.5000   42.4440   91.0270 O.3       1 EPU500      0.0000 
     15 O3D        60.2580   43.3790   93.3470 O.3       1 EPU500      0.0000 
     16 C5D        60.6430   43.3750   89.8000 C.3       1 EPU500      0.0000 
     17 O5D        61.2800   44.6110   89.4830 O.3       1 EPU500      0.0000 
     18 PA         61.5390   45.0710   87.9630 P.3       1 EPU500      0.0000 
     19 O1A        63.0200   45.3250   87.8050 O.co2     1 EPU500      0.0000 
     20 O2A        60.8420   44.1270   87.0100 O.co2     1 EPU500      0.0000 
     21 O3A        60.7590   46.4760   87.8910 O.3       1 EPU500      0.0000 
     22 PB         61.3890   47.7180   87.0890 P.3       1 EPU500      0.0000 
     23 O1B        62.0690   47.1990   85.8450 O.co2     1 EPU500      0.0000 
     24 O2B        62.1810   48.5440   88.0720 O.co2     1 EPU500      0.0000 
     25 C1         59.2610   48.1670   85.5510 C.3       1 EPU500      0.0000 
     26 C2         58.3150   49.3090   85.1810 C.3       1 EPU500      0.0000 
     27 C3         57.3180   49.5730   86.3060 C.3       1 EPU500      0.0000 
     28 C4         56.5850   48.2790   86.6310 C.3       1 EPU500      0.0000 
     29 C5         57.5770   47.1580   86.9510 C.3       1 EPU500      0.0000 
     30 C6         56.8810   45.8230   87.2020 C.3       1 EPU500      0.0000 
     31 C7         59.6300   50.7020   83.6500 C.2       1 EPU500      0.0000 
     32 C8         60.4180   51.9700   83.4970 C.3       1 EPU500      0.0000 
     33 N2         59.0930   50.4960   84.8590 N.am      1 EPU500      0.0000 
     34 O1         60.0830   48.5570   86.6550 O.3       1 EPU500      0.0000 
     35 O3         56.3650   50.5590   85.9100 O.3       1 EPU500      0.0000 
     36 O4         55.7050   48.4820   87.7410 O.3       1 EPU500      0.0000 
     37 O5         58.5110   46.9920   85.8780 O.3       1 EPU500      0.0000 
     38 O6         56.0000   45.4920   86.1220 O.3       1 EPU500      0.0000 
     39 O7         59.5030   49.9230   82.7180 O.2       1 EPU500      0.0000 
     40 C1E        57.1560   52.8840   86.4910 C.2       1 EPU500      0.0000 
     41 O1E        58.2660   52.9940   87.0590 O.co2     1 EPU500      0.0000 
     42 O2E        56.7410   53.7360   85.6760 O.co2     1 EPU500      0.0000 
     43 C2E        56.3190   51.7240   86.7840 C.2       1 EPU500      0.0000 
     44 C3E        55.5210   51.7450   87.8380 C.2       1 EPU500      0.0000 
@<TRIPOS>BOND
     1    1    2 1    
     2    1    6 1    
     3    1    9 1    
     4    2    3 1    
     5    2    7 2    
     6    3    4 1    
     7    4    5 1    
     8    4    8 2    
     9    5    6 2    
    10    9   10 1    
    11    9   14 1    
    12   10   11 1    
    13   10   12 1    
    14   12   13 1    
    15   12   15 1    
    16   13   14 1    
    17   13   16 1    
    18   16   17 1    
    19   17   18 1    
    20   18   19 ar   
    21   18   20 ar   
    22   18   21 1    
    23   21   22 1    
    24   22   23 ar   
    25   22   24 ar   
    26   22   34 1    
    27   25   26 1    
    28   25   34 1    
    29   25   37 1    
    30   26   27 1    
    31   26   33 1    
    32   27   28 1    
    33   27   35 1    
    34   28   29 1    
    35   28   36 1    
    36   29   30 1    
    37   29   37 1    
    38   30   38 1    
    39   31   32 1    
    40   31   33 am   
    41   31   39 2    
    42   35   43 1    
    43   40   41 ar   
    44   40   42 ar   
    45   40   43 1    
    46   43   44 2    
@<TRIPOS>SUBSTRUCTURE
     1 EPU500      1 GROUP   
@<TRIPOS>SET

