#    Name: 6cn1_4_EPU
#    Modification time : Fri May 22 19:31:04 2020

@<TRIPOS>MOLECULE
6cn1_4_EPU
   44    46     1     0     0
SMALL
NO_CHARGES


@<TRIPOS>ATOM
      1 N1U        40.6480   26.2130   15.5220 N.am      1 EPU500      0.0000 
      2 C2U        39.4480   26.7130   16.0990 C.2       1 EPU500      0.0000 
      3 N3U        38.3040   26.0170   15.9810 N.am      1 EPU500      0.0000 
      4 C4U        38.2630   24.8490   15.3190 C.2       1 EPU500      0.0000 
      5 C5U        39.4210   24.3350   14.7430 C.2       1 EPU500      0.0000 
      6 C6U        40.6110   25.0450   14.8590 C.2       1 EPU500      0.0000 
      7 O2U        39.4340   27.7980   16.7250 O.2       1 EPU500      0.0000 
      8 O4U        37.1880   24.2180   15.2260 O.2       1 EPU500      0.0000 
      9 C1D        41.9170   26.9530   15.6340 C.3       1 EPU500      0.0000 
     10 C2D        42.9190   26.2240   16.5150 C.3       1 EPU500      0.0000 
     11 O2D        42.8380   26.6990   17.8620 O.3       1 EPU500      0.0000 
     12 C3D        44.2680   26.5000   15.8740 C.3       1 EPU500      0.0000 
     13 C4D        43.9570   26.9740   14.4540 C.3       1 EPU500      0.0000 
     14 O4D        42.5370   27.1190   14.3540 O.3       1 EPU500      0.0000 
     15 O3D        45.0040   27.5030   16.5870 O.3       1 EPU500      0.0000 
     16 C5D        44.4370   26.0010   13.3810 C.3       1 EPU500      0.0000 
     17 O5D        43.8930   24.7090   13.6440 O.3       1 EPU500      0.0000 
     18 PA         43.6390   23.6070   12.5010 P.3       1 EPU500      0.0000 
     19 O1A        42.1700   23.2720   12.5010 O.co2     1 EPU500      0.0000 
     20 O2A        44.3010   24.0440   11.2150 O.co2     1 EPU500      0.0000 
     21 O3A        44.4420   22.3400   13.0900 O.3       1 EPU500      0.0000 
     22 PB         44.0580   20.8180   12.7160 P.3       1 EPU500      0.0000 
     23 O1B        43.2710   20.7810   11.4290 O.co2     1 EPU500      0.0000 
     24 O2B        43.4850   20.1680   13.9500 O.co2     1 EPU500      0.0000 
     25 C1         46.2030   20.2560   11.2170 C.3       1 EPU500      0.0000 
     26 C2         47.3180   19.2090   11.2060 C.3       1 EPU500      0.0000 
     27 C3         48.4090   19.5720   12.2160 C.3       1 EPU500      0.0000 
     28 C4         48.9090   20.9830   11.9270 C.3       1 EPU500      0.0000 
     29 C5         47.7410   21.9680   11.9680 C.3       1 EPU500      0.0000 
     30 C6         48.1880   23.4050   11.6920 C.3       1 EPU500      0.0000 
     31 C7         46.0700   17.1910   10.5720 C.2       1 EPU500      0.0000 
     32 C8         45.5460   15.8640   11.0390 C.3       1 EPU500      0.0000 
     33 N2         46.7570   17.8930   11.4810 N.am      1 EPU500      0.0000 
     34 O1         45.5100   20.1680   12.4640 O.3       1 EPU500      0.0000 
     35 O3         49.5120   18.6610   12.1400 O.3       1 EPU500      0.0000 
     36 O4         49.9070   21.3640   12.8810 O.3       1 EPU500      0.0000 
     37 O5         46.7380   21.5740   11.0190 O.3       1 EPU500      0.0000 
     38 O6         48.9940   23.4820   10.5110 O.3       1 EPU500      0.0000 
     39 O7         45.8670   17.5870    9.4350 O.2       1 EPU500      0.0000 
     40 C1E        49.3810   16.4180   13.2780 C.2       1 EPU500      0.0000 
     41 O1E        48.6580   15.9140   14.1690 O.co2     1 EPU500      0.0000 
     42 O2E        49.8420   15.7400   12.3320 O.co2     1 EPU500      0.0000 
     43 C2E        49.6980   17.8440   13.3350 C.2       1 EPU500      0.0000 
     44 C3E        50.1570   18.3770   14.4590 C.2       1 EPU500      0.0000 
@<TRIPOS>BOND
     1    1    2 1    
     2    1    6 1    
     3    1    9 1    
     4    2    3 1    
     5    2    7 2    
     6    3    4 1    
     7    4    5 1    
     8    4    8 2    
     9    5    6 2    
    10    9   10 1    
    11    9   14 1    
    12   10   11 1    
    13   10   12 1    
    14   12   13 1    
    15   12   15 1    
    16   13   14 1    
    17   13   16 1    
    18   16   17 1    
    19   17   18 1    
    20   18   19 ar   
    21   18   20 ar   
    22   18   21 1    
    23   21   22 1    
    24   22   23 ar   
    25   22   24 ar   
    26   22   34 1    
    27   25   26 1    
    28   25   34 1    
    29   25   37 1    
    30   26   27 1    
    31   26   33 1    
    32   27   28 1    
    33   27   35 1    
    34   28   29 1    
    35   28   36 1    
    36   29   30 1    
    37   29   37 1    
    38   30   38 1    
    39   31   32 1    
    40   31   33 am   
    41   31   39 2    
    42   35   43 1    
    43   40   41 ar   
    44   40   42 ar   
    45   40   43 1    
    46   43   44 2    
@<TRIPOS>SUBSTRUCTURE
     1 EPU500      1 GROUP   
@<TRIPOS>SET

