#    Name: 6cn1_6_EPU
#    Modification time : Fri May 22 19:31:44 2020

@<TRIPOS>MOLECULE
6cn1_6_EPU
   44    46     1     0     0
SMALL
NO_CHARGES


@<TRIPOS>ATOM
      1 N1U        49.3770   26.3740   92.5550 N.am      1 EPU501      0.0000 
      2 C2U        48.0200   26.7710   92.7160 C.2       1 EPU501      0.0000 
      3 N3U        47.0390   26.1080   92.0790 N.am      1 EPU501      0.0000 
      4 C4U        47.3110   25.0650   91.2780 C.2       1 EPU501      0.0000 
      5 C5U        48.6270   24.6520   91.1010 C.2       1 EPU501      0.0000 
      6 C6U        49.6510   25.3310   91.7550 C.2       1 EPU501      0.0000 
      7 O2U        47.7120   27.7360   93.4500 O.2       1 EPU501      0.0000 
      8 O4U        46.3850   24.4590   90.6970 O.2       1 EPU501      0.0000 
      9 C1D        50.4760   27.0840   93.2430 C.3       1 EPU501      0.0000 
     10 C2D        50.9780   26.3150   94.4590 C.3       1 EPU501      0.0000 
     11 O2D        50.3780   26.8100   95.6580 O.3       1 EPU501      0.0000 
     12 C3D        52.4820   26.5120   94.4700 C.3       1 EPU501      0.0000 
     13 C4D        52.8370   27.0280   93.0790 C.3       1 EPU501      0.0000 
     14 O4D        51.6070   27.2630   92.3820 O.3       1 EPU501      0.0000 
     15 O3D        52.8780   27.4610   95.4660 O.3       1 EPU501      0.0000 
     16 C5D        53.6920   26.0580   92.2710 C.3       1 EPU501      0.0000 
     17 O5D        53.1360   24.7450   92.3210 O.3       1 EPU501      0.0000 
     18 PA         53.3430   23.6780   91.1340 P.3       1 EPU501      0.0000 
     19 O1A        51.9870   23.3050   90.5910 O.co2     1 EPU501      0.0000 
     20 O2A        54.4100   24.1770   90.1910 O.co2     1 EPU501      0.0000 
     21 O3A        53.9400   22.4110   91.9260 O.3       1 EPU501      0.0000 
     22 PB         53.5260   20.9030   91.5430 P.3       1 EPU501      0.0000 
     23 O1B        53.2170   20.8210   90.0680 O.co2     1 EPU501      0.0000 
     24 O2B        52.5130   20.4310   92.5580 O.co2     1 EPU501      0.0000 
     25 C1         55.9830   20.1110   90.8860 C.3       1 EPU501      0.0000 
     26 C2         56.9700   19.0180   91.2920 C.3       1 EPU501      0.0000 
     27 C3         57.5930   19.3660   92.6450 C.3       1 EPU501      0.0000 
     28 C4         58.2800   20.7200   92.5160 C.3       1 EPU501      0.0000 
     29 C5         57.2700   21.7810   92.0800 C.3       1 EPU501      0.0000 
     30 C6         57.9210   23.1450   91.8700 C.3       1 EPU501      0.0000 
     31 C7         55.9800   17.0710   90.1830 C.2       1 EPU501      0.0000 
     32 C8         55.2510   15.7740   90.3780 C.3       1 EPU501      0.0000 
     33 N2         56.2920   17.7310   91.3050 N.am      1 EPU501      0.0000 
     34 O1         54.8950   20.1080   91.8150 O.3       1 EPU501      0.0000 
     35 O3         58.5470   18.3820   93.0560 O.3       1 EPU501      0.0000 
     36 O4         58.8780   21.0870   93.7610 O.3       1 EPU501      0.0000 
     37 O5         56.6360   21.3870   90.8570 O.3       1 EPU501      0.0000 
     38 O6         58.9000   23.0750   90.8270 O.3       1 EPU501      0.0000 
     39 O7         56.2550   17.4820   89.0630 O.2       1 EPU501      0.0000 
     40 C1E        57.6580   16.3410   94.2390 C.2       1 EPU501      0.0000 
     41 O1E        56.5790   16.0950   94.8270 O.co2     1 EPU501      0.0000 
     42 O2E        58.2820   15.4700   93.5950 O.co2     1 EPU501      0.0000 
     43 C2E        58.2060   17.6920   94.2980 C.2       1 EPU501      0.0000 
     44 C3E        58.3950   18.2690   95.4740 C.2       1 EPU501      0.0000 
@<TRIPOS>BOND
     1    1    2 1    
     2    1    6 1    
     3    1    9 1    
     4    2    3 1    
     5    2    7 2    
     6    3    4 1    
     7    4    5 1    
     8    4    8 2    
     9    5    6 2    
    10    9   10 1    
    11    9   14 1    
    12   10   11 1    
    13   10   12 1    
    14   12   13 1    
    15   12   15 1    
    16   13   14 1    
    17   13   16 1    
    18   16   17 1    
    19   17   18 1    
    20   18   19 ar   
    21   18   20 ar   
    22   18   21 1    
    23   21   22 1    
    24   22   23 ar   
    25   22   24 ar   
    26   22   34 1    
    27   25   26 1    
    28   25   34 1    
    29   25   37 1    
    30   26   27 1    
    31   26   33 1    
    32   27   28 1    
    33   27   35 1    
    34   28   29 1    
    35   28   36 1    
    36   29   30 1    
    37   29   37 1    
    38   30   38 1    
    39   31   32 1    
    40   31   33 am   
    41   31   39 2    
    42   35   43 1    
    43   40   41 ar   
    44   40   42 ar   
    45   40   43 1    
    46   43   44 2    
@<TRIPOS>SUBSTRUCTURE
     1 EPU501      1 GROUP   
@<TRIPOS>SET

