#    Name: 6cn1_2_EPU
#    Modification time : Fri May 22 19:30:28 2020

@<TRIPOS>MOLECULE
6cn1_2_EPU
   44    46     1     0     0
SMALL
NO_CHARGES


@<TRIPOS>ATOM
      1 N1U        44.9930   48.1560   36.3700 N.am      1 EPU500      0.0000 
      2 C2U        43.6600   47.6960   36.1880 C.2       1 EPU500      0.0000 
      3 N3U        42.6490   48.2830   36.8500 N.am      1 EPU500      0.0000 
      4 C4U        42.8730   49.3040   37.6930 C.2       1 EPU500      0.0000 
      5 C5U        44.1630   49.7770   37.8890 C.2       1 EPU500      0.0000 
      6 C6U        45.2210   49.1800   37.2090 C.2       1 EPU500      0.0000 
      7 O2U        43.4030   46.7460   35.4140 O.2       1 EPU500      0.0000 
      8 O4U        41.9210   49.8410   38.2970 O.2       1 EPU500      0.0000 
      9 C1D        46.1120   47.5230   35.6510 C.3       1 EPU500      0.0000 
     10 C2D        46.4210   48.2760   34.3700 C.3       1 EPU500      0.0000 
     11 O2D        45.7210   47.6890   33.2670 O.3       1 EPU500      0.0000 
     12 C3D        47.9310   48.1960   34.2240 C.3       1 EPU500      0.0000 
     13 C4D        48.4520   47.7660   35.5940 C.3       1 EPU500      0.0000 
     14 O4D        47.3160   47.5170   36.4250 O.3       1 EPU500      0.0000 
     15 O3D        48.3220   47.2510   33.2220 O.3       1 EPU500      0.0000 
     16 C5D        49.3390   48.8120   36.2610 C.3       1 EPU500      0.0000 
     17 O5D        48.6380   50.0500   36.3590 O.3       1 EPU500      0.0000 
     18 PA         48.9680   51.1470   37.4890 P.3       1 EPU500      0.0000 
     19 O1A        47.7270   51.3250   38.3280 O.co2     1 EPU500      0.0000 
     20 O2A        50.2750   50.8080   38.1600 O.co2     1 EPU500      0.0000 
     21 O3A        49.1910   52.4880   36.6230 O.3       1 EPU500      0.0000 
     22 PB         48.9630   53.9650   37.2300 P.3       1 EPU500      0.0000 
     23 O1B        48.8970   53.9080   38.7340 O.co2     1 EPU500      0.0000 
     24 O2B        47.8330   54.6030   36.4600 O.co2     1 EPU500      0.0000 
     25 C1         51.4810   54.8370   37.6180 C.3       1 EPU500      0.0000 
     26 C2         52.3270   55.9970   37.1030 C.3       1 EPU500      0.0000 
     27 C3         52.7810   55.6980   35.6770 C.3       1 EPU500      0.0000 
     28 C4         53.5550   54.3860   35.6510 C.3       1 EPU500      0.0000 
     29 C5         52.7790   53.2480   36.3170 C.3       1 EPU500      0.0000 
     30 C6         53.6560   52.0110   36.5020 C.3       1 EPU500      0.0000 
     31 C7         51.4060   57.9080   38.3300 C.2       1 EPU500      0.0000 
     32 C8         50.6090   59.1740   38.2280 C.3       1 EPU500      0.0000 
     33 N2         51.5780   57.2420   37.1820 N.am      1 EPU500      0.0000 
     34 O1         50.3180   54.7140   36.7890 O.3       1 EPU500      0.0000 
     35 O3         53.6280   56.7410   35.1870 O.3       1 EPU500      0.0000 
     36 O4         53.8330   54.0530   34.2900 O.3       1 EPU500      0.0000 
     37 O5         52.2730   53.6410   37.6010 O.3       1 EPU500      0.0000 
     38 O6         54.6040   52.2180   37.5590 O.3       1 EPU500      0.0000 
     39 O7         51.8590   57.5270   39.3990 O.2       1 EPU500      0.0000 
     40 C1E        52.8120   58.9550   34.3400 C.2       1 EPU500      0.0000 
     41 O1E        51.6360   59.3460   34.5020 O.co2     1 EPU500      0.0000 
     42 O2E        53.7890   59.7350   34.3790 O.co2     1 EPU500      0.0000 
     43 C2E        53.0680   57.5410   34.1020 C.2       1 EPU500      0.0000 
     44 C3E        52.8090   57.0180   32.9140 C.2       1 EPU500      0.0000 
@<TRIPOS>BOND
     1    1    2 1    
     2    1    6 1    
     3    1    9 1    
     4    2    3 1    
     5    2    7 2    
     6    3    4 1    
     7    4    5 1    
     8    4    8 2    
     9    5    6 2    
    10    9   10 1    
    11    9   14 1    
    12   10   11 1    
    13   10   12 1    
    14   12   13 1    
    15   12   15 1    
    16   13   14 1    
    17   13   16 1    
    18   16   17 1    
    19   17   18 1    
    20   18   19 ar   
    21   18   20 ar   
    22   18   21 1    
    23   21   22 1    
    24   22   23 ar   
    25   22   24 ar   
    26   22   34 1    
    27   25   26 1    
    28   25   34 1    
    29   25   37 1    
    30   26   27 1    
    31   26   33 1    
    32   27   28 1    
    33   27   35 1    
    34   28   29 1    
    35   28   36 1    
    36   29   30 1    
    37   29   37 1    
    38   30   38 1    
    39   31   32 1    
    40   31   33 am   
    41   31   39 2    
    42   35   43 1    
    43   40   41 ar   
    44   40   42 ar   
    45   40   43 1    
    46   43   44 2    
@<TRIPOS>SUBSTRUCTURE
     1 EPU500      1 GROUP   
@<TRIPOS>SET

