#    Name: 6cn1_8_EPU
#    Modification time : Fri May 22 19:32:08 2020

@<TRIPOS>MOLECULE
6cn1_8_EPU
   44    46     1     0     0
SMALL
NO_CHARGES


@<TRIPOS>ATOM
      1 N1U        45.6690   48.4810  113.5640 N.am      1 EPU501      0.0000 
      2 C2U        44.4290   47.9930  113.0590 C.2       1 EPU501      0.0000 
      3 N3U        43.2820   48.6330  113.3570 N.am      1 EPU501      0.0000 
      4 C4U        43.2820   49.7320  114.1310 C.2       1 EPU501      0.0000 
      5 C5U        44.4770   50.2320  114.6350 C.2       1 EPU501      0.0000 
      6 C6U        45.6670   49.5800  114.3370 C.2       1 EPU501      0.0000 
      7 O2U        44.3780   46.9700  112.3370 O.2       1 EPU501      0.0000 
      8 O4U        42.2110   50.3180  114.3960 O.2       1 EPU501      0.0000 
      9 C1D        46.9470   47.8120  113.2590 C.3       1 EPU501      0.0000 
     10 C2D        47.8160   48.6690  112.3510 C.3       1 EPU501      0.0000 
     11 O2D        47.5930   48.3330  110.9810 O.3       1 EPU501      0.0000 
     12 C3D        49.2340   48.3800  112.7950 C.3       1 EPU501      0.0000 
     13 C4D        49.1060   47.8250  114.2100 C.3       1 EPU501      0.0000 
     14 O4D        47.7150   47.5760  114.4430 O.3       1 EPU501      0.0000 
     15 O3D        49.8600   47.4220  111.9350 O.3       1 EPU501      0.0000 
     16 C5D        49.6320   48.7770  115.2810 C.3       1 EPU501      0.0000 
     17 O5D        49.0950   50.0840  115.0820 O.3       1 EPU501      0.0000 
     18 PA         48.9490   51.1490  116.2800 P.3       1 EPU501      0.0000 
     19 O1A        47.4800   51.3650  116.5440 O.co2     1 EPU501      0.0000 
     20 O2A        49.8580   50.7350  117.4130 O.co2     1 EPU501      0.0000 
     21 O3A        49.5480   52.4800  115.5870 O.3       1 EPU501      0.0000 
     22 PB         49.0890   53.9820  115.9710 P.3       1 EPU501      0.0000 
     23 O1B        48.4040   53.9830  117.3160 O.co2     1 EPU501      0.0000 
     24 O2B        48.3940   54.5770  114.7710 O.co2     1 EPU501      0.0000 
     25 C1         51.2870   54.6960  117.3250 C.3       1 EPU501      0.0000 
     26 C2         52.3530   55.7930  117.2730 C.3       1 EPU501      0.0000 
     27 C3         53.3440   55.5010  116.1500 C.3       1 EPU501      0.0000 
     28 C4         53.9670   54.1360  116.4190 C.3       1 EPU501      0.0000 
     29 C5         52.8640   53.0760  116.4600 C.3       1 EPU501      0.0000 
     30 C6         53.4160   51.6780  116.7290 C.3       1 EPU501      0.0000 
     31 C7         51.1300   57.7380  118.1200 C.2       1 EPU501      0.0000 
     32 C8         50.4990   59.0500  117.7580 C.3       1 EPU501      0.0000 
     33 N2         51.7260   57.0940  117.1100 N.am      1 EPU501      0.0000 
     34 O1         50.5030   54.7430  116.1260 O.3       1 EPU501      0.0000 
     35 O3         54.3600   56.5080  116.0850 O.3       1 EPU501      0.0000 
     36 O4         54.9380   53.8150  115.4160 O.3       1 EPU501      0.0000 
     37 O5         51.9040   53.4090  117.4740 O.3       1 EPU501      0.0000 
     38 O6         54.1630   51.6690  117.9490 O.3       1 EPU501      0.0000 
     39 O7         51.0840   57.3040  119.2630 O.2       1 EPU501      0.0000 
     40 C1E        54.0460   58.6820  114.8550 C.2       1 EPU501      0.0000 
     41 O1E        53.1780   59.1110  114.0640 O.co2     1 EPU501      0.0000 
     42 O2E        54.6350   59.4290  115.6660 O.co2     1 EPU501      0.0000 
     43 C2E        54.3900   57.2640  114.8360 C.2       1 EPU501      0.0000 
     44 C3E        54.7360   56.6940  113.6930 C.2       1 EPU501      0.0000 
@<TRIPOS>BOND
     1    1    2 1    
     2    1    6 1    
     3    1    9 1    
     4    2    3 1    
     5    2    7 2    
     6    3    4 1    
     7    4    5 1    
     8    4    8 2    
     9    5    6 2    
    10    9   10 1    
    11    9   14 1    
    12   10   11 1    
    13   10   12 1    
    14   12   13 1    
    15   12   15 1    
    16   13   14 1    
    17   13   16 1    
    18   16   17 1    
    19   17   18 1    
    20   18   19 ar   
    21   18   20 ar   
    22   18   21 1    
    23   21   22 1    
    24   22   23 ar   
    25   22   24 ar   
    26   22   34 1    
    27   25   26 1    
    28   25   34 1    
    29   25   37 1    
    30   26   27 1    
    31   26   33 1    
    32   27   28 1    
    33   27   35 1    
    34   28   29 1    
    35   28   36 1    
    36   29   30 1    
    37   29   37 1    
    38   30   38 1    
    39   31   32 1    
    40   31   33 am   
    41   31   39 2    
    42   35   43 1    
    43   40   41 ar   
    44   40   42 ar   
    45   40   43 1    
    46   43   44 2    
@<TRIPOS>SUBSTRUCTURE
     1 EPU501      1 GROUP   
@<TRIPOS>SET

