#    Name: 6io0_1_NDP
#    Modification time : Fri May 22 19:27:07 2020

@<TRIPOS>MOLECULE
6io0_1_NDP
   48    52     1     0     1
SMALL
NO_CHARGES


@<TRIPOS>ATOM
      1 PA         12.0490  -26.5940  -12.9780 P.3       1 NDP502      0.0000 
      2 O1A        12.1410  -27.9890  -12.4220 O.co2     1 NDP502      0.0000 
      3 O2A        11.8810  -26.3400  -14.4400 O.co2     1 NDP502      0.0000 
      4 O5B        13.3150  -25.7360  -12.4530 O.3       1 NDP502      0.0000 
      5 C5B        13.5870  -25.6050  -11.0230 C.3       1 NDP502      0.0000 
      6 C4B        15.0800  -25.5180  -10.7970 C.3       1 NDP502      0.0000 
      7 O4B        15.6580  -26.8480  -10.6410 O.3       1 NDP502      0.0000 
      8 C3B        15.8920  -24.9010  -11.9450 C.3       1 NDP502      0.0000 
      9 O3B        15.7620  -23.4890  -12.0280 O.3       1 NDP502      0.0000 
     10 C2B        17.2760  -25.4350  -11.6050 C.3       1 NDP502      0.0000 
     11 O2B        17.7610  -24.8810  -10.3820 O.3       1 NDP502      0.0000 
     12 C1B        16.9200  -26.8870  -11.2890 C.3       1 NDP502      0.0000 
     13 N9A        16.8530  -27.7270  -12.4820 N.pl3     1 NDP502      0.0000 
     14 C8A        15.7390  -28.3530  -12.9790 C.2       1 NDP502      0.0000 
     15 N7A        15.9740  -29.0220  -14.0790 N.2       1 NDP502      0.0000 
     16 C5A        17.3190  -28.8070  -14.3420 C.ar      1 NDP502      0.0000 
     17 C6A        18.1600  -29.2430  -15.3830 C.ar      1 NDP502      0.0000 
     18 N6A        17.7380  -30.0090  -16.3870 N.pl3     1 NDP502      0.0000 
     19 N1A        19.4530  -28.8330  -15.3630 N.ar      1 NDP502      0.0000 
     20 C2A        19.8520  -28.0590  -14.3510 C.ar      1 NDP502      0.0000 
     21 N3A        19.1530  -27.5970  -13.3160 N.ar      1 NDP502      0.0000 
     22 C4A        17.8740  -28.0050  -13.3670 C.ar      1 NDP502      0.0000 
     23 O3         10.8150  -25.8680  -12.2450 O.3       1 NDP502      0.0000 
     24 PN         10.2560  -24.3670  -12.3980 P.3       1 NDP502      0.0000 
     25 O1N         9.5720  -24.0460  -11.1040 O.co2     1 NDP502      0.0000 
     26 O2N        11.3620  -23.4900  -12.9070 O.co2     1 NDP502      0.0000 
     27 O5D         9.1380  -24.5530  -13.5510 O.3       1 NDP502      0.0000 
     28 C5D         9.2500  -23.9970  -14.8970 C.3       1 NDP502      0.0000 
     29 C4D         8.0530  -24.4490  -15.7080 C.3       1 NDP502      0.0000 
     30 O4D         8.0540  -25.8990  -15.8450 O.3       1 NDP502      0.0000 
     31 C3D         6.6770  -24.0630  -15.1380 C.3       1 NDP502      0.0000 
     32 O3D         6.0200  -23.2180  -16.0760 O.3       1 NDP502      0.0000 
     33 C2D         5.9970  -25.4190  -14.8300 C.3       1 NDP502      0.0000 
     34 O2D         4.5990  -25.4240  -15.1020 O.3       1 NDP502      0.0000 
     35 C1D         6.7420  -26.4110  -15.7270 C.3       1 NDP502      0.0000 
     36 N1N         6.7980  -27.8310  -15.2270 N.pl3     1 NDP502      0.0000 
     37 C2N         6.6100  -28.8490  -16.1330 C.2       1 NDP502      0.0000 
     38 C3N         6.7640  -30.1950  -15.8370 C.2       1 NDP502      0.0000 
     39 C7N         6.5850  -31.1510  -17.0030 C.2       1 NDP502      0.0000 
     40 O7N         5.9520  -30.7760  -17.9970 O.2       1 NDP502      0.0000 
     41 N7N         7.1210  -32.3660  -16.9600 N.am      1 NDP502      0.0000 
     42 C4N         7.0650  -30.5640  -14.3920 C.3       1 NDP502      0.0000 
     43 C5N         7.2080  -29.3930  -13.4630 C.2       1 NDP502      0.0000 
     44 C6N         7.0760  -28.1430  -13.8860 C.2       1 NDP502      0.0000 
     45 P2B        18.6710  -23.5540  -10.4960 P.3       1 NDP502      0.0000 
     46 O1X        19.1930  -23.4570   -9.0680 O.co2     1 NDP502      0.0000 
     47 O2X        19.7860  -23.7160  -11.5340 O.co2     1 NDP502      0.0000 
     48 O3X        17.7250  -22.4150  -10.8560 O.co2     1 NDP502      0.0000 
@<TRIPOS>BOND
     1    1    2 ar   
     2    1    3 ar   
     3    1    4 1    
     4    1   23 1    
     5    4    5 1    
     6    5    6 1    
     7    6    7 1    
     8    6    8 1    
     9    7   12 1    
    10    8    9 1    
    11    8   10 1    
    12   10   11 1    
    13   10   12 1    
    14   11   45 1    
    15   12   13 1    
    16   13   14 1    
    17   13   22 1    
    18   14   15 2    
    19   15   16 1    
    20   16   17 ar   
    21   16   22 ar   
    22   17   18 1    
    23   17   19 ar   
    24   19   20 ar   
    25   20   21 ar   
    26   21   22 ar   
    27   23   24 1    
    28   24   25 ar   
    29   24   26 ar   
    30   24   27 1    
    31   27   28 1    
    32   28   29 1    
    33   29   30 1    
    34   29   31 1    
    35   30   35 1    
    36   31   32 1    
    37   31   33 1    
    38   33   34 1    
    39   33   35 1    
    40   35   36 1    
    41   36   37 1    
    42   36   44 1    
    43   37   38 2    
    44   38   39 1    
    45   38   42 1    
    46   39   40 2    
    47   39   41 am   
    48   42   43 1    
    49   43   44 2    
    50   45   46 ar   
    51   45   47 ar   
    52   45   48 ar   
@<TRIPOS>SUBSTRUCTURE
     1 NDP502      1 GROUP   
@<TRIPOS>SET
ATOM$ORANGE STATIC     ATOMS   COLORGROUP SYSTEM 
42 5 5 6 6 8 8 10 10 12 12 14 14 16 16 17 17 20 \
20 22 22 28 28 29 29 31 31 33 33 35 35 37 37 38 38 39 \
39 42 42 43 43 44 44 

