#    Name: 6drj_4_APR
#    Modification time : Fri May 22 19:33:58 2020

@<TRIPOS>MOLECULE
6drj_4_APR
   36    39     1     0     0
SMALL
NO_CHARGES


@<TRIPOS>ATOM
      1 N1        173.8710  210.7060  124.2270 N.ar      1 APR2001     0.0000 
      2 C2        172.6140  211.1400  124.4420 C.ar      1 APR2001     0.0000 
      3 N3        171.6490  211.1250  123.5060 N.ar      1 APR2001     0.0000 
      4 C4        171.8970  210.6590  122.2580 C.ar      1 APR2001     0.0000 
      5 C5        173.2470  210.1660  121.9450 C.ar      1 APR2001     0.0000 
      6 C6        174.2580  210.2140  123.0290 C.ar      1 APR2001     0.0000 
      7 N6        175.5250  209.7820  122.8260 N.pl3     1 APR2001     0.0000 
      8 N7        173.2220  209.7680  120.6600 N.2       1 APR2001     0.0000 
      9 C8        171.9670  209.9850  120.1900 C.2       1 APR2001     0.0000 
     10 N9        171.1780  210.5160  121.1430 N.pl3     1 APR2001     0.0000 
     11 C1'       169.7480  210.8810  120.9790 C.3       1 APR2001     0.0000 
     12 C2'       169.5330  211.5080  119.6090 C.3       1 APR2001     0.0000 
     13 O2'       169.1050  212.8670  119.7600 O.3       1 APR2001     0.0000 
     14 C3'       168.5020  210.6380  118.9020 C.3       1 APR2001     0.0000 
     15 O3'       167.3170  211.3630  118.5450 O.3       1 APR2001     0.0000 
     16 O4'       168.9360  209.7060  121.0560 O.3       1 APR2001     0.0000 
     17 C4'       168.1470  209.5260  119.8780 C.3       1 APR2001     0.0000 
     18 C5'       168.4230  208.1530  119.2790 C.3       1 APR2001     0.0000 
     19 O5'       168.5340  207.1950  120.3280 O.3       1 APR2001     0.0000 
     20 PA        168.9420  205.6700  120.0070 P.3       1 APR2001     0.0000 
     21 O1A       168.2200  204.7740  120.9840 O.co2     1 APR2001     0.0000 
     22 O2A       168.7900  205.4440  118.5220 O.co2     1 APR2001     0.0000 
     23 O3A       170.5120  205.6450  120.3640 O.3       1 APR2001     0.0000 
     24 PB        171.6160  205.6330  119.1930 P.3       1 APR2001     0.0000 
     25 O1B       171.2800  206.7320  118.2130 O.co2     1 APR2001     0.0000 
     26 O2B       171.7720  204.2120  118.7050 O.co2     1 APR2001     0.0000 
     27 O5D       172.9620  206.0490  119.9720 O.3       1 APR2001     0.0000 
     28 C5D       173.5300  205.1840  120.9540 C.3       1 APR2001     0.0000 
     29 O4D       175.2360  205.0420  122.6590 O.3       1 APR2001     0.0000 
     30 O1D       176.9420  203.5230  122.1610 O.3       1 APR2001     0.0000 
     31 C1D       176.6410  204.8940  122.4350 C.3       1 APR2001     0.0000 
     32 O2D       178.0060  206.7150  121.6220 O.3       1 APR2001     0.0000 
     33 C2D       177.0160  205.7520  121.2360 C.3       1 APR2001     0.0000 
     34 O3D       175.7790  207.8290  120.7620 O.3       1 APR2001     0.0000 
     35 C3D       175.7230  206.3960  120.7550 C.3       1 APR2001     0.0000 
     36 C4D       174.6330  205.9190  121.7040 C.3       1 APR2001     0.0000 
@<TRIPOS>BOND
     1    1    2 ar   
     2    1    6 ar   
     3    2    3 ar   
     4    3    4 ar   
     5    4    5 ar   
     6    4   10 1    
     7    5    6 ar   
     8    5    8 1    
     9    6    7 1    
    10    8    9 2    
    11    9   10 1    
    12   10   11 1    
    13   11   12 1    
    14   11   16 1    
    15   12   13 1    
    16   12   14 1    
    17   14   15 1    
    18   14   17 1    
    19   16   17 1    
    20   17   18 1    
    21   18   19 1    
    22   19   20 1    
    23   20   21 ar   
    24   20   22 ar   
    25   20   23 1    
    26   23   24 1    
    27   24   25 ar   
    28   24   26 ar   
    29   24   27 1    
    30   27   28 1    
    31   28   36 1    
    32   29   31 1    
    33   29   36 1    
    34   30   31 1    
    35   31   33 1    
    36   32   33 1    
    37   33   35 1    
    38   34   35 1    
    39   35   36 1    
@<TRIPOS>SUBSTRUCTURE
     1 APR2001     1 GROUP   
@<TRIPOS>SET

