#    Name: 6drj_2_APR
#    Modification time : Fri May 22 19:33:41 2020

@<TRIPOS>MOLECULE
6drj_2_APR
   36    39     1     0     0
SMALL
NO_CHARGES


@<TRIPOS>ATOM
      1 N1        148.3720  111.5390  124.2190 N.ar      1 APR2001     0.0000 
      2 C2        149.6270  111.1010  124.4350 C.ar      1 APR2001     0.0000 
      3 N3        150.5930  111.1130  123.4990 N.ar      1 APR2001     0.0000 
      4 C4        150.3470  111.5810  122.2510 C.ar      1 APR2001     0.0000 
      5 C5        148.9980  112.0770  121.9380 C.ar      1 APR2001     0.0000 
      6 C6        147.9870  112.0320  123.0210 C.ar      1 APR2001     0.0000 
      7 N6        146.7210  112.4680  122.8170 N.pl3     1 APR2001     0.0000 
      8 N7        149.0250  112.4760  120.6530 N.2       1 APR2001     0.0000 
      9 C8        150.2800  112.2550  120.1840 C.2       1 APR2001     0.0000 
     10 N9        151.0670  111.7220  121.1360 N.pl3     1 APR2001     0.0000 
     11 C1'       152.4960  111.3530  120.9730 C.3       1 APR2001     0.0000 
     12 C2'       152.7100  110.7260  119.6030 C.3       1 APR2001     0.0000 
     13 O2'       153.1330  109.3650  119.7540 O.3       1 APR2001     0.0000 
     14 C3'       153.7440  111.5930  118.8970 C.3       1 APR2001     0.0000 
     15 O3'       154.9270  110.8650  118.5410 O.3       1 APR2001     0.0000 
     16 O4'       153.3110  112.5250  121.0510 O.3       1 APR2001     0.0000 
     17 C4'       154.1010  112.7040  119.8740 C.3       1 APR2001     0.0000 
     18 C5'       153.8300  114.0780  119.2750 C.3       1 APR2001     0.0000 
     19 O5'       153.7210  115.0360  120.3240 O.3       1 APR2001     0.0000 
     20 PA        153.3180  116.5610  120.0040 P.3       1 APR2001     0.0000 
     21 O1A       154.0410  117.4560  120.9820 O.co2     1 APR2001     0.0000 
     22 O2A       153.4710  116.7880  118.5190 O.co2     1 APR2001     0.0000 
     23 O3A       151.7480  116.5910  120.3600 O.3       1 APR2001     0.0000 
     24 PB        150.6440  116.6070  119.1880 P.3       1 APR2001     0.0000 
     25 O1B       150.9770  115.5080  118.2080 O.co2     1 APR2001     0.0000 
     26 O2B       150.4920  118.0280  118.7010 O.co2     1 APR2001     0.0000 
     27 O5D       149.2960  116.1950  119.9660 O.3       1 APR2001     0.0000 
     28 C5D       148.7310  117.0610  120.9480 C.3       1 APR2001     0.0000 
     29 O4D       147.0240  117.2070  122.6530 O.3       1 APR2001     0.0000 
     30 O1D       145.3220  118.7310  122.1540 O.3       1 APR2001     0.0000 
     31 C1D       145.6200  117.3590  122.4280 C.3       1 APR2001     0.0000 
     32 O2D       144.2500  115.5430  121.6130 O.3       1 APR2001     0.0000 
     33 C2D       145.2430  116.5030  121.2280 C.3       1 APR2001     0.0000 
     34 O3D       146.4740  114.4220  120.7540 O.3       1 APR2001     0.0000 
     35 C3D       146.5340  115.8550  120.7480 C.3       1 APR2001     0.0000 
     36 C4D       147.6250  116.3290  121.6970 C.3       1 APR2001     0.0000 
@<TRIPOS>BOND
     1    1    2 ar   
     2    1    6 ar   
     3    2    3 ar   
     4    3    4 ar   
     5    4    5 ar   
     6    4   10 1    
     7    5    6 ar   
     8    5    8 1    
     9    6    7 1    
    10    8    9 2    
    11    9   10 1    
    12   10   11 1    
    13   11   12 1    
    14   11   16 1    
    15   12   13 1    
    16   12   14 1    
    17   14   15 1    
    18   14   17 1    
    19   16   17 1    
    20   17   18 1    
    21   18   19 1    
    22   19   20 1    
    23   20   21 ar   
    24   20   22 ar   
    25   20   23 1    
    26   23   24 1    
    27   24   25 ar   
    28   24   26 ar   
    29   24   27 1    
    30   27   28 1    
    31   28   36 1    
    32   29   31 1    
    33   29   36 1    
    34   30   31 1    
    35   31   33 1    
    36   32   33 1    
    37   33   35 1    
    38   34   35 1    
    39   35   36 1    
@<TRIPOS>SUBSTRUCTURE
     1 APR2001     1 GROUP   
@<TRIPOS>SET

