#    Name: 6drj_3_APR
#    Modification time : Fri May 22 19:33:49 2020

@<TRIPOS>MOLECULE
6drj_3_APR
   36    39     1     0     0
SMALL
NO_CHARGES


@<TRIPOS>ATOM
      1 N1        210.7330  148.4430  124.2580 N.ar      1 APR2001     0.0000 
      2 C2        211.1670  149.7000  124.4750 C.ar      1 APR2001     0.0000 
      3 N3        211.1520  150.6650  123.5380 N.ar      1 APR2001     0.0000 
      4 C4        210.6870  150.4170  122.2900 C.ar      1 APR2001     0.0000 
      5 C5        210.1940  149.0670  121.9770 C.ar      1 APR2001     0.0000 
      6 C6        210.2420  148.0570  123.0610 C.ar      1 APR2001     0.0000 
      7 N6        209.8100  146.7890  122.8560 N.pl3     1 APR2001     0.0000 
      8 N7        209.7960  149.0920  120.6910 N.2       1 APR2001     0.0000 
      9 C8        210.0140  150.3480  120.2220 C.2       1 APR2001     0.0000 
     10 N9        210.5430  151.1370  121.1750 N.pl3     1 APR2001     0.0000 
     11 C1'       210.9090  152.5670  121.0120 C.3       1 APR2001     0.0000 
     12 C2'       211.5360  152.7820  119.6420 C.3       1 APR2001     0.0000 
     13 O2'       212.8950  153.2100  119.7940 O.3       1 APR2001     0.0000 
     14 C3'       210.6670  153.8140  118.9360 C.3       1 APR2001     0.0000 
     15 O3'       211.3910  154.9990  118.5790 O.3       1 APR2001     0.0000 
     16 O4'       209.7340  153.3780  121.0890 O.3       1 APR2001     0.0000 
     17 C4'       209.5540  154.1680  119.9110 C.3       1 APR2001     0.0000 
     18 C5'       208.1810  153.8920  119.3110 C.3       1 APR2001     0.0000 
     19 O5'       207.2220  153.7800  120.3600 O.3       1 APR2001     0.0000 
     20 PA        205.6980  153.3730  120.0380 P.3       1 APR2001     0.0000 
     21 O1A       204.8010  154.0940  121.0150 O.co2     1 APR2001     0.0000 
     22 O2A       205.4730  153.5250  118.5530 O.co2     1 APR2001     0.0000 
     23 O3A       205.6740  151.8030  120.3950 O.3       1 APR2001     0.0000 
     24 PB        205.6620  150.6980  119.2230 P.3       1 APR2001     0.0000 
     25 O1B       206.7600  151.0350  118.2440 O.co2     1 APR2001     0.0000 
     26 O2B       204.2410  150.5420  118.7350 O.co2     1 APR2001     0.0000 
     27 O5D       206.0770  149.3520  120.0020 O.3       1 APR2001     0.0000 
     28 C5D       205.2120  148.7840  120.9840 C.3       1 APR2001     0.0000 
     29 O4D       205.0700  147.0770  122.6890 O.3       1 APR2001     0.0000 
     30 O1D       203.5520  145.3710  122.1890 O.3       1 APR2001     0.0000 
     31 C1D       204.9230  145.6730  122.4640 C.3       1 APR2001     0.0000 
     32 O2D       206.7440  144.3080  121.6510 O.3       1 APR2001     0.0000 
     33 C2D       205.7810  145.2980  121.2650 C.3       1 APR2001     0.0000 
     34 O3D       207.8580  146.5350  120.7930 O.3       1 APR2001     0.0000 
     35 C3D       206.4250  146.5910  120.7840 C.3       1 APR2001     0.0000 
     36 C4D       205.9480  147.6810  121.7330 C.3       1 APR2001     0.0000 
@<TRIPOS>BOND
     1    1    2 ar   
     2    1    6 ar   
     3    2    3 ar   
     4    3    4 ar   
     5    4    5 ar   
     6    4   10 1    
     7    5    6 ar   
     8    5    8 1    
     9    6    7 1    
    10    8    9 2    
    11    9   10 1    
    12   10   11 1    
    13   11   12 1    
    14   11   16 1    
    15   12   13 1    
    16   12   14 1    
    17   14   15 1    
    18   14   17 1    
    19   16   17 1    
    20   17   18 1    
    21   18   19 1    
    22   19   20 1    
    23   20   21 ar   
    24   20   22 ar   
    25   20   23 1    
    26   23   24 1    
    27   24   25 ar   
    28   24   26 ar   
    29   24   27 1    
    30   27   28 1    
    31   28   36 1    
    32   29   31 1    
    33   29   36 1    
    34   30   31 1    
    35   31   33 1    
    36   32   33 1    
    37   33   35 1    
    38   34   35 1    
    39   35   36 1    
@<TRIPOS>SUBSTRUCTURE
     1 APR2001     1 GROUP   
@<TRIPOS>SET

