#    Name: 6drj_1_APR
#    Modification time : Fri May 22 19:33:33 2020

@<TRIPOS>MOLECULE
6drj_1_APR
   36    39     1     0     0
SMALL
NO_CHARGES


@<TRIPOS>ATOM
      1 N1        111.4070  173.6830  124.2230 N.ar      1 APR2001     0.0000 
      2 C2        110.9750  172.4260  124.4380 C.ar      1 APR2001     0.0000 
      3 N3        110.9920  171.4610  123.5010 N.ar      1 APR2001     0.0000 
      4 C4        111.4590  171.7100  122.2540 C.ar      1 APR2001     0.0000 
      5 C5        111.9500  173.0610  121.9420 C.ar      1 APR2001     0.0000 
      6 C6        111.8990  174.0710  123.0260 C.ar      1 APR2001     0.0000 
      7 N6        112.3300  175.3390  122.8230 N.pl3     1 APR2001     0.0000 
      8 N7        112.3500  173.0370  120.6570 N.2       1 APR2001     0.0000 
      9 C8        112.1350  171.7810  120.1870 C.2       1 APR2001     0.0000 
     10 N9        111.6050  170.9910  121.1390 N.pl3     1 APR2001     0.0000 
     11 C1'       111.2420  169.5610  120.9740 C.3       1 APR2001     0.0000 
     12 C2'       110.6170  169.3450  119.6040 C.3       1 APR2001     0.0000 
     13 O2'       109.2580  168.9150  119.7530 O.3       1 APR2001     0.0000 
     14 C3'       111.4890  168.3150  118.8980 C.3       1 APR2001     0.0000 
     15 O3'       110.7670  167.1290  118.5400 O.3       1 APR2001     0.0000 
     16 O4'       112.4180  168.7510  121.0530 O.3       1 APR2001     0.0000 
     17 C4'       112.6010  167.9620  119.8750 C.3       1 APR2001     0.0000 
     18 C5'       113.9740  168.2400  119.2770 C.3       1 APR2001     0.0000 
     19 O5'       114.9310  168.3530  120.3270 O.3       1 APR2001     0.0000 
     20 PA        116.4550  168.7630  120.0080 P.3       1 APR2001     0.0000 
     21 O1A       117.3520  168.0430  120.9860 O.co2     1 APR2001     0.0000 
     22 O2A       116.6830  168.6120  118.5230 O.co2     1 APR2001     0.0000 
     23 O3A       116.4770  170.3330  120.3650 O.3       1 APR2001     0.0000 
     24 PB        116.4890  171.4380  119.1940 P.3       1 APR2001     0.0000 
     25 O1B       115.3920  171.1000  118.2130 O.co2     1 APR2001     0.0000 
     26 O2B       117.9100  171.5960  118.7080 O.co2     1 APR2001     0.0000 
     27 O5D       116.0700  172.7830  119.9730 O.3       1 APR2001     0.0000 
     28 C5D       116.9330  173.3520  120.9560 C.3       1 APR2001     0.0000 
     29 O4D       117.0700  175.0580  122.6620 O.3       1 APR2001     0.0000 
     30 O1D       118.5870  176.7670  122.1650 O.3       1 APR2001     0.0000 
     31 C1D       117.2160  176.4630  122.4380 C.3       1 APR2001     0.0000 
     32 O2D       115.3940  177.8250  121.6230 O.3       1 APR2001     0.0000 
     33 C2D       116.3590  176.8370  121.2380 C.3       1 APR2001     0.0000 
     34 O3D       114.2840  175.5970  120.7620 O.3       1 APR2001     0.0000 
     35 C3D       115.7170  175.5430  120.7560 C.3       1 APR2001     0.0000 
     36 C4D       116.1950  174.4540  121.7050 C.3       1 APR2001     0.0000 
@<TRIPOS>BOND
     1    1    2 ar   
     2    1    6 ar   
     3    2    3 ar   
     4    3    4 ar   
     5    4    5 ar   
     6    4   10 1    
     7    5    6 ar   
     8    5    8 1    
     9    6    7 1    
    10    8    9 2    
    11    9   10 1    
    12   10   11 1    
    13   11   12 1    
    14   11   16 1    
    15   12   13 1    
    16   12   14 1    
    17   14   15 1    
    18   14   17 1    
    19   16   17 1    
    20   17   18 1    
    21   18   19 1    
    22   19   20 1    
    23   20   21 ar   
    24   20   22 ar   
    25   20   23 1    
    26   23   24 1    
    27   24   25 ar   
    28   24   26 ar   
    29   24   27 1    
    30   27   28 1    
    31   28   36 1    
    32   29   31 1    
    33   29   36 1    
    34   30   31 1    
    35   31   33 1    
    36   32   33 1    
    37   33   35 1    
    38   34   35 1    
    39   35   36 1    
@<TRIPOS>SUBSTRUCTURE
     1 APR2001     1 GROUP   
@<TRIPOS>SET

