#    Name: 6t5u_2_GDP
#    Modification time : Fri May 22 19:26:51 2020

@<TRIPOS>MOLECULE
6t5u_2_GDP
   28    30     1     0     1
SMALL
NO_CHARGES


@<TRIPOS>ATOM
      1 PB         12.2250    7.8120  -31.6250 P.3       1 GDP202      0.0000 
      2 O1B        12.5920    8.9410  -32.5460 O.co2     1 GDP202      0.0000 
      3 O2B        13.5110    7.6380  -30.7870 O.co2     1 GDP202      0.0000 
      4 O3B        10.9780    8.0330  -30.7390 O.co2     1 GDP202      0.0000 
      5 O3A        11.9260    6.4110  -32.3100 O.3       1 GDP202      0.0000 
      6 PA         12.1890    5.8960  -33.8920 P.3       1 GDP202      0.0000 
      7 O1A        11.1630    6.7000  -34.6990 O.co2     1 GDP202      0.0000 
      8 O2A        13.6130    6.3230  -34.1140 O.co2     1 GDP202      0.0000 
      9 O5'        11.6830    4.4300  -33.8930 O.3       1 GDP202      0.0000 
     10 C5'        12.4750    3.5110  -33.1590 C.3       1 GDP202      0.0000 
     11 C4'        12.4290    2.2130  -33.8800 C.3       1 GDP202      0.0000 
     12 O4'        11.0850    1.8440  -33.9200 O.3       1 GDP202      0.0000 
     13 C3'        12.9340    2.3320  -35.3210 C.3       1 GDP202      0.0000 
     14 O3'        13.8000    1.2440  -35.6010 O.3       1 GDP202      0.0000 
     15 C2'        11.6170    2.2920  -36.1160 C.3       1 GDP202      0.0000 
     16 O2'        11.7280    1.7770  -37.4490 O.3       1 GDP202      0.0000 
     17 C1'        10.6680    1.5070  -35.2470 C.3       1 GDP202      0.0000 
     18 N9          9.2450    1.8770  -35.4260 N.pl3     1 GDP202      0.0000 
     19 C8          8.7700    3.1350  -35.3420 C.2       1 GDP202      0.0000 
     20 N7          7.4360    3.1440  -35.5470 N.2       1 GDP202      0.0000 
     21 C5          7.0390    1.8720  -35.7720 C.2       1 GDP202      0.0000 
     22 C6          5.7560    1.1950  -36.0440 C.2       1 GDP202      0.0000 
     23 O6          4.6410    1.7780  -36.1540 O.2       1 GDP202      0.0000 
     24 N1          5.7800   -0.1360  -36.2360 N.am      1 GDP202      0.0000 
     25 C2          6.9250   -0.8530  -36.1430 C.2       1 GDP202      0.0000 
     26 N2          6.8200   -2.1790  -36.3450 N.pl3     1 GDP202      0.0000 
     27 N3          8.1450   -0.2860  -35.8890 N.2       1 GDP202      0.0000 
     28 C4          8.2600    1.0540  -35.7070 C.2       1 GDP202      0.0000 
@<TRIPOS>BOND
     1    1    2 ar   
     2    1    3 ar   
     3    1    4 ar   
     4    1    5 1    
     5    5    6 1    
     6    6    7 ar   
     7    6    8 ar   
     8    6    9 1    
     9    9   10 1    
    10   10   11 1    
    11   11   12 1    
    12   11   13 1    
    13   12   17 1    
    14   13   14 1    
    15   13   15 1    
    16   15   16 1    
    17   15   17 1    
    18   17   18 1    
    19   18   19 1    
    20   18   28 1    
    21   19   20 2    
    22   20   21 1    
    23   21   22 1    
    24   21   28 2    
    25   22   23 2    
    26   22   24 am   
    27   24   25 1    
    28   25   26 1    
    29   25   27 2    
    30   27   28 1    
@<TRIPOS>SUBSTRUCTURE
     1 GDP202      1 GROUP   
@<TRIPOS>SET
ATOM$ORANGE STATIC     ATOMS   COLORGROUP SYSTEM 
20 10 10 11 11 13 13 15 15 17 17 19 19 21 21 22 22 25 \
25 28 28 

