#    Name: 6t5u_2_GDP_CAVITY_N1_8
#    Modification time : Fri May 22 19:26:52 2020

@<TRIPOS>MOLECULE
6t5u_2_GDP_CAVITY_N1_8
   75     0     6     0     0
SMALL
NO_CHARGES


@<TRIPOS>ATOM
      1 O           5.4900    0.9300  -37.1800 O.2       1 ALA2        0.0000 
      2 N          10.9700    3.7800  -36.8000 N.am      1 ALA2        0.0000 
      3 N          12.2600    2.1000  -36.8400 N.am      1 ALA2        0.0000 
      4 O           8.0600    2.8600  -35.4000 O.2       1 ALA2        0.0000 
      5 O          13.5500    0.4200  -36.8800 O.2       1 ALA2        0.0000 
      6 O          13.0000    5.3400  -36.3700 O.2       1 ALA2        0.0000 
      7 O          12.9000    3.9100  -35.9300 O.2       1 ALA2        0.0000 
      8 O          14.1900    2.2200  -35.9700 O.2       1 ALA2        0.0000 
      9 O          12.7900    2.4800  -35.4900 O.2       1 ALA2        0.0000 
     10 O          14.0800    0.8000  -35.5300 O.2       1 ALA2        0.0000 
     11 O          12.1300    5.9700  -34.5400 O.2       1 ALA2        0.0000 
     12 N          12.4500    3.4800  -32.3100 N.am      1 ALA2        0.0000 
     13 N          12.3400    2.0500  -31.8700 N.am      1 ALA2        0.0000 
     14 OD1         9.2500   -0.2500  -35.0000 O.co2     2 ASP3        0.0000 
     15 OD1         9.9900    2.9800  -34.5300 O.co2     2 ASP3        0.0000 
     16 OD1        11.2800    1.3000  -34.5700 O.co2     2 ASP3        0.0000 
     17 OD1         9.8800    1.5500  -34.0900 O.co2     2 ASP3        0.0000 
     18 OD1        11.1800   -0.1300  -34.1300 O.co2     2 ASP3        0.0000 
     19 OD1        11.9200    3.1100  -33.6600 O.co2     2 ASP3        0.0000 
     20 OD1        10.5200    3.3600  -33.1800 O.co2     2 ASP3        0.0000 
     21 OD1        11.8100    1.6800  -33.2200 O.co2     2 ASP3        0.0000 
     22 NZ          6.6800   -2.1900  -36.7800 N.4       3 LYS4        0.0000 
     23 NZ          5.9200   -0.1300  -35.3900 N.4       3 LYS4        0.0000 
     24 NZ         13.5300    5.7100  -35.0200 N.4       3 LYS4        0.0000 
     25 NZ         13.4300    4.2800  -34.5800 N.4       3 LYS4        0.0000 
     26 NZ         13.3200    2.8500  -34.1400 N.4       3 LYS4        0.0000 
     27 NZ         13.9600    4.6600  -33.2300 N.4       3 LYS4        0.0000 
     28 NZ         13.8500    3.2300  -32.7900 N.4       3 LYS4        0.0000 
     29 NZ         14.4900    5.0400  -31.8800 N.4       3 LYS4        0.0000 
     30 CZ         10.9800   -1.5100  -38.6600 C.ar      4 PHE5        0.0000 
     31 CZ          9.5800   -1.2600  -38.1800 C.ar      4 PHE5        0.0000 
     32 CZ          8.1800   -1.0100  -37.7000 C.ar      4 PHE5        0.0000 
     33 CZ          7.5300    2.4800  -36.7500 C.ar      4 PHE5        0.0000 
     34 CZ         11.6200    0.2900  -37.7500 C.ar      4 PHE5        0.0000 
     35 CZ          8.8200    0.8000  -36.7900 C.ar      4 PHE5        0.0000 
     36 CZ          7.4200    1.0500  -36.3100 C.ar      4 PHE5        0.0000 
     37 CZ         10.1100   -0.8800  -36.8300 C.ar      4 PHE5        0.0000 
     38 CZ          8.7100   -0.6300  -36.3500 C.ar      4 PHE5        0.0000 
     39 CZ         10.8600    2.3500  -36.3600 C.ar      4 PHE5        0.0000 
     40 CZ          9.4600    2.6100  -35.8800 C.ar      4 PHE5        0.0000 
     41 CZ         10.7500    0.9200  -35.9200 C.ar      4 PHE5        0.0000 
     42 CA          8.9400   -3.0700  -39.0900 C.3       5 GLY6        0.0000 
     43 CA          6.8900    0.6700  -37.6600 C.3       5 GLY6        0.0000 
     44 CA          6.7800   -0.7600  -37.2200 C.3       5 GLY6        0.0000 
     45 CA          8.0800   -2.4400  -37.2600 C.3       5 GLY6        0.0000 
     46 CA          7.9700   -3.8700  -36.8200 C.3       5 GLY6        0.0000 
     47 CA          6.1300    2.7300  -36.2700 C.3       5 GLY6        0.0000 
     48 CA         13.0200    0.0400  -38.2300 C.3       5 GLY6        0.0000 
     49 CA          6.0200    1.3000  -35.8300 C.3       5 GLY6        0.0000 
     50 CA          7.3200   -0.3800  -35.8700 C.3       5 GLY6        0.0000 
     51 CA          7.2100   -1.8100  -35.4300 C.3       5 GLY6        0.0000 
     52 CA          7.1000   -3.2400  -34.9900 C.3       5 GLY6        0.0000 
     53 CA          9.3500    1.1800  -35.4400 C.3       5 GLY6        0.0000 
     54 CA          7.9500    1.4300  -34.9600 C.3       5 GLY6        0.0000 
     55 CA          7.8500    0.0000  -34.5200 C.3       5 GLY6        0.0000 
     56 CA          9.1400   -1.6800  -34.5600 C.3       5 GLY6        0.0000 
     57 CA          7.7400   -1.4300  -34.0800 C.3       5 GLY6        0.0000 
     58 CA         11.6000    5.5900  -35.8900 C.3       5 GLY6        0.0000 
     59 CA         11.5000    4.1600  -35.4500 C.3       5 GLY6        0.0000 
     60 CA         10.1000    4.4100  -34.9700 C.3       5 GLY6        0.0000 
     61 CA          8.5900    3.2300  -34.0500 C.3       5 GLY6        0.0000 
     62 CA         12.0300    4.5400  -34.1000 C.3       5 GLY6        0.0000 
     63 CA         10.6300    4.7900  -33.6200 C.3       5 GLY6        0.0000 
     64 CA         12.5600    4.9100  -32.7500 C.3       5 GLY6        0.0000 
     65 CA         14.3800    3.6100  -31.4300 C.3       5 GLY6        0.0000 
     66 DU         10.0100   -2.3100  -36.3900 H         6 CUB7        0.0000 
     67 DU          8.6100   -2.0600  -35.9100 H         6 CUB7        0.0000 
     68 DU         12.1500    0.6700  -36.4000 H         6 CUB7        0.0000 
     69 DU         12.0400   -0.7600  -35.9600 H         6 CUB7        0.0000 
     70 DU         10.6400   -0.5100  -35.4800 H         6 CUB7        0.0000 
     71 DU         11.3900    2.7300  -35.0100 H         6 CUB7        0.0000 
     72 DU         12.6800    1.0500  -35.0500 H         6 CUB7        0.0000 
     73 DU         12.5700   -0.3800  -34.6100 H         6 CUB7        0.0000 
     74 DU         13.2100    1.4200  -33.7000 H         6 CUB7        0.0000 
     75 DU         12.6700    6.3400  -33.1900 H         6 CUB7        0.0000 
@<TRIPOS>BOND
@<TRIPOS>SUBSTRUCTURE
     1 ALA2        1 GROUP   
     2 ASP3       14 GROUP   
     3 LYS4       22 GROUP   
     4 PHE5       30 GROUP   
     5 GLY6       42 GROUP   
     6 CUB7       66 GROUP   
@<TRIPOS>SET

