#    Name: 6dhd_4_NAI
#    Modification time : Fri May 22 19:23:56 2020

@<TRIPOS>MOLECULE
6dhd_4_NAI
   44    48     1     0     1
SMALL
NO_CHARGES


@<TRIPOS>ATOM
      1 PA         22.4800    1.1310   29.4590 P.3       1 NAI602      0.0000 
      2 O1A        20.9830    1.0000   29.4800 O.co2     1 NAI602      0.0000 
      3 O2A        23.1370    2.3350   28.8290 O.co2     1 NAI602      0.0000 
      4 O5B        23.0180   -0.2090   28.7790 O.3       1 NAI602      0.0000 
      5 C5B        22.5790   -1.4510   29.3110 C.3       1 NAI602      0.0000 
      6 C4B        23.4330   -2.4920   28.6220 C.3       1 NAI602      0.0000 
      7 O4B        23.1490   -3.8110   29.0830 O.3       1 NAI602      0.0000 
      8 C3B        23.1410   -2.4600   27.1360 C.3       1 NAI602      0.0000 
      9 O3B        24.3900   -2.6560   26.4800 O.3       1 NAI602      0.0000 
     10 C2B        22.2600   -3.6680   26.9290 C.3       1 NAI602      0.0000 
     11 O2B        22.3200   -4.1670   25.5910 O.3       1 NAI602      0.0000 
     12 C1B        22.8660   -4.6190   27.9410 C.3       1 NAI602      0.0000 
     13 N9A        21.9350   -5.6810   28.3450 N.pl3     1 NAI602      0.0000 
     14 C8A        20.6110   -5.5580   28.5280 C.2       1 NAI602      0.0000 
     15 N7A        20.0780   -6.7430   28.9130 N.2       1 NAI602      0.0000 
     16 C5A        21.0830   -7.6380   28.9780 C.ar      1 NAI602      0.0000 
     17 C6A        21.2230   -9.0690   29.3160 C.ar      1 NAI602      0.0000 
     18 N6A        20.1460   -9.8050   29.6740 N.pl3     1 NAI602      0.0000 
     19 N1A        22.4580   -9.6150   29.2560 N.ar      1 NAI602      0.0000 
     20 C2A        23.5380   -8.8960   28.9010 C.ar      1 NAI602      0.0000 
     21 N3A        23.4860   -7.5930   28.5800 N.ar      1 NAI602      0.0000 
     22 C4A        22.3070   -6.9290   28.5970 C.ar      1 NAI602      0.0000 
     23 O3         23.1390    0.9010   30.9080 O.3       1 NAI602      0.0000 
     24 PN         22.4600    1.4720   32.2380 P.3       1 NAI602      0.0000 
     25 O1N        20.9940    1.2050   32.1420 O.co2     1 NAI602      0.0000 
     26 O2N        22.9780    2.8710   32.4570 O.co2     1 NAI602      0.0000 
     27 O5D        23.0400    0.5050   33.3830 O.3       1 NAI602      0.0000 
     28 C5D        22.3680   -0.7310   33.6300 C.3       1 NAI602      0.0000 
     29 C4D        22.1450   -1.0040   35.1140 C.3       1 NAI602      0.0000 
     30 O4D        22.7790   -0.0350   35.9540 O.3       1 NAI602      0.0000 
     31 C3D        20.6640   -0.9170   35.4220 C.3       1 NAI602      0.0000 
     32 O3D        20.3640   -1.9340   36.3820 O.3       1 NAI602      0.0000 
     33 C2D        20.5110    0.4400   36.0730 C.3       1 NAI602      0.0000 
     34 O2D        19.3490    0.4840   36.9050 O.3       1 NAI602      0.0000 
     35 C1D        21.8080    0.5030   36.8590 C.3       1 NAI602      0.0000 
     36 N1N        22.2530    1.8280   37.2980 N.pl3     1 NAI602      0.0000 
     37 C2N        22.3500    2.8430   36.4350 C.2       1 NAI602      0.0000 
     38 C3N        22.7890    4.0960   36.8400 C.2       1 NAI602      0.0000 
     39 C7N        22.8610    5.1900   35.8170 C.2       1 NAI602      0.0000 
     40 O7N        23.0460    6.3440   36.1600 O.2       1 NAI602      0.0000 
     41 N7N        22.7120    4.8600   34.5370 N.am      1 NAI602      0.0000 
     42 C4N        23.2050    4.3670   38.2690 C.3       1 NAI602      0.0000 
     43 C5N        23.0570    3.1830   39.0990 C.2       1 NAI602      0.0000 
     44 C6N        22.6030    1.9760   38.5810 C.2       1 NAI602      0.0000 
@<TRIPOS>BOND
     1    1    2 ar   
     2    1    3 ar   
     3    1    4 1    
     4    1   23 1    
     5    4    5 1    
     6    5    6 1    
     7    6    7 1    
     8    6    8 1    
     9    7   12 1    
    10    8    9 1    
    11    8   10 1    
    12   10   11 1    
    13   10   12 1    
    14   12   13 1    
    15   13   14 1    
    16   13   22 1    
    17   14   15 2    
    18   15   16 1    
    19   16   17 ar   
    20   16   22 ar   
    21   17   18 1    
    22   17   19 ar   
    23   19   20 ar   
    24   20   21 ar   
    25   21   22 ar   
    26   23   24 1    
    27   24   25 ar   
    28   24   26 ar   
    29   24   27 1    
    30   27   28 1    
    31   28   29 1    
    32   29   30 1    
    33   29   31 1    
    34   30   35 1    
    35   31   32 1    
    36   31   33 1    
    37   33   34 1    
    38   33   35 1    
    39   35   36 1    
    40   36   37 1    
    41   36   44 1    
    42   37   38 2    
    43   38   39 1    
    44   38   42 1    
    45   39   40 2    
    46   39   41 am   
    47   42   43 1    
    48   43   44 2    
@<TRIPOS>SUBSTRUCTURE
     1 NAI602      1 GROUP   
@<TRIPOS>SET
ATOM$ORANGE STATIC     ATOMS   COLORGROUP SYSTEM 
42 5 5 6 6 8 8 10 10 12 12 14 14 16 16 17 17 20 \
20 22 22 28 28 29 29 31 31 33 33 35 35 37 37 38 38 39 \
39 42 42 43 43 44 44 

