#    Name: 6dhd_10_NAI
#    Modification time : Fri May 22 19:24:41 2020

@<TRIPOS>MOLECULE
6dhd_10_NAI
   44    48     1     0     1
SMALL
NO_CHARGES


@<TRIPOS>ATOM
      1 PA        -25.0180   55.6000   57.3710 P.3       1 NAI602      0.0000 
      2 O1A       -23.7200   55.2790   58.0600 O.co2     1 NAI602      0.0000 
      3 O2A       -24.9830   56.0050   55.9170 O.co2     1 NAI602      0.0000 
      4 O5B       -25.6850   56.7950   58.2200 O.3       1 NAI602      0.0000 
      5 C5B       -25.6740   56.7920   59.6470 C.3       1 NAI602      0.0000 
      6 C4B       -26.2370   58.1130   60.1510 C.3       1 NAI602      0.0000 
      7 O4B       -26.3480   58.1110   61.5780 O.3       1 NAI602      0.0000 
      8 C3B       -25.3360   59.2810   59.7830 C.3       1 NAI602      0.0000 
      9 O3B       -26.1600   60.3270   59.2670 O.3       1 NAI602      0.0000 
     10 C2B       -24.7240   59.7300   61.0930 C.3       1 NAI602      0.0000 
     11 O2B       -24.4910   61.1410   61.0940 O.3       1 NAI602      0.0000 
     12 C1B       -25.7920   59.3250   62.0930 C.3       1 NAI602      0.0000 
     13 N9A       -25.2650   59.0800   63.4550 N.pl3     1 NAI602      0.0000 
     14 C8A       -24.0140   58.7120   63.7850 C.2       1 NAI602      0.0000 
     15 N7A       -23.8930   58.5760   65.1320 N.2       1 NAI602      0.0000 
     16 C5A       -25.0880   58.8610   65.6800 C.ar      1 NAI602      0.0000 
     17 C6A       -25.6540   58.9130   67.0460 C.ar      1 NAI602      0.0000 
     18 N6A       -24.8950   58.6210   68.1300 N.pl3     1 NAI602      0.0000 
     19 N1A       -26.9540   59.2610   67.1770 N.ar      1 NAI602      0.0000 
     20 C2A       -27.7210   59.5540   66.1120 C.ar      1 NAI602      0.0000 
     21 N3A       -27.2700   59.5270   64.8460 N.ar      1 NAI602      0.0000 
     22 C4A       -25.9850   59.1990   64.5700 C.ar      1 NAI602      0.0000 
     23 O3        -26.1100   54.4280   57.5520 O.3       1 NAI602      0.0000 
     24 PN        -25.6700   52.9080   57.8420 P.3       1 NAI602      0.0000 
     25 O1N       -24.4120   52.9040   58.6530 O.co2     1 NAI602      0.0000 
     26 O2N       -25.7310   52.1040   56.5670 O.co2     1 NAI602      0.0000 
     27 O5D       -26.7660   52.3890   58.8900 O.3       1 NAI602      0.0000 
     28 C5D       -26.4240   52.5990   60.2630 C.3       1 NAI602      0.0000 
     29 C4D       -26.5850   51.3450   61.1120 C.3       1 NAI602      0.0000 
     30 O4D       -27.2780   50.3310   60.3910 O.3       1 NAI602      0.0000 
     31 C3D       -25.2400   50.7540   61.5020 C.3       1 NAI602      0.0000 
     32 O3D       -25.3580   50.2240   62.8260 O.3       1 NAI602      0.0000 
     33 C2D       -25.0570   49.6050   60.5420 C.3       1 NAI602      0.0000 
     34 O2D       -24.2140   48.5810   61.0740 O.3       1 NAI602      0.0000 
     35 C1D       -26.4930   49.1380   60.4250 C.3       1 NAI602      0.0000 
     36 N1N       -26.7600   48.3550   59.2280 N.pl3     1 NAI602      0.0000 
     37 C2N       -26.4070   48.8060   58.0210 C.2       1 NAI602      0.0000 
     38 C3N       -26.6810   48.0610   56.8820 C.2       1 NAI602      0.0000 
     39 C7N       -26.2760   48.5660   55.5320 C.2       1 NAI602      0.0000 
     40 O7N       -26.7440   48.0390   54.5380 O.2       1 NAI602      0.0000 
     41 N7N       -25.4160   49.5780   55.4470 N.am      1 NAI602      0.0000 
     42 C4N       -27.3940   46.7340   56.9700 C.3       1 NAI602      0.0000 
     43 C5N       -27.7130   46.3690   58.3410 C.2       1 NAI602      0.0000 
     44 C6N       -27.3920   47.1950   59.4050 C.2       1 NAI602      0.0000 
@<TRIPOS>BOND
     1    1    2 ar   
     2    1    3 ar   
     3    1    4 1    
     4    1   23 1    
     5    4    5 1    
     6    5    6 1    
     7    6    7 1    
     8    6    8 1    
     9    7   12 1    
    10    8    9 1    
    11    8   10 1    
    12   10   11 1    
    13   10   12 1    
    14   12   13 1    
    15   13   14 1    
    16   13   22 1    
    17   14   15 2    
    18   15   16 1    
    19   16   17 ar   
    20   16   22 ar   
    21   17   18 1    
    22   17   19 ar   
    23   19   20 ar   
    24   20   21 ar   
    25   21   22 ar   
    26   23   24 1    
    27   24   25 ar   
    28   24   26 ar   
    29   24   27 1    
    30   27   28 1    
    31   28   29 1    
    32   29   30 1    
    33   29   31 1    
    34   30   35 1    
    35   31   32 1    
    36   31   33 1    
    37   33   34 1    
    38   33   35 1    
    39   35   36 1    
    40   36   37 1    
    41   36   44 1    
    42   37   38 2    
    43   38   39 1    
    44   38   42 1    
    45   39   40 2    
    46   39   41 am   
    47   42   43 1    
    48   43   44 2    
@<TRIPOS>SUBSTRUCTURE
     1 NAI602      1 GROUP   
@<TRIPOS>SET
ATOM$ORANGE STATIC     ATOMS   COLORGROUP SYSTEM 
42 5 5 6 6 8 8 10 10 12 12 14 14 16 16 17 17 20 \
20 22 22 28 28 29 29 31 31 33 33 35 35 37 37 38 38 39 \
39 42 42 43 43 44 44 

