#    Name: 6dhd_2_NAI
#    Modification time : Fri May 22 19:23:50 2020

@<TRIPOS>MOLECULE
6dhd_2_NAI
   44    48     1     0     1
SMALL
NO_CHARGES


@<TRIPOS>ATOM
      1 PA         24.3250   16.0140   57.8350 P.3       1 NAI603      0.0000 
      2 O1A        25.1460   16.4180   59.0370 O.co2     1 NAI603      0.0000 
      3 O2A        25.0240   15.6840   56.5380 O.co2     1 NAI603      0.0000 
      4 O5B        23.4050   14.7470   58.2080 O.3       1 NAI603      0.0000 
      5 C5B        22.5790   14.7080   59.3680 C.3       1 NAI603      0.0000 
      6 C4B        21.9950   13.3040   59.4630 C.3       1 NAI603      0.0000 
      7 O4B        21.0890   13.0230   58.3840 O.3       1 NAI603      0.0000 
      8 C3B        23.1050   12.2680   59.3820 C.3       1 NAI603      0.0000 
      9 O3B        23.0550   11.4210   60.5320 O.3       1 NAI603      0.0000 
     10 C2B        22.7990   11.4500   58.1460 C.3       1 NAI603      0.0000 
     11 O2B        23.1010   10.0730   58.3750 O.3       1 NAI603      0.0000 
     12 C1B        21.3090   11.6770   57.9440 C.3       1 NAI603      0.0000 
     13 N9A        20.8740   11.4200   56.5410 N.pl3     1 NAI603      0.0000 
     14 C8A        21.5190   11.8030   55.4240 C.2       1 NAI603      0.0000 
     15 N7A        20.8600   11.3950   54.3060 N.2       1 NAI603      0.0000 
     16 C5A        19.7650   10.7230   54.7020 C.ar      1 NAI603      0.0000 
     17 C6A        18.6370   10.0270   54.0400 C.ar      1 NAI603      0.0000 
     18 N6A        18.5420    9.9640   52.6920 N.pl3     1 NAI603      0.0000 
     19 N1A        17.6990    9.4550   54.8260 N.ar      1 NAI603      0.0000 
     20 C2A        17.7820    9.5090   56.1680 C.ar      1 NAI603      0.0000 
     21 N3A        18.7760   10.1220   56.8320 N.ar      1 NAI603      0.0000 
     22 C4A        19.7860   10.7370   56.1730 C.ar      1 NAI603      0.0000 
     23 O3         23.2080   17.1440   57.5680 O.3       1 NAI603      0.0000 
     24 PN         22.2980   17.0310   56.2470 P.3       1 NAI603      0.0000 
     25 O1N        21.2510   15.9770   56.5190 O.co2     1 NAI603      0.0000 
     26 O2N        23.1930   16.9150   55.0350 O.co2     1 NAI603      0.0000 
     27 O5D        21.5670   18.4570   56.1370 O.3       1 NAI603      0.0000 
     28 C5D        21.8790   19.2620   55.0090 C.3       1 NAI603      0.0000 
     29 C4D        20.6240   19.6190   54.2330 C.3       1 NAI603      0.0000 
     30 O4D        19.8410   18.4530   53.9620 O.3       1 NAI603      0.0000 
     31 C3D        19.6780   20.5350   54.9870 C.3       1 NAI603      0.0000 
     32 O3D        20.0550   21.9030   54.9180 O.3       1 NAI603      0.0000 
     33 C2D        18.3970   20.3220   54.2340 C.3       1 NAI603      0.0000 
     34 O2D        18.3510   21.1840   53.0970 O.3       1 NAI603      0.0000 
     35 C1D        18.4890   18.8820   53.7810 C.3       1 NAI603      0.0000 
     36 N1N        17.5320   18.2320   54.6590 N.pl3     1 NAI603      0.0000 
     37 C2N        16.3040   18.1420   54.1790 C.2       1 NAI603      0.0000 
     38 C3N        15.2800   17.5780   54.8990 C.2       1 NAI603      0.0000 
     39 C7N        13.9680   17.5330   54.1960 C.2       1 NAI603      0.0000 
     40 O7N        12.9810   17.1360   54.7760 O.2       1 NAI603      0.0000 
     41 N7N        13.9400   17.9450   52.9270 N.am      1 NAI603      0.0000 
     42 C4N        15.4920   17.0450   56.2970 C.3       1 NAI603      0.0000 
     43 C5N        16.8780   17.2250   56.7190 C.2       1 NAI603      0.0000 
     44 C6N        17.8350   17.8160   55.8960 C.2       1 NAI603      0.0000 
@<TRIPOS>BOND
     1    1    2 ar   
     2    1    3 ar   
     3    1    4 1    
     4    1   23 1    
     5    4    5 1    
     6    5    6 1    
     7    6    7 1    
     8    6    8 1    
     9    7   12 1    
    10    8    9 1    
    11    8   10 1    
    12   10   11 1    
    13   10   12 1    
    14   12   13 1    
    15   13   14 1    
    16   13   22 1    
    17   14   15 2    
    18   15   16 1    
    19   16   17 ar   
    20   16   22 ar   
    21   17   18 1    
    22   17   19 ar   
    23   19   20 ar   
    24   20   21 ar   
    25   21   22 ar   
    26   23   24 1    
    27   24   25 ar   
    28   24   26 ar   
    29   24   27 1    
    30   27   28 1    
    31   28   29 1    
    32   29   30 1    
    33   29   31 1    
    34   30   35 1    
    35   31   32 1    
    36   31   33 1    
    37   33   34 1    
    38   33   35 1    
    39   35   36 1    
    40   36   37 1    
    41   36   44 1    
    42   37   38 2    
    43   38   39 1    
    44   38   42 1    
    45   39   40 2    
    46   39   41 am   
    47   42   43 1    
    48   43   44 2    
@<TRIPOS>SUBSTRUCTURE
     1 NAI603      1 GROUP   
@<TRIPOS>SET
ATOM$ORANGE STATIC     ATOMS   COLORGROUP SYSTEM 
42 5 5 6 6 8 8 10 10 12 12 14 14 16 16 17 17 20 \
20 22 22 28 28 29 29 31 31 33 33 35 35 37 37 38 38 39 \
39 42 42 43 43 44 44 

