#    Name: 6dhd_6_NAI
#    Modification time : Fri May 22 19:24:10 2020

@<TRIPOS>MOLECULE
6dhd_6_NAI
   44    48     1     0     1
SMALL
NO_CHARGES


@<TRIPOS>ATOM
      1 PA         29.8660   26.3520   32.8910 P.3       1 NAI604      0.0000 
      2 O1A        30.6740   25.0770   32.8500 O.co2     1 NAI604      0.0000 
      3 O2A        30.5030   27.6320   33.3860 O.co2     1 NAI604      0.0000 
      4 O5B        29.2690   26.6310   31.4240 O.3       1 NAI604      0.0000 
      5 C5B        28.8480   25.5530   30.5980 C.3       1 NAI604      0.0000 
      6 C4B        28.7130   26.1000   29.1900 C.3       1 NAI604      0.0000 
      7 O4B        27.6700   27.0790   29.1150 O.3       1 NAI604      0.0000 
      8 C3B        30.0040   26.7910   28.7780 C.3       1 NAI604      0.0000 
      9 O3B        30.4260   26.2840   27.5100 O.3       1 NAI604      0.0000 
     10 C2B        29.6380   28.2490   28.6210 C.3       1 NAI604      0.0000 
     11 O2B        30.3570   28.8360   27.5360 O.3       1 NAI604      0.0000 
     12 C1B        28.1510   28.1680   28.3250 C.3       1 NAI604      0.0000 
     13 N9A        27.4400   29.4430   28.5990 N.pl3     1 NAI604      0.0000 
     14 C8A        27.6800   30.3110   29.5940 C.2       1 NAI604      0.0000 
     15 N7A        26.8380   31.3770   29.5190 N.2       1 NAI604      0.0000 
     16 C5A        26.0490   31.1950   28.4490 C.ar      1 NAI604      0.0000 
     17 C6A        24.9430   31.9260   27.7900 C.ar      1 NAI604      0.0000 
     18 N6A        24.4980   33.1080   28.2730 N.pl3     1 NAI604      0.0000 
     19 N1A        24.3900   31.3750   26.6900 N.ar      1 NAI604      0.0000 
     20 C2A        24.8120   30.2000   26.1940 C.ar      1 NAI604      0.0000 
     21 N3A        25.8090   29.4850   26.7410 N.ar      1 NAI604      0.0000 
     22 C4A        26.4550   29.9230   27.8430 C.ar      1 NAI604      0.0000 
     23 O3         28.4950   26.0730   33.6910 O.3       1 NAI604      0.0000 
     24 PN         27.4360   27.2780   33.8370 P.3       1 NAI604      0.0000 
     25 O1N        26.7200   27.4370   32.5130 O.co2     1 NAI604      0.0000 
     26 O2N        28.1400   28.4570   34.4660 O.co2     1 NAI604      0.0000 
     27 O5D        26.3710   26.7830   34.9290 O.3       1 NAI604      0.0000 
     28 C5D        26.1820   27.6770   36.0190 C.3       1 NAI604      0.0000 
     29 C4D        24.7120   27.8510   36.3650 C.3       1 NAI604      0.0000 
     30 O4D        23.9430   28.1630   35.2040 O.3       1 NAI604      0.0000 
     31 C3D        24.1150   26.5900   36.9650 C.3       1 NAI604      0.0000 
     32 O3D        24.1030   26.6870   38.3870 O.3       1 NAI604      0.0000 
     33 C2D        22.7100   26.5250   36.4160 C.3       1 NAI604      0.0000 
     34 O2D        21.7670   26.8180   37.4530 O.3       1 NAI604      0.0000 
     35 C1D        22.6380   27.6200   35.3680 C.3       1 NAI604      0.0000 
     36 N1N        22.2250   27.0770   34.0850 N.pl3     1 NAI604      0.0000 
     37 C2N        20.9930   27.3400   33.6710 C.2       1 NAI604      0.0000 
     38 C3N        20.5230   26.8640   32.4660 C.2       1 NAI604      0.0000 
     39 C7N        19.1220   27.2330   32.1150 C.2       1 NAI604      0.0000 
     40 O7N        18.5070   26.5840   31.2920 O.2       1 NAI604      0.0000 
     41 N7N        18.5920   28.2820   32.7420 N.am      1 NAI604      0.0000 
     42 C4N        21.3870   26.0300   31.5510 C.3       1 NAI604      0.0000 
     43 C5N        22.7130   25.8240   32.1200 C.2       1 NAI604      0.0000 
     44 C6N        23.0770   26.3500   33.3560 C.2       1 NAI604      0.0000 
@<TRIPOS>BOND
     1    1    2 ar   
     2    1    3 ar   
     3    1    4 1    
     4    1   23 1    
     5    4    5 1    
     6    5    6 1    
     7    6    7 1    
     8    6    8 1    
     9    7   12 1    
    10    8    9 1    
    11    8   10 1    
    12   10   11 1    
    13   10   12 1    
    14   12   13 1    
    15   13   14 1    
    16   13   22 1    
    17   14   15 2    
    18   15   16 1    
    19   16   17 ar   
    20   16   22 ar   
    21   17   18 1    
    22   17   19 ar   
    23   19   20 ar   
    24   20   21 ar   
    25   21   22 ar   
    26   23   24 1    
    27   24   25 ar   
    28   24   26 ar   
    29   24   27 1    
    30   27   28 1    
    31   28   29 1    
    32   29   30 1    
    33   29   31 1    
    34   30   35 1    
    35   31   32 1    
    36   31   33 1    
    37   33   34 1    
    38   33   35 1    
    39   35   36 1    
    40   36   37 1    
    41   36   44 1    
    42   37   38 2    
    43   38   39 1    
    44   38   42 1    
    45   39   40 2    
    46   39   41 am   
    47   42   43 1    
    48   43   44 2    
@<TRIPOS>SUBSTRUCTURE
     1 NAI604      1 GROUP   
@<TRIPOS>SET
ATOM$ORANGE STATIC     ATOMS   COLORGROUP SYSTEM 
42 5 5 6 6 8 8 10 10 12 12 14 14 16 16 17 17 20 \
20 22 22 28 28 29 29 31 31 33 33 35 35 37 37 38 38 39 \
39 42 42 43 43 44 44 

