#    Name: 6dhd_12_NAI
#    Modification time : Fri May 22 19:24:51 2020

@<TRIPOS>MOLECULE
6dhd_12_NAI
   44    48     1     0     1
SMALL
NO_CHARGES


@<TRIPOS>ATOM
      1 PA        -24.3180   -0.8000   50.3190 P.3       1 NAI602      0.0000 
      2 O1A       -22.8140   -0.8390   50.2400 O.co2     1 NAI602      0.0000 
      3 O2A       -25.0060    0.2260   51.1870 O.co2     1 NAI602      0.0000 
      4 O5B       -24.7920   -2.2600   50.7750 O.3       1 NAI602      0.0000 
      5 C5B       -24.3310   -3.3850   50.0380 C.3       1 NAI602      0.0000 
      6 C4B       -25.0750   -4.5890   50.5790 C.3       1 NAI602      0.0000 
      7 O4B       -24.7060   -5.7710   49.8760 O.3       1 NAI602      0.0000 
      8 C3B       -24.7290   -4.8120   52.0400 C.3       1 NAI602      0.0000 
      9 O3B       -25.9510   -5.0840   52.7270 O.3       1 NAI602      0.0000 
     10 C2B       -23.8620   -6.0510   52.0440 C.3       1 NAI602      0.0000 
     11 O2B       -24.0260   -6.7860   53.2580 O.3       1 NAI602      0.0000 
     12 C1B       -24.4370   -6.7830   50.8450 C.3       1 NAI602      0.0000 
     13 N9A       -23.5680   -7.8020   50.2240 N.pl3     1 NAI602      0.0000 
     14 C8A       -22.2420   -7.7590   49.9930 C.2       1 NAI602      0.0000 
     15 N7A       -21.8320   -8.9030   49.3800 N.2       1 NAI602      0.0000 
     16 C5A       -22.9170   -9.6870   49.2150 C.ar      1 NAI602      0.0000 
     17 C6A       -23.2120  -11.0230   48.6440 C.ar      1 NAI602      0.0000 
     18 N6A       -22.2320  -11.7850   48.1050 N.pl3     1 NAI602      0.0000 
     19 N1A       -24.4930  -11.4570   48.6790 N.ar      1 NAI602      0.0000 
     20 C2A       -25.4840  -10.7170   49.2070 C.ar      1 NAI602      0.0000 
     21 N3A       -25.2910   -9.5010   49.7430 N.ar      1 NAI602      0.0000 
     22 C4A       -24.0540   -8.9520   49.7750 C.ar      1 NAI602      0.0000 
     23 O3        -24.9890   -0.7790   48.8520 O.3       1 NAI602      0.0000 
     24 PN        -24.3210   -0.0090   47.6080 P.3       1 NAI602      0.0000 
     25 O1N       -22.8520   -0.3410   47.5660 O.co2     1 NAI602      0.0000 
     26 O2N       -24.7810    1.4280   47.6470 O.co2     1 NAI602      0.0000 
     27 O5D       -24.9620   -0.7350   46.3240 O.3       1 NAI602      0.0000 
     28 C5D       -24.3560   -1.9520   45.8810 C.3       1 NAI602      0.0000 
     29 C4D       -23.9120   -1.9200   44.4190 C.3       1 NAI602      0.0000 
     30 O4D       -24.5500   -0.8720   43.6870 O.3       1 NAI602      0.0000 
     31 C3D       -22.4160   -1.6710   44.3100 C.3       1 NAI602      0.0000 
     32 O3D       -21.8840   -2.5580   43.3230 O.3       1 NAI602      0.0000 
     33 C2D       -22.2980   -0.2550   43.7970 C.3       1 NAI602      0.0000 
     34 O2D       -21.1180   -0.0940   43.0060 O.3       1 NAI602      0.0000 
     35 C1D       -23.5610   -0.1300   42.9650 C.3       1 NAI602      0.0000 
     36 N1N       -24.0300    1.2430   42.7950 N.pl3     1 NAI602      0.0000 
     37 C2N       -24.0170    2.0940   43.8230 C.2       1 NAI602      0.0000 
     38 C3N       -24.4770    3.3960   43.6830 C.2       1 NAI602      0.0000 
     39 C7N       -24.4330    4.3190   44.8620 C.2       1 NAI602      0.0000 
     40 O7N       -25.0410    5.3750   44.8260 O.2       1 NAI602      0.0000 
     41 N7N       -23.7310    3.9510   45.9310 N.am      1 NAI602      0.0000 
     42 C4N       -25.0210    3.9000   42.3650 C.3       1 NAI602      0.0000 
     43 C5N       -24.9790    2.8730   41.3340 C.2       1 NAI602      0.0000 
     44 C6N       -24.4970    1.5970   41.5950 C.2       1 NAI602      0.0000 
@<TRIPOS>BOND
     1    1    2 ar   
     2    1    3 ar   
     3    1    4 1    
     4    1   23 1    
     5    4    5 1    
     6    5    6 1    
     7    6    7 1    
     8    6    8 1    
     9    7   12 1    
    10    8    9 1    
    11    8   10 1    
    12   10   11 1    
    13   10   12 1    
    14   12   13 1    
    15   13   14 1    
    16   13   22 1    
    17   14   15 2    
    18   15   16 1    
    19   16   17 ar   
    20   16   22 ar   
    21   17   18 1    
    22   17   19 ar   
    23   19   20 ar   
    24   20   21 ar   
    25   21   22 ar   
    26   23   24 1    
    27   24   25 ar   
    28   24   26 ar   
    29   24   27 1    
    30   27   28 1    
    31   28   29 1    
    32   29   30 1    
    33   29   31 1    
    34   30   35 1    
    35   31   32 1    
    36   31   33 1    
    37   33   34 1    
    38   33   35 1    
    39   35   36 1    
    40   36   37 1    
    41   36   44 1    
    42   37   38 2    
    43   38   39 1    
    44   38   42 1    
    45   39   40 2    
    46   39   41 am   
    47   42   43 1    
    48   43   44 2    
@<TRIPOS>SUBSTRUCTURE
     1 NAI602      1 GROUP   
@<TRIPOS>SET
ATOM$ORANGE STATIC     ATOMS   COLORGROUP SYSTEM 
42 5 5 6 6 8 8 10 10 12 12 14 14 16 16 17 17 20 \
20 22 22 28 28 29 29 31 31 33 33 35 35 37 37 38 38 39 \
39 42 42 43 43 44 44 

