#    Name: 6dhd_8_NAI
#    Modification time : Fri May 22 19:24:17 2020

@<TRIPOS>MOLECULE
6dhd_8_NAI
   44    48     1     0     1
SMALL
NO_CHARGES


@<TRIPOS>ATOM
      1 PA         22.8470   57.8680   31.9030 P.3       1 NAI603      0.0000 
      2 O1A        21.4470   58.4140   31.7460 O.co2     1 NAI603      0.0000 
      3 O2A        23.4670   57.7690   33.2760 O.co2     1 NAI603      0.0000 
      4 O5B        23.8600   58.7140   30.9780 O.3       1 NAI603      0.0000 
      5 C5B        23.4940   59.2390   29.7080 C.3       1 NAI603      0.0000 
      6 C4B        24.1850   60.5830   29.5470 C.3       1 NAI603      0.0000 
      7 O4B        24.4540   60.8490   28.1690 O.3       1 NAI603      0.0000 
      8 C3B        23.2760   61.6930   30.0430 C.3       1 NAI603      0.0000 
      9 O3B        24.0830   62.7050   30.6450 O.3       1 NAI603      0.0000 
     10 C2B        22.6720   62.2420   28.7720 C.3       1 NAI603      0.0000 
     11 O2B        22.2630   63.6050   28.9150 O.3       1 NAI603      0.0000 
     12 C1B        23.8410   62.0920   27.8220 C.3       1 NAI603      0.0000 
     13 N9A        23.4250   62.0960   26.4040 N.pl3     1 NAI603      0.0000 
     14 C8A        22.2480   61.6950   25.8890 C.2       1 NAI603      0.0000 
     15 N7A        22.2400   61.8590   24.5400 N.2       1 NAI603      0.0000 
     16 C5A        23.4310   62.3810   24.1860 C.ar      1 NAI603      0.0000 
     17 C6A        24.0960   62.8020   22.9330 C.ar      1 NAI603      0.0000 
     18 N6A        23.4680   62.6980   21.7380 N.pl3     1 NAI603      0.0000 
     19 N1A        25.3530   63.2940   23.0180 N.ar      1 NAI603      0.0000 
     20 C2A        25.9970   63.4050   24.1940 C.ar      1 NAI603      0.0000 
     21 N3A        25.4560   63.0440   25.3680 N.ar      1 NAI603      0.0000 
     22 C4A        24.2010   62.5410   25.4240 C.ar      1 NAI603      0.0000 
     23 O3         22.8620   56.4250   31.1890 O.3       1 NAI603      0.0000 
     24 PN         24.1010   55.4020   31.2360 P.3       1 NAI603      0.0000 
     25 O1N        23.7320   54.2730   32.1680 O.co2     1 NAI603      0.0000 
     26 O2N        25.3910   56.1640   31.4410 O.co2     1 NAI603      0.0000 
     27 O5D        24.0260   54.8320   29.7280 O.3       1 NAI603      0.0000 
     28 C5D        25.0910   54.9770   28.7890 C.3       1 NAI603      0.0000 
     29 C4D        24.9830   53.9250   27.6860 C.3       1 NAI603      0.0000 
     30 O4D        25.5300   52.6890   28.1440 O.3       1 NAI603      0.0000 
     31 C3D        23.5550   53.6200   27.2720 C.3       1 NAI603      0.0000 
     32 O3D        23.5730   53.3970   25.8600 O.3       1 NAI603      0.0000 
     33 C2D        23.2100   52.3140   27.9600 C.3       1 NAI603      0.0000 
     34 O2D        22.3070   51.5620   27.1440 O.3       1 NAI603      0.0000 
     35 C1D        24.5660   51.6330   28.0640 C.3       1 NAI603      0.0000 
     36 N1N        24.8190   50.7890   29.2360 N.pl3     1 NAI603      0.0000 
     37 C2N        24.4020   51.1110   30.4690 C.2       1 NAI603      0.0000 
     38 C3N        24.6980   50.2940   31.5600 C.2       1 NAI603      0.0000 
     39 C7N        24.2130   50.6520   32.9340 C.2       1 NAI603      0.0000 
     40 O7N        24.1470   49.7810   33.7860 O.2       1 NAI603      0.0000 
     41 N7N        23.8630   51.9110   33.1940 N.am      1 NAI603      0.0000 
     42 C4N        25.5220   49.0360   31.4090 C.3       1 NAI603      0.0000 
     43 C5N        25.9160   48.8170   30.0270 C.2       1 NAI603      0.0000 
     44 C6N        25.5620   49.7000   29.0190 C.2       1 NAI603      0.0000 
@<TRIPOS>BOND
     1    1    2 ar   
     2    1    3 ar   
     3    1    4 1    
     4    1   23 1    
     5    4    5 1    
     6    5    6 1    
     7    6    7 1    
     8    6    8 1    
     9    7   12 1    
    10    8    9 1    
    11    8   10 1    
    12   10   11 1    
    13   10   12 1    
    14   12   13 1    
    15   13   14 1    
    16   13   22 1    
    17   14   15 2    
    18   15   16 1    
    19   16   17 ar   
    20   16   22 ar   
    21   17   18 1    
    22   17   19 ar   
    23   19   20 ar   
    24   20   21 ar   
    25   21   22 ar   
    26   23   24 1    
    27   24   25 ar   
    28   24   26 ar   
    29   24   27 1    
    30   27   28 1    
    31   28   29 1    
    32   29   30 1    
    33   29   31 1    
    34   30   35 1    
    35   31   32 1    
    36   31   33 1    
    37   33   34 1    
    38   33   35 1    
    39   35   36 1    
    40   36   37 1    
    41   36   44 1    
    42   37   38 2    
    43   38   39 1    
    44   38   42 1    
    45   39   40 2    
    46   39   41 am   
    47   42   43 1    
    48   43   44 2    
@<TRIPOS>SUBSTRUCTURE
     1 NAI603      1 GROUP   
@<TRIPOS>SET
ATOM$ORANGE STATIC     ATOMS   COLORGROUP SYSTEM 
42 5 5 6 6 8 8 10 10 12 12 14 14 16 16 17 17 20 \
20 22 22 28 28 29 29 31 31 33 33 35 35 37 37 38 38 39 \
39 42 42 43 43 44 44 

