#    Name: 6dhd_15_NAI
#    Modification time : Fri May 22 19:25:28 2020

@<TRIPOS>MOLECULE
6dhd_15_NAI
   44    48     1     0     1
SMALL
NO_CHARGES


@<TRIPOS>ATOM
      1 PA        -25.6640   18.9050   24.9510 P.3       1 NAI602      0.0000 
      2 O1A       -26.8440   19.6760   24.4100 O.co2     1 NAI602      0.0000 
      3 O2A       -25.8850   17.7200   25.8620 O.co2     1 NAI602      0.0000 
      4 O5B       -24.7100   18.4120   23.7540 O.3       1 NAI602      0.0000 
      5 C5B       -25.1330   17.2640   23.0370 C.3       1 NAI602      0.0000 
      6 C4B       -24.0450   16.2340   22.7610 C.3       1 NAI602      0.0000 
      7 O4B       -23.1470   15.9640   23.8620 O.3       1 NAI602      0.0000 
      8 C3B       -24.8040   14.9450   22.5150 C.3       1 NAI602      0.0000 
      9 O3B       -24.1120   14.1690   21.5370 O.3       1 NAI602      0.0000 
     10 C2B       -24.6680   14.2810   23.8600 C.3       1 NAI602      0.0000 
     11 O2B       -25.0400   12.9020   23.8670 O.3       1 NAI602      0.0000 
     12 C1B       -23.1930   14.5440   24.0860 C.3       1 NAI602      0.0000 
     13 N9A       -22.7570   14.0150   25.4090 N.pl3     1 NAI602      0.0000 
     14 C8A       -23.4430   14.1350   26.5580 C.2       1 NAI602      0.0000 
     15 N7A       -22.8000   13.5190   27.5870 N.2       1 NAI602      0.0000 
     16 C5A       -21.6780   12.9700   27.0930 C.ar      1 NAI602      0.0000 
     17 C6A       -20.5500   12.1730   27.6420 C.ar      1 NAI602      0.0000 
     18 N6A       -20.5050   11.8470   28.9580 N.pl3     1 NAI602      0.0000 
     19 N1A       -19.5710   11.7910   26.7900 N.ar      1 NAI602      0.0000 
     20 C2A       -19.6160   12.1180   25.4830 C.ar      1 NAI602      0.0000 
     21 N3A       -20.6070   12.8340   24.9170 N.ar      1 NAI602      0.0000 
     22 C4A       -21.6560   13.2830   25.6510 C.ar      1 NAI602      0.0000 
     23 O3        -24.6870   19.9250   25.6940 O.3       1 NAI602      0.0000 
     24 PN        -23.9400   19.3320   26.9770 P.3       1 NAI602      0.0000 
     25 O1N       -23.0770   18.1920   26.4860 O.co2     1 NAI602      0.0000 
     26 O2N       -24.9550   19.1090   28.0740 O.co2     1 NAI602      0.0000 
     27 O5D       -23.0160   20.5710   27.3920 O.3       1 NAI602      0.0000 
     28 C5D       -23.4900   21.4460   28.4010 C.3       1 NAI602      0.0000 
     29 C4D       -22.2950   21.8900   29.2100 C.3       1 NAI602      0.0000 
     30 O4D       -21.4830   20.7440   29.4700 O.3       1 NAI602      0.0000 
     31 C3D       -21.3850   22.8090   28.4210 C.3       1 NAI602      0.0000 
     32 O3D       -21.7430   24.1680   28.5140 O.3       1 NAI602      0.0000 
     33 C2D       -20.0760   22.6100   29.1220 C.3       1 NAI602      0.0000 
     34 O2D       -20.0440   23.3930   30.3150 O.3       1 NAI602      0.0000 
     35 C1D       -20.1140   21.1490   29.4960 C.3       1 NAI602      0.0000 
     36 N1N       -19.2960   20.5070   28.4760 N.pl3     1 NAI602      0.0000 
     37 C2N       -18.0610   20.1950   28.8350 C.2       1 NAI602      0.0000 
     38 C3N       -17.1760   19.6060   27.9590 C.2       1 NAI602      0.0000 
     39 C7N       -15.8290   19.2890   28.5100 C.2       1 NAI602      0.0000 
     40 O7N       -14.9030   19.0560   27.7600 O.2       1 NAI602      0.0000 
     41 N7N       -15.6960   19.2800   29.8380 N.am      1 NAI602      0.0000 
     42 C4N       -17.5550   19.3000   26.5310 C.3       1 NAI602      0.0000 
     43 C5N       -18.9290   19.6970   26.2550 C.2       1 NAI602      0.0000 
     44 C6N       -19.7310   20.2860   27.2260 C.2       1 NAI602      0.0000 
@<TRIPOS>BOND
     1    1    2 ar   
     2    1    3 ar   
     3    1    4 1    
     4    1   23 1    
     5    4    5 1    
     6    5    6 1    
     7    6    7 1    
     8    6    8 1    
     9    7   12 1    
    10    8    9 1    
    11    8   10 1    
    12   10   11 1    
    13   10   12 1    
    14   12   13 1    
    15   13   14 1    
    16   13   22 1    
    17   14   15 2    
    18   15   16 1    
    19   16   17 ar   
    20   16   22 ar   
    21   17   18 1    
    22   17   19 ar   
    23   19   20 ar   
    24   20   21 ar   
    25   21   22 ar   
    26   23   24 1    
    27   24   25 ar   
    28   24   26 ar   
    29   24   27 1    
    30   27   28 1    
    31   28   29 1    
    32   29   30 1    
    33   29   31 1    
    34   30   35 1    
    35   31   32 1    
    36   31   33 1    
    37   33   34 1    
    38   33   35 1    
    39   35   36 1    
    40   36   37 1    
    41   36   44 1    
    42   37   38 2    
    43   38   39 1    
    44   38   42 1    
    45   39   40 2    
    46   39   41 am   
    47   42   43 1    
    48   43   44 2    
@<TRIPOS>SUBSTRUCTURE
     1 NAI602      1 GROUP   
@<TRIPOS>SET
ATOM$ORANGE STATIC     ATOMS   COLORGROUP SYSTEM 
42 5 5 6 6 8 8 10 10 12 12 14 14 16 16 17 17 20 \
20 22 22 28 28 29 29 31 31 33 33 35 35 37 37 38 38 39 \
39 42 42 43 43 44 44 

