#    Name: 6dhd_13_NAI
#    Modification time : Fri May 22 19:25:09 2020

@<TRIPOS>MOLECULE
6dhd_13_NAI
   44    48     1     0     1
SMALL
NO_CHARGES


@<TRIPOS>ATOM
      1 PA        -31.8130   24.7330   51.5810 P.3       1 NAI603      0.0000 
      2 O1A       -32.8560   23.6560   51.4070 O.co2     1 NAI603      0.0000 
      3 O2A       -32.2160   26.1850   51.4630 O.co2     1 NAI603      0.0000 
      4 O5B       -31.1460   24.5440   53.0270 O.3       1 NAI603      0.0000 
      5 C5B       -31.3370   23.3430   53.7580 C.3       1 NAI603      0.0000 
      6 C4B       -30.8330   23.6290   55.1560 C.3       1 NAI603      0.0000 
      7 O4B       -29.7630   24.5890   55.1070 O.3       1 NAI603      0.0000 
      8 C3B       -31.9550   24.2580   55.9670 C.3       1 NAI603      0.0000 
      9 O3B       -31.9830   23.6710   57.2700 O.3       1 NAI603      0.0000 
     10 C2B       -31.5360   25.7020   56.0940 C.3       1 NAI603      0.0000 
     11 O2B       -32.0500   26.3030   57.2810 O.3       1 NAI603      0.0000 
     12 C1B       -30.0310   25.5450   56.1370 C.3       1 NAI603      0.0000 
     13 N9A       -29.3420   26.8640   56.0670 N.pl3     1 NAI603      0.0000 
     14 C8A       -29.6150   27.8850   55.2350 C.2       1 NAI603      0.0000 
     15 N7A       -28.8000   28.9460   55.4910 N.2       1 NAI603      0.0000 
     16 C5A       -27.9980   28.6080   56.5210 C.ar      1 NAI603      0.0000 
     17 C6A       -26.9090   29.2570   57.2990 C.ar      1 NAI603      0.0000 
     18 N6A       -26.5020   30.5190   57.0140 N.pl3     1 NAI603      0.0000 
     19 N1A       -26.3340   28.5460   58.2970 N.ar      1 NAI603      0.0000 
     20 C2A       -26.7330   27.2900   58.5860 C.ar      1 NAI603      0.0000 
     21 N3A       -27.7110   26.6420   57.9290 N.ar      1 NAI603      0.0000 
     22 C4A       -28.3730   27.2390   56.9050 C.ar      1 NAI603      0.0000 
     23 O3        -30.5300   24.4440   50.6440 O.3       1 NAI603      0.0000 
     24 PN        -29.4920   25.6660   50.4970 P.3       1 NAI603      0.0000 
     25 O1N       -28.7460   25.7980   51.8050 O.co2     1 NAI603      0.0000 
     26 O2N       -30.2370   26.8500   49.9360 O.co2     1 NAI603      0.0000 
     27 O5D       -28.4110   25.3620   49.3570 O.3       1 NAI603      0.0000 
     28 C5D       -28.1290   26.5510   48.6260 C.3       1 NAI603      0.0000 
     29 C4D       -26.6690   26.7250   48.2520 C.3       1 NAI603      0.0000 
     30 O4D       -25.8390   26.8490   49.4030 O.3       1 NAI603      0.0000 
     31 C3D       -26.1520   25.5500   47.4410 C.3       1 NAI603      0.0000 
     32 O3D       -26.1890   25.8760   46.0530 O.3       1 NAI603      0.0000 
     33 C2D       -24.7290   25.3590   47.9020 C.3       1 NAI603      0.0000 
     34 O2D       -23.8300   25.7740   46.8720 O.3       1 NAI603      0.0000 
     35 C1D       -24.5690   26.2950   49.0840 C.3       1 NAI603      0.0000 
     36 N1N       -24.1050   25.5550   50.2410 N.pl3     1 NAI603      0.0000 
     37 C2N       -22.9090   25.8710   50.6960 C.2       1 NAI603      0.0000 
     38 C3N       -22.3640   25.2380   51.7860 C.2       1 NAI603      0.0000 
     39 C7N       -21.0080   25.7190   52.1650 C.2       1 NAI603      0.0000 
     40 O7N       -20.3190   25.0720   52.9290 O.2       1 NAI603      0.0000 
     41 N7N       -20.6110   26.8710   51.6270 N.am      1 NAI603      0.0000 
     42 C4N       -23.1090   24.1590   52.5360 C.3       1 NAI603      0.0000 
     43 C5N       -24.4160   23.9190   51.9340 C.2       1 NAI603      0.0000 
     44 C6N       -24.8630   24.6170   50.8160 C.2       1 NAI603      0.0000 
@<TRIPOS>BOND
     1    1    2 ar   
     2    1    3 ar   
     3    1    4 1    
     4    1   23 1    
     5    4    5 1    
     6    5    6 1    
     7    6    7 1    
     8    6    8 1    
     9    7   12 1    
    10    8    9 1    
    11    8   10 1    
    12   10   11 1    
    13   10   12 1    
    14   12   13 1    
    15   13   14 1    
    16   13   22 1    
    17   14   15 2    
    18   15   16 1    
    19   16   17 ar   
    20   16   22 ar   
    21   17   18 1    
    22   17   19 ar   
    23   19   20 ar   
    24   20   21 ar   
    25   21   22 ar   
    26   23   24 1    
    27   24   25 ar   
    28   24   26 ar   
    29   24   27 1    
    30   27   28 1    
    31   28   29 1    
    32   29   30 1    
    33   29   31 1    
    34   30   35 1    
    35   31   32 1    
    36   31   33 1    
    37   33   34 1    
    38   33   35 1    
    39   35   36 1    
    40   36   37 1    
    41   36   44 1    
    42   37   38 2    
    43   38   39 1    
    44   38   42 1    
    45   39   40 2    
    46   39   41 am   
    47   42   43 1    
    48   43   44 2    
@<TRIPOS>SUBSTRUCTURE
     1 NAI603      1 GROUP   
@<TRIPOS>SET
ATOM$ORANGE STATIC     ATOMS   COLORGROUP SYSTEM 
42 5 5 6 6 8 8 10 10 12 12 14 14 16 16 17 17 20 \
20 22 22 28 28 29 29 31 31 33 33 35 35 37 37 38 38 39 \
39 42 42 43 43 44 44 

