#    Name: 6dhd_1_NAI
#    Modification time : Fri May 22 19:23:38 2020

@<TRIPOS>MOLECULE
6dhd_1_NAI
   44    48     1     0     1
SMALL
NO_CHARGES


@<TRIPOS>ATOM
      1 PA         12.1400   27.6730   78.9470 P.3       1 NAI602      0.0000 
      2 O1A        10.8130   28.3320   78.6920 O.co2     1 NAI602      0.0000 
      3 O2A        12.3380   26.2400   78.5130 O.co2     1 NAI602      0.0000 
      4 O5B        12.3470   27.7350   80.5320 O.3       1 NAI602      0.0000 
      5 C5B        11.8130   28.8290   81.2620 C.3       1 NAI602      0.0000 
      6 C4B        12.1660   28.5910   82.7170 C.3       1 NAI602      0.0000 
      7 O4B        11.7710   29.7150   83.4940 O.3       1 NAI602      0.0000 
      8 C3B        11.4300   27.3750   83.2480 C.3       1 NAI602      0.0000 
      9 O3B        12.3580   26.6370   84.0450 O.3       1 NAI602      0.0000 
     10 C2B        10.3230   27.9500   84.1070 C.3       1 NAI602      0.0000 
     11 O2B        10.0010   27.0840   85.1980 O.3       1 NAI602      0.0000 
     12 C1B        10.9670   29.2400   84.5770 C.3       1 NAI602      0.0000 
     13 N9A        10.0300   30.3100   84.9760 N.pl3     1 NAI602      0.0000 
     14 C8A         8.9090   30.7400   84.3690 C.2       1 NAI602      0.0000 
     15 N7A         8.3640   31.7750   85.0670 N.2       1 NAI602      0.0000 
     16 C5A         9.1560   32.0110   86.1340 C.ar      1 NAI602      0.0000 
     17 C6A         9.1920   32.9410   87.2850 C.ar      1 NAI602      0.0000 
     18 N6A         8.2340   33.8810   87.4610 N.pl3     1 NAI602      0.0000 
     19 N1A        10.2160   32.8250   88.1600 N.ar      1 NAI602      0.0000 
     20 C2A        11.1840   31.9020   88.0150 C.ar      1 NAI602      0.0000 
     21 N3A        11.2150   31.0270   87.0000 N.ar      1 NAI602      0.0000 
     22 C4A        10.2460   31.0360   86.0590 C.ar      1 NAI602      0.0000 
     23 O3         13.3930   28.5890   78.4710 O.3       1 NAI602      0.0000 
     24 PN         13.2100   29.8060   77.4210 P.3       1 NAI602      0.0000 
     25 O1N        11.7920   30.3000   77.4700 O.co2     1 NAI602      0.0000 
     26 O2N        13.7990   29.3930   76.0970 O.co2     1 NAI602      0.0000 
     27 O5D        14.0220   31.0650   78.0040 O.3       1 NAI602      0.0000 
     28 C5D        13.2240   32.0260   78.7150 C.3       1 NAI602      0.0000 
     29 C4D        13.2510   33.4780   78.2200 C.3       1 NAI602      0.0000 
     30 O4D        14.2380   33.7150   77.2190 O.3       1 NAI602      0.0000 
     31 C3D        11.9300   33.8920   77.5910 C.3       1 NAI602      0.0000 
     32 O3D        11.6730   35.2460   77.9730 O.3       1 NAI602      0.0000 
     33 C2D        12.1890   33.8780   76.1020 C.3       1 NAI602      0.0000 
     34 O2D        11.3180   34.7890   75.4260 O.3       1 NAI602      0.0000 
     35 C1D        13.6330   34.3430   76.0830 C.3       1 NAI602      0.0000 
     36 N1N        14.4270   33.9480   74.9250 N.pl3     1 NAI602      0.0000 
     37 C2N        14.4330   32.6860   74.4820 C.2       1 NAI602      0.0000 
     38 C3N        15.2190   32.3200   73.3920 C.2       1 NAI602      0.0000 
     39 C7N        15.2010   30.9050   72.8970 C.2       1 NAI602      0.0000 
     40 O7N        15.9110   30.6020   71.9510 O.2       1 NAI602      0.0000 
     41 N7N        14.4160   30.0150   73.4990 N.am      1 NAI602      0.0000 
     42 C4N        16.1100   33.3190   72.6920 C.3       1 NAI602      0.0000 
     43 C5N        16.0130   34.6430   73.2820 C.2       1 NAI602      0.0000 
     44 C6N        15.1920   34.8920   74.3710 C.2       1 NAI602      0.0000 
@<TRIPOS>BOND
     1    1    2 ar   
     2    1    3 ar   
     3    1    4 1    
     4    1   23 1    
     5    4    5 1    
     6    5    6 1    
     7    6    7 1    
     8    6    8 1    
     9    7   12 1    
    10    8    9 1    
    11    8   10 1    
    12   10   11 1    
    13   10   12 1    
    14   12   13 1    
    15   13   14 1    
    16   13   22 1    
    17   14   15 2    
    18   15   16 1    
    19   16   17 ar   
    20   16   22 ar   
    21   17   18 1    
    22   17   19 ar   
    23   19   20 ar   
    24   20   21 ar   
    25   21   22 ar   
    26   23   24 1    
    27   24   25 ar   
    28   24   26 ar   
    29   24   27 1    
    30   27   28 1    
    31   28   29 1    
    32   29   30 1    
    33   29   31 1    
    34   30   35 1    
    35   31   32 1    
    36   31   33 1    
    37   33   34 1    
    38   33   35 1    
    39   35   36 1    
    40   36   37 1    
    41   36   44 1    
    42   37   38 2    
    43   38   39 1    
    44   38   42 1    
    45   39   40 2    
    46   39   41 am   
    47   42   43 1    
    48   43   44 2    
@<TRIPOS>SUBSTRUCTURE
     1 NAI602      1 GROUP   
@<TRIPOS>SET
ATOM$ORANGE STATIC     ATOMS   COLORGROUP SYSTEM 
42 5 5 6 6 8 8 10 10 12 12 14 14 16 16 17 17 20 \
20 22 22 28 28 29 29 31 31 33 33 35 35 37 37 38 38 39 \
39 42 42 43 43 44 44 

