#    Name: 6dhd_9_NAI
#    Modification time : Fri May 22 19:24:33 2020

@<TRIPOS>MOLECULE
6dhd_9_NAI
   44    48     1     0     1
SMALL
NO_CHARGES


@<TRIPOS>ATOM
      1 PA         25.2820   43.6310   54.4030 P.3       1 NAI604      0.0000 
      2 O1A        26.3740   44.4730   53.7870 O.co2     1 NAI604      0.0000 
      3 O2A        25.5920   42.7170   55.5670 O.co2     1 NAI604      0.0000 
      4 O5B        24.0910   44.6050   54.8570 O.3       1 NAI604      0.0000 
      5 C5B        23.9450   45.8960   54.2850 C.3       1 NAI604      0.0000 
      6 C4B        23.4180   46.7610   55.4080 C.3       1 NAI604      0.0000 
      7 O4B        22.1760   46.2410   55.8870 O.3       1 NAI604      0.0000 
      8 C3B        24.3930   46.7000   56.5720 C.3       1 NAI604      0.0000 
      9 O3B        25.0000   47.9760   56.7780 O.3       1 NAI604      0.0000 
     10 C2B        23.5700   46.3310   57.7860 C.3       1 NAI604      0.0000 
     11 O2B        23.8000   47.2930   58.8150 O.3       1 NAI604      0.0000 
     12 C1B        22.1320   46.4070   57.3040 C.3       1 NAI604      0.0000 
     13 N9A        21.2930   45.3820   57.9770 N.pl3     1 NAI604      0.0000 
     14 C8A        21.6450   44.1140   58.2590 C.2       1 NAI604      0.0000 
     15 N7A        20.6400   43.4570   58.8960 N.2       1 NAI604      0.0000 
     16 C5A        19.6220   44.3240   59.0400 C.ar      1 NAI604      0.0000 
     17 C6A        18.2630   44.2910   59.6260 C.ar      1 NAI604      0.0000 
     18 N6A        17.7770   43.1650   60.2000 N.pl3     1 NAI604      0.0000 
     19 N1A        17.5220   45.4180   59.5650 N.ar      1 NAI604      0.0000 
     20 C2A        17.9900   46.5430   58.9940 C.ar      1 NAI604      0.0000 
     21 N3A        19.2130   46.6450   58.4440 N.ar      1 NAI604      0.0000 
     22 C4A        20.0620   45.5910   58.4400 C.ar      1 NAI604      0.0000 
     23 O3         24.5150   42.8110   53.2470 O.3       1 NAI604      0.0000 
     24 PN         23.2130   41.9650   53.6850 P.3       1 NAI604      0.0000 
     25 O1N        22.1220   42.9490   54.0420 O.co2     1 NAI604      0.0000 
     26 O2N        23.6570   40.9300   54.6910 O.co2     1 NAI604      0.0000 
     27 O5D        22.7400   41.1760   52.3620 O.3       1 NAI604      0.0000 
     28 C5D        22.5680   39.7610   52.4460 C.3       1 NAI604      0.0000 
     29 C4D        21.1890   39.2920   51.9850 C.3       1 NAI604      0.0000 
     30 O4D        20.1580   39.9610   52.7150 O.3       1 NAI604      0.0000 
     31 C3D        20.8950   39.5160   50.5010 C.3       1 NAI604      0.0000 
     32 O3D        21.1390   38.3260   49.7590 O.3       1 NAI604      0.0000 
     33 C2D        19.4290   39.9520   50.4390 C.3       1 NAI604      0.0000 
     34 O2D        18.4380   39.2280   49.6330 O.3       1 NAI604      0.0000 
     35 C1D        19.0040   40.0230   51.8910 C.3       1 NAI604      0.0000 
     36 N1N        18.4540   41.3460   51.8980 N.pl3     1 NAI604      0.0000 
     37 C2N        17.1430   41.4090   51.8700 C.2       1 NAI604      0.0000 
     38 C3N        16.4920   42.6100   51.8360 C.2       1 NAI604      0.0000 
     39 C7N        15.0120   42.4860   51.8380 C.2       1 NAI604      0.0000 
     40 O7N        14.3150   43.4080   51.4680 O.2       1 NAI604      0.0000 
     41 N7N        14.5150   41.3180   52.2470 N.am      1 NAI604      0.0000 
     42 C4N        17.2440   43.9220   51.8050 C.3       1 NAI604      0.0000 
     43 C5N        18.6880   43.7030   51.8180 C.2       1 NAI604      0.0000 
     44 C6N        19.2370   42.4260   51.8530 C.2       1 NAI604      0.0000 
@<TRIPOS>BOND
     1    1    2 ar   
     2    1    3 ar   
     3    1    4 1    
     4    1   23 1    
     5    4    5 1    
     6    5    6 1    
     7    6    7 1    
     8    6    8 1    
     9    7   12 1    
    10    8    9 1    
    11    8   10 1    
    12   10   11 1    
    13   10   12 1    
    14   12   13 1    
    15   13   14 1    
    16   13   22 1    
    17   14   15 2    
    18   15   16 1    
    19   16   17 ar   
    20   16   22 ar   
    21   17   18 1    
    22   17   19 ar   
    23   19   20 ar   
    24   20   21 ar   
    25   21   22 ar   
    26   23   24 1    
    27   24   25 ar   
    28   24   26 ar   
    29   24   27 1    
    30   27   28 1    
    31   28   29 1    
    32   29   30 1    
    33   29   31 1    
    34   30   35 1    
    35   31   32 1    
    36   31   33 1    
    37   33   34 1    
    38   33   35 1    
    39   35   36 1    
    40   36   37 1    
    41   36   44 1    
    42   37   38 2    
    43   38   39 1    
    44   38   42 1    
    45   39   40 2    
    46   39   41 am   
    47   42   43 1    
    48   43   44 2    
@<TRIPOS>SUBSTRUCTURE
     1 NAI604      1 GROUP   
@<TRIPOS>SET
ATOM$ORANGE STATIC     ATOMS   COLORGROUP SYSTEM 
42 5 5 6 6 8 8 10 10 12 12 14 14 16 16 17 17 20 \
20 22 22 28 28 29 29 31 31 33 33 35 35 37 37 38 38 39 \
39 42 42 43 43 44 44 

