#    Name: 6f2l_1_AXY
#    Modification time : Fri May 22 19:30:40 2020

@<TRIPOS>MOLECULE
6f2l_1_AXY
   30    33     1     0     0
SMALL
NO_CHARGES


@<TRIPOS>ATOM
      1 CAK        15.9590   16.7010   11.8590           1 AXY501      0.0000 
      2 CAE        15.6970   16.8910   10.5170           1 AXY501      0.0000 
      3 CAC        16.7470   17.1940    9.6680           1 AXY501      0.0000 
      4 CAF        18.0490   17.3090   10.1380           1 AXY501      0.0000 
      5 CAL        18.3110   17.1190   11.4790           1 AXY501      0.0000 
      6 CAZ        17.2640   16.8020   12.3310           1 AXY501      0.0000 
      7 CBB        17.5540   16.6180   13.8170           1 AXY501      0.0000 
      8 CAR        18.7990   16.1740   14.2520           1 AXY501      0.0000 
      9 CAJ        19.0410   16.0430   15.6110           1 AXY501      0.0000 
     10 CAQ        16.5580   16.9500   14.7300           1 AXY501      0.0000 
     11 CAI        16.8050   16.8130   16.0850           1 AXY501      0.0000 
     12 CAX        18.0400   16.3560   16.5230           1 AXY501      0.0000 
     13 CAU        18.3040   16.2320   18.0200           1 AXY501      0.0000 
     14 CBD        18.8030   17.6060   18.4900           1 AXY501      0.0000 
     15 CAW        18.8250   17.7450   20.0160           1 AXY501      0.0000 
     16 OAB        17.7930   18.1510   20.5980           1 AXY501      0.0000 
     17 OAA        19.8800   17.4970   20.6680           1 AXY501      0.0000 
     18 OAV        20.1110   17.7690   18.0420           1 AXY501      0.0000 
     19 CAY        20.5960   19.0740   18.0140           1 AXY501      0.0000 
     20 CAP        19.8360   20.1550   18.4430           1 AXY501      0.0000 
     21 CAT        20.3680   21.4280   18.3790           1 AXY501      0.0000 
     22 CAO        21.8720   19.2580   17.5150           1 AXY501      0.0000 
     23 CAS        22.4030   20.5290   17.4460           1 AXY501      0.0000 
     24 CBC        21.6510   21.6020   17.8830           1 AXY501      0.0000 
     25 CBA        22.2320   23.0030   17.7770           1 AXY501      0.0000 
     26 CAM        21.4100   24.0840   18.0520           1 AXY501      0.0000 
     27 CAG        21.8980   25.3750   17.9480           1 AXY501      0.0000 
     28 CAD        23.2090   25.5700   17.5490           1 AXY501      0.0000 
     29 CAH        24.0310   24.4900   17.2610           1 AXY501      0.0000 
     30 CAN        23.5420   23.1960   17.3640           1 AXY501      0.0000 
@<TRIPOS>BOND
     1    1    2 du   
     2    1    6 du   
     3    2    3 du   
     4    3    4 du   
     5    4    5 du   
     6    5    6 du   
     7    6    7 du   
     8    7    8 du   
     9    7   10 du   
    10    8    9 du   
    11    9   12 du   
    12   10   11 du   
    13   11   12 du   
    14   12   13 du   
    15   13   14 du   
    16   14   15 du   
    17   14   18 du   
    18   15   16 du   
    19   15   17 du   
    20   18   19 du   
    21   19   20 du   
    22   19   22 du   
    23   20   21 du   
    24   21   24 du   
    25   22   23 du   
    26   23   24 du   
    27   24   25 du   
    28   25   26 du   
    29   25   30 du   
    30   26   27 du   
    31   27   28 du   
    32   28   29 du   
    33   29   30 du   
@<TRIPOS>SUBSTRUCTURE
     1 AXY501      1 GROUP   
@<TRIPOS>SET

