#    Name: 5y8o_2_NAD
#    Modification time : Fri May 22 19:13:08 2020

@<TRIPOS>MOLECULE
5y8o_2_NAD
   44    48     1     0     1
SMALL
NO_CHARGES


@<TRIPOS>ATOM
      1 PA         56.3540  -72.7640    6.6610 P.3       1 NAD301      0.0000 
      2 O1A        56.8670  -72.4300    5.2610 O.co2     1 NAD301      0.0000 
      3 O2A        56.8010  -72.0530    7.9450 O.co2     1 NAD301      0.0000 
      4 O5B        56.5910  -74.3360    6.8870 O.3       1 NAD301      0.0000 
      5 C5B        56.5150  -75.2380    5.7980 C.3       1 NAD301      0.0000 
      6 C4B        57.2520  -76.4510    6.2810 C.3       1 NAD301      0.0000 
      7 O4B        57.0800  -77.4950    5.3400 O.3       1 NAD301      0.0000 
      8 C3B        58.7310  -76.1530    6.3860 C.3       1 NAD301      0.0000 
      9 O3B        59.1550  -76.3910    7.7260 O.3       1 NAD301      0.0000 
     10 C2B        59.3730  -77.0920    5.3740 C.3       1 NAD301      0.0000 
     11 O2B        60.7050  -77.4830    5.7810 O.3       1 NAD301      0.0000 
     12 C1B        58.3160  -78.2010    5.2880 C.3       1 NAD301      0.0000 
     13 N9A        58.3650  -79.1320    4.1240 N.pl3     1 NAD301      0.0000 
     14 C8A        58.7480  -78.8570    2.8480 C.2       1 NAD301      0.0000 
     15 N7A        58.6740  -80.0110    2.0850 N.2       1 NAD301      0.0000 
     16 C5A        58.2450  -81.0430    2.8590 C.ar      1 NAD301      0.0000 
     17 C6A        57.9180  -82.4950    2.6990 C.ar      1 NAD301      0.0000 
     18 N6A        58.0500  -83.1170    1.5210 N.pl3     1 NAD301      0.0000 
     19 N1A        57.4770  -83.2100    3.7620 N.ar      1 NAD301      0.0000 
     20 C2A        57.3210  -82.6280    4.9790 C.ar      1 NAD301      0.0000 
     21 N3A        57.5740  -81.3050    5.1990 N.ar      1 NAD301      0.0000 
     22 C4A        58.0280  -80.4560    4.2060 C.ar      1 NAD301      0.0000 
     23 O3         54.7540  -72.6680    6.4650 O.3       1 NAD301      0.0000 
     24 PN         53.6760  -72.5970    7.6670 P.3       1 NAD301      0.0000 
     25 O1N        53.7740  -73.8900    8.5550 O.co2     1 NAD301      0.0000 
     26 O2N        53.7150  -71.1830    8.2360 O.co2     1 NAD301      0.0000 
     27 O5D        52.3510  -72.6280    6.7590 O.3       1 NAD301      0.0000 
     28 C5D        52.2580  -73.5690    5.6900 C.3       1 NAD301      0.0000 
     29 C4D        50.9680  -73.3680    4.8980 C.3       1 NAD301      0.0000 
     30 O4D        49.9520  -72.7160    5.6860 O.3       1 NAD301      0.0000 
     31 C3D        51.1790  -72.5020    3.6810 C.3       1 NAD301      0.0000 
     32 O3D        50.4820  -73.1570    2.5950 O.3       1 NAD301      0.0000 
     33 C2D        50.6600  -71.1290    4.1550 C.3       1 NAD301      0.0000 
     34 O2D        50.3140  -70.2250    3.0830 O.3       1 NAD301      0.0000 
     35 C1D        49.4670  -71.5400    5.0350 C.3       1 NAD301      0.0000 
     36 N1N        48.9550  -70.5950    6.0540 N.pl3     1 NAD301      0.0000 
     37 C2N        49.8100  -69.8600    6.8120 C.ar      1 NAD301      0.0000 
     38 C3N        49.3400  -68.9660    7.7940 C.ar      1 NAD301      0.0000 
     39 C7N        50.3440  -68.2100    8.6010 C.2       1 NAD301      0.0000 
     40 O7N        51.4480  -68.6890    8.8040 O.2       1 NAD301      0.0000 
     41 N7N        50.0550  -67.0240    9.0970 N.am      1 NAD301      0.0000 
     42 C4N        47.9710  -68.8220    7.9960 C.ar      1 NAD301      0.0000 
     43 C5N        47.1080  -69.5840    7.2290 C.ar      1 NAD301      0.0000 
     44 C6N        47.6260  -70.4860    6.2690 C.ar      1 NAD301      0.0000 
@<TRIPOS>BOND
     1    1    2 ar   
     2    1    3 ar   
     3    1    4 1    
     4    1   23 1    
     5    4    5 1    
     6    5    6 1    
     7    6    7 1    
     8    6    8 1    
     9    7   12 1    
    10    8    9 1    
    11    8   10 1    
    12   10   11 1    
    13   10   12 1    
    14   12   13 1    
    15   13   14 1    
    16   13   22 1    
    17   14   15 2    
    18   15   16 1    
    19   16   17 ar   
    20   16   22 ar   
    21   17   18 1    
    22   17   19 ar   
    23   19   20 ar   
    24   20   21 ar   
    25   21   22 ar   
    26   23   24 1    
    27   24   25 ar   
    28   24   26 ar   
    29   24   27 1    
    30   27   28 1    
    31   28   29 1    
    32   29   30 1    
    33   29   31 1    
    34   30   35 1    
    35   31   32 1    
    36   31   33 1    
    37   33   34 1    
    38   33   35 1    
    39   35   36 1    
    40   36   37 ar   
    41   36   44 ar   
    42   37   38 ar   
    43   38   39 1    
    44   38   42 ar   
    45   39   40 2    
    46   39   41 am   
    47   42   43 ar   
    48   43   44 ar   
@<TRIPOS>SUBSTRUCTURE
     1 NAD301      1 GROUP   
@<TRIPOS>SET
ATOM$ORANGE STATIC     ATOMS   COLORGROUP SYSTEM 
42 5 5 6 6 8 8 10 10 12 12 14 14 16 16 17 17 20 \
20 22 22 28 28 29 29 31 31 33 33 35 35 37 37 38 38 39 \
39 42 42 43 43 44 44 

