#    Name: 5yu0_1_NAD
#    Modification time : Fri May 22 19:25:08 2020

@<TRIPOS>MOLECULE
5yu0_1_NAD
   44    48     1     0     1
SMALL
NO_CHARGES


@<TRIPOS>ATOM
      1 PA        -20.6320   -0.8630   25.3260 P.3       1 NAD402      0.0000 
      2 O1A       -19.9070   -2.1730   25.1570 O.co2     1 NAD402      0.0000 
      3 O2A       -21.9480   -0.5900   24.6280 O.co2     1 NAD402      0.0000 
      4 O5B       -19.6520    0.3340   24.9070 O.3       1 NAD402      0.0000 
      5 C5B       -18.3250    0.4140   25.4130 C.3       1 NAD402      0.0000 
      6 C4B       -17.4860    0.9550   24.2730 C.3       1 NAD402      0.0000 
      7 O4B       -16.1980    1.3420   24.7620 O.3       1 NAD402      0.0000 
      8 C3B       -17.2570   -0.0740   23.1620 C.3       1 NAD402      0.0000 
      9 O3B       -17.7030    0.4950   21.9170 O.3       1 NAD402      0.0000 
     10 C2B       -15.7470   -0.2790   23.1660 C.3       1 NAD402      0.0000 
     11 O2B       -15.1730   -0.5220   21.8760 O.3       1 NAD402      0.0000 
     12 C1B       -15.2680    1.0450   23.7310 C.3       1 NAD402      0.0000 
     13 N9A       -13.9180    1.0180   24.3150 N.pl3     1 NAD402      0.0000 
     14 C8A       -13.3230    0.0010   24.9690 C.2       1 NAD402      0.0000 
     15 N7A       -12.0810    0.3680   25.3740 N.2       1 NAD402      0.0000 
     16 C5A       -11.8860    1.6360   24.9600 C.ar      1 NAD402      0.0000 
     17 C6A       -10.8020    2.6250   25.0330 C.ar      1 NAD402      0.0000 
     18 N6A        -9.6310    2.3230   25.6510 N.pl3     1 NAD402      0.0000 
     19 N1A       -11.0280    3.8310   24.4710 N.ar      1 NAD402      0.0000 
     20 C2A       -12.1680    4.1590   23.8470 C.ar      1 NAD402      0.0000 
     21 N3A       -13.1950    3.3050   23.7350 N.ar      1 NAD402      0.0000 
     22 C4A       -13.1040    2.0610   24.2650 C.ar      1 NAD402      0.0000 
     23 O3        -20.8790   -0.6610   26.9180 O.3       1 NAD402      0.0000 
     24 PN        -21.7640    0.4820   27.6180 P.3       1 NAD402      0.0000 
     25 O1N       -21.5920    1.7580   26.8410 O.co2     1 NAD402      0.0000 
     26 O2N       -23.1090   -0.0810   27.9550 O.co2     1 NAD402      0.0000 
     27 O5D       -20.9990    0.6420   29.0410 O.3       1 NAD402      0.0000 
     28 C5D       -19.7400    1.3260   29.1030 C.3       1 NAD402      0.0000 
     29 C4D       -19.2650    1.4350   30.5520 C.3       1 NAD402      0.0000 
     30 O4D       -20.2200    2.1550   31.3270 O.3       1 NAD402      0.0000 
     31 C3D       -19.1120    0.0830   31.2180 C.3       1 NAD402      0.0000 
     32 O3D       -17.9590    0.1270   32.0890 O.3       1 NAD402      0.0000 
     33 C2D       -20.3840   -0.0390   32.0380 C.3       1 NAD402      0.0000 
     34 O2D       -20.2620   -1.0060   33.0840 O.3       1 NAD402      0.0000 
     35 C1D       -20.5150    1.4010   32.5040 C.3       1 NAD402      0.0000 
     36 N1N       -21.8200    1.7750   33.0330 N.pl3     1 NAD402      0.0000 
     37 C2N       -21.8410    2.6880   34.0130 C.ar      1 NAD402      0.0000 
     38 C3N       -23.0450    3.0950   34.5700 C.ar      1 NAD402      0.0000 
     39 C7N       -23.0460    4.1340   35.6460 C.2       1 NAD402      0.0000 
     40 O7N       -24.0730    4.3170   36.2790 O.2       1 NAD402      0.0000 
     41 N7N       -21.9400    4.8800   35.8460 N.am      1 NAD402      0.0000 
     42 C4N       -24.2450    2.5500   34.0930 C.ar      1 NAD402      0.0000 
     43 C5N       -24.1900    1.6190   33.0580 C.ar      1 NAD402      0.0000 
     44 C6N       -22.9550    1.2530   32.5280 C.ar      1 NAD402      0.0000 
@<TRIPOS>BOND
     1    1    2 ar   
     2    1    3 ar   
     3    1    4 1    
     4    1   23 1    
     5    4    5 1    
     6    5    6 1    
     7    6    7 1    
     8    6    8 1    
     9    7   12 1    
    10    8    9 1    
    11    8   10 1    
    12   10   11 1    
    13   10   12 1    
    14   12   13 1    
    15   13   14 1    
    16   13   22 1    
    17   14   15 2    
    18   15   16 1    
    19   16   17 ar   
    20   16   22 ar   
    21   17   18 1    
    22   17   19 ar   
    23   19   20 ar   
    24   20   21 ar   
    25   21   22 ar   
    26   23   24 1    
    27   24   25 ar   
    28   24   26 ar   
    29   24   27 1    
    30   27   28 1    
    31   28   29 1    
    32   29   30 1    
    33   29   31 1    
    34   30   35 1    
    35   31   32 1    
    36   31   33 1    
    37   33   34 1    
    38   33   35 1    
    39   35   36 1    
    40   36   37 ar   
    41   36   44 ar   
    42   37   38 ar   
    43   38   39 1    
    44   38   42 ar   
    45   39   40 2    
    46   39   41 am   
    47   42   43 ar   
    48   43   44 ar   
@<TRIPOS>SUBSTRUCTURE
     1 NAD402      1 GROUP   
@<TRIPOS>SET
ATOM$ORANGE STATIC     ATOMS   COLORGROUP SYSTEM 
42 5 5 6 6 8 8 10 10 12 12 14 14 16 16 17 17 20 \
20 22 22 28 28 29 29 31 31 33 33 35 35 37 37 38 38 39 \
39 42 42 43 43 44 44 

