#    Name: 5yu0_1_NAD_CAVITY_N1_6
#    Modification time : Fri May 22 19:25:11 2020

@<TRIPOS>MOLECULE
5yu0_1_NAD_CAVITY_N1_6
   70     0     7     0     0
SMALL
NO_CHARGES


@<TRIPOS>ATOM
      1 OG        -19.1900   -1.4900   22.5700 O.3       1 SER1        0.0000 
      2 OG        -17.1400   -1.4100   22.0200 O.3       1 SER1        0.0000 
      3 OG        -20.8800   -1.1000   24.5000 O.3       1 SER1        0.0000 
      4 OG        -18.8400   -1.0200   23.9500 O.3       1 SER1        0.0000 
      5 OG        -16.7900   -0.9400   23.4000 O.3       1 SER1        0.0000 
      6 OG        -20.5300   -0.6300   25.8700 O.3       1 SER1        0.0000 
      7 OG        -19.3900   -1.5900   25.9100 O.3       1 SER1        0.0000 
      8 OG        -18.4900   -0.5500   25.3300 O.3       1 SER1        0.0000 
      9 OG        -17.5900    0.5000   24.7400 O.3       1 SER1        0.0000 
     10 OG        -15.5400    0.5800   24.1900 O.3       1 SER1        0.0000 
     11 OG        -14.3900   -0.3800   24.2300 O.3       1 SER1        0.0000 
     12 OG        -13.2400   -1.3500   24.2700 O.3       1 SER1        0.0000 
     13 OG        -12.1000   -2.3100   24.3000 O.3       1 SER1        0.0000 
     14 OG        -13.4900    0.6700   23.6400 O.3       1 SER1        0.0000 
     15 OG        -11.9900    0.1700   25.0600 O.3       1 SER1        0.0000 
     16 OG        -24.0200    2.5400   33.8300 O.3       1 SER1        0.0000 
     17 O         -21.6800    0.3400   25.8400 O.2       2 ALA2        0.0000 
     18 O         -18.7300    1.4700   24.7000 O.2       2 ALA2        0.0000 
     19 O         -21.3300    0.8100   27.2200 O.2       2 ALA2        0.0000 
     20 N         -19.2800    0.8900   26.6700 N.am      2 ALA2        0.0000 
     21 O         -18.1400   -0.0700   26.7000 O.2       2 ALA2        0.0000 
     22 O         -14.0400    0.0900   25.6100 O.2       2 ALA2        0.0000 
     23 N         -20.0800    2.3300   28.0100 N.am      2 ALA2        0.0000 
     24 N         -18.9300    1.3700   28.0500 N.am      2 ALA2        0.0000 
     25 N         -19.4800    0.7900   30.0100 N.am      2 ALA2        0.0000 
     26 N         -18.3300   -0.1700   30.0500 N.am      2 ALA2        0.0000 
     27 N         -18.5800    1.8400   29.4200 N.am      2 ALA2        0.0000 
     28 N         -24.3700    2.0700   32.4500 N.am      2 ALA2        0.0000 
     29 N         -20.0300    0.2200   31.9800 N.am      2 ALA2        0.0000 
     30 N         -21.7200    0.6100   33.9100 N.am      2 ALA2        0.0000 
     31 N         -21.9700    2.6200   33.2800 N.am      2 ALA2        0.0000 
     32 N         -20.8200    1.6600   33.3200 N.am      2 ALA2        0.0000 
     33 N         -22.5200    2.0500   35.2500 N.am      2 ALA2        0.0000 
     34 N         -21.6200    3.0900   34.6600 N.am      2 ALA2        0.0000 
     35 OD1       -23.6700    3.0100   35.2100 O.co2     3 ASP3        0.0000 
     36 NZ        -17.9400    0.0300   23.3600 N.4       4 LYS4        0.0000 
     37 NZ        -15.8900    0.1100   22.8100 N.4       4 LYS4        0.0000 
     38 NZ        -14.7400   -0.8500   22.8500 N.4       4 LYS4        0.0000 
     39 NZ        -16.6900    1.5500   24.1500 N.4       4 LYS4        0.0000 
     40 NZ        -14.6400    1.6300   23.6000 N.4       4 LYS4        0.0000 
     41 CZ        -20.3800   -0.2500   30.6000 C.ar      5 PHE5        0.0000 
     42 CA        -19.9900   -0.0500   23.9100 C.3       6 GLY6        0.0000 
     43 CA        -19.0900    0.9900   23.3200 C.3       6 GLY6        0.0000 
     44 CA        -21.4300   -1.6700   26.4600 C.3       6 GLY6        0.0000 
     45 CA        -19.6300    0.4200   25.2900 C.3       6 GLY6        0.0000 
     46 CA        -22.2300   -0.2400   27.8000 C.3       6 GLY6        0.0000 
     47 CA        -21.0800   -1.2000   27.8400 C.3       6 GLY6        0.0000 
     48 CA        -12.8900   -0.8700   25.6400 C.3       6 GLY6        0.0000 
     49 CA        -14.2900    2.1000   24.9800 C.3       6 GLY6        0.0000 
     50 CA        -21.8800    0.2400   29.1800 C.3       6 GLY6        0.0000 
     51 CA        -20.7300   -0.7300   29.2200 C.3       6 GLY6        0.0000 
     52 CA        -20.9800    1.2800   28.5900 C.3       6 GLY6        0.0000 
     53 CA        -18.6800   -0.6500   28.6700 C.3       6 GLY6        0.0000 
     54 CA        -23.5700    0.6300   31.1100 C.3       6 GLY6        0.0000 
     55 CA        -21.5300    0.7100   30.5600 C.3       6 GLY6        0.0000 
     56 CA        -20.6300    1.7600   29.9700 C.3       6 GLY6        0.0000 
     57 CA        -19.7300    2.8000   29.3900 C.3       6 GLY6        0.0000 
     58 CA        -23.2200    1.1000   32.4900 C.3       6 GLY6        0.0000 
     59 CA        -22.0800    0.1400   32.5300 C.3       6 GLY6        0.0000 
     60 CA        -23.4700    3.1100   31.8600 C.3       6 GLY6        0.0000 
     61 CA        -22.3200    2.1500   31.9000 C.3       6 GLY6        0.0000 
     62 CA        -21.1800    1.1800   31.9400 C.3       6 GLY6        0.0000 
     63 CA        -21.4200    3.1900   31.3100 C.3       6 GLY6        0.0000 
     64 CA        -20.2800    2.2300   31.3500 C.3       6 GLY6        0.0000 
     65 CA        -19.1300    1.2700   31.3900 C.3       6 GLY6        0.0000 
     66 CA        -23.1200    3.5900   33.2400 C.3       6 GLY6        0.0000 
     67 CA        -22.7700    4.0600   34.6200 C.3       6 GLY6        0.0000 
     68 DU        -20.1800   -0.1500   27.2500 H         7 CUB7        0.0000 
     69 DU        -19.8300    0.3200   28.6300 H         7 CUB7        0.0000 
     70 DU        -22.8700    1.5700   33.8700 H         7 CUB7        0.0000 
@<TRIPOS>BOND
@<TRIPOS>SUBSTRUCTURE
     1 SER1        1 GROUP   
     2 ALA2       17 GROUP   
     3 ASP3       35 GROUP   
     4 LYS4       36 GROUP   
     5 PHE5       41 GROUP   
     6 GLY6       42 GROUP   
     7 CUB7       68 GROUP   
@<TRIPOS>SET

