#    Name: 5yu0_2_NAD_CAVITY_N1_6
#    Modification time : Fri May 22 19:25:19 2020

@<TRIPOS>MOLECULE
5yu0_2_NAD_CAVITY_N1_6
   81     0     6     0     0
SMALL
NO_CHARGES


@<TRIPOS>ATOM
      1 OG        -43.3400  -19.3700   60.9500 O.3       1 SER1        0.0000 
      2 OG        -42.4400  -18.3200   60.3600 O.3       1 SER1        0.0000 
      3 OG        -45.9400  -20.0200   63.4600 O.3       1 SER1        0.0000 
      4 OG        -45.0400  -18.9800   62.8700 O.3       1 SER1        0.0000 
      5 OG        -43.8900  -19.9400   62.9100 O.3       1 SER1        0.0000 
      6 OG        -42.9900  -18.9000   62.3300 O.3       1 SER1        0.0000 
      7 OG        -46.7300  -18.5900   64.8000 O.3       1 SER1        0.0000 
      8 OG        -44.6900  -18.5000   64.2500 O.3       1 SER1        0.0000 
      9 OG        -43.5400  -19.4700   64.2900 O.3       1 SER1        0.0000 
     10 OG        -45.4800  -17.0700   65.6000 O.3       1 SER1        0.0000 
     11 OG        -43.1900  -19.0000   65.6700 O.3       1 SER1        0.0000 
     12 OG        -43.9800  -17.5600   67.0100 O.3       1 SER1        0.0000 
     13 OG        -42.8400  -18.5200   67.0500 O.3       1 SER1        0.0000 
     14 O         -42.9000  -21.2800   58.2300 O.2       2 ALA2        0.0000 
     15 O         -43.6900  -19.8400   59.5700 O.2       2 ALA2        0.0000 
     16 O         -42.5500  -20.8100   59.6100 O.2       2 ALA2        0.0000 
     17 O         -41.4000  -21.7700   59.6400 O.2       2 ALA2        0.0000 
     18 N         -35.2600  -21.5300   58.0000 N.am      2 ALA2        0.0000 
     19 N         -35.5000  -19.5100   57.3700 N.am      2 ALA2        0.0000 
     20 N         -34.3600  -20.4800   57.4100 N.am      2 ALA2        0.0000 
     21 N         -42.1900  -20.3300   60.9800 N.am      2 ALA2        0.0000 
     22 N         -41.0500  -21.3000   61.0200 N.am      2 ALA2        0.0000 
     23 N         -40.1500  -20.2500   60.4400 N.am      2 ALA2        0.0000 
     24 N         -39.0000  -21.2200   60.4700 N.am      2 ALA2        0.0000 
     25 N         -37.2000  -19.1200   59.3000 N.am      2 ALA2        0.0000 
     26 N         -36.0500  -20.0900   59.3400 N.am      2 ALA2        0.0000 
     27 N         -36.3000  -18.0800   58.7100 N.am      2 ALA2        0.0000 
     28 O         -43.6400  -21.9500   63.5400 O.2       2 ALA2        0.0000 
     29 N         -42.7400  -20.9100   62.9500 N.am      2 ALA2        0.0000 
     30 O         -41.8400  -19.8600   62.3600 O.2       2 ALA2        0.0000 
     31 O         -40.9400  -18.8100   61.7800 O.2       2 ALA2        0.0000 
     32 N         -38.9000  -18.7300   61.2300 N.am      2 ALA2        0.0000 
     33 N         -37.7500  -19.7000   61.2700 N.am      2 ALA2        0.0000 
     34 O         -36.8500  -18.6500   60.6800 O.2       2 ALA2        0.0000 
     35 O         -42.3900  -20.4300   64.3300 O.2       2 ALA2        0.0000 
     36 O         -42.0400  -19.9600   65.7100 O.2       2 ALA2        0.0000 
     37 NZ        -44.7900  -20.9900   63.5000 N.4       3 LYS4        0.0000 
     38 NZ        -45.5900  -19.5500   64.8400 N.4       3 LYS4        0.0000 
     39 NZ        -44.4400  -20.5200   64.8800 N.4       3 LYS4        0.0000 
     40 NZ        -43.2900  -21.4800   64.9200 N.4       3 LYS4        0.0000 
     41 NZ        -47.5300  -17.1500   66.1400 N.4       3 LYS4        0.0000 
     42 NZ        -46.3800  -18.1100   66.1800 N.4       3 LYS4        0.0000 
     43 NZ        -45.2400  -19.0800   66.2200 N.4       3 LYS4        0.0000 
     44 NZ        -44.0900  -20.0400   66.2600 N.4       3 LYS4        0.0000 
     45 NZ        -42.9400  -21.0100   66.3000 N.4       3 LYS4        0.0000 
     46 CZ        -38.3500  -18.1600   59.2600 C.ar      4 PHE5        0.0000 
     47 CZ        -37.4500  -17.1100   58.6700 C.ar      4 PHE5        0.0000 
     48 CZ        -40.0400  -17.7700   61.1900 C.ar      4 PHE5        0.0000 
     49 CZ        -38.0000  -17.6800   60.6400 C.ar      4 PHE5        0.0000 
     50 CA        -42.0000  -20.2300   57.6400 C.3       5 GLY6        0.0000 
     51 CA        -40.8500  -21.2000   57.6800 C.3       5 GLY6        0.0000 
     52 CA        -39.9500  -20.1500   57.0900 C.3       5 GLY6        0.0000 
     53 CA        -37.9000  -20.0700   56.5400 C.3       5 GLY6        0.0000 
     54 CA        -36.7500  -21.0300   56.5800 C.3       5 GLY6        0.0000 
     55 CA        -35.6100  -22.0000   56.6200 C.3       5 GLY6        0.0000 
     56 CA        -33.5600  -21.9200   56.0700 C.3       5 GLY6        0.0000 
     57 CA        -44.5900  -20.8900   60.1500 C.3       5 GLY6        0.0000 
     58 CA        -42.7900  -18.8000   58.9800 C.3       5 GLY6        0.0000 
     59 CA        -40.5000  -20.7200   59.0600 C.3       5 GLY6        0.0000 
     60 CA        -40.7500  -18.7100   58.4300 C.3       5 GLY6        0.0000 
     61 CA        -39.6000  -19.6800   58.4700 C.3       5 GLY6        0.0000 
     62 CA        -38.4500  -20.6400   58.5100 C.3       5 GLY6        0.0000 
     63 CA        -37.3000  -21.6100   58.5500 C.3       5 GLY6        0.0000 
     64 CA        -38.7000  -18.6300   57.8800 C.3       5 GLY6        0.0000 
     65 CA        -37.5500  -19.6000   57.9200 C.3       5 GLY6        0.0000 
     66 CA        -36.4000  -20.5600   57.9600 C.3       5 GLY6        0.0000 
     67 CA        -36.6500  -18.5500   57.3300 C.3       5 GLY6        0.0000 
     68 CA        -45.3900  -19.4500   61.5000 C.3       5 GLY6        0.0000 
     69 CA        -44.2400  -20.4200   61.5300 C.3       5 GLY6        0.0000 
     70 CA        -43.0900  -21.3800   61.5700 C.3       5 GLY6        0.0000 
     71 CA        -40.4000  -18.2400   59.8100 C.3       5 GLY6        0.0000 
     72 CA        -38.1000  -20.1700   59.8900 C.3       5 GLY6        0.0000 
     73 CA        -36.9500  -21.1300   59.9200 C.3       5 GLY6        0.0000 
     74 CA        -39.8000  -19.7800   61.8100 C.3       5 GLY6        0.0000 
     75 CA        -41.6900  -19.4900   67.0900 C.3       5 GLY6        0.0000 
     76 DU        -35.8600  -19.9900   55.9900 H         6 CUB7        0.0000 
     77 DU        -34.7100  -20.9500   56.0300 H         6 CUB7        0.0000 
     78 DU        -41.6500  -19.7600   59.0200 H         6 CUB7        0.0000 
     79 DU        -41.3000  -19.2900   60.4000 H         6 CUB7        0.0000 
     80 DU        -39.2500  -19.2000   59.8500 H         6 CUB7        0.0000 
     81 DU        -46.6300  -16.1000   65.5600 H         6 CUB7        0.0000 
@<TRIPOS>BOND
@<TRIPOS>SUBSTRUCTURE
     1 SER1        1 GROUP   
     2 ALA2       14 GROUP   
     3 LYS4       37 GROUP   
     4 PHE5       46 GROUP   
     5 GLY6       50 GROUP   
     6 CUB7       76 GROUP   
@<TRIPOS>SET

