#    Name: 5yu0_2_NAD
#    Modification time : Fri May 22 19:25:16 2020

@<TRIPOS>MOLECULE
5yu0_2_NAD
   44    48     1     0     1
SMALL
NO_CHARGES


@<TRIPOS>ATOM
      1 PA        -43.7860  -19.5450   60.0350 P.3       1 NAD402      0.0000 
      2 O1A       -44.2020  -18.1790   60.5090 O.co2     1 NAD402      0.0000 
      3 O2A       -44.5680  -20.3320   59.0350 O.co2     1 NAD402      0.0000 
      4 O5B       -43.6100  -20.4920   61.3220 O.3       1 NAD402      0.0000 
      5 C5B       -42.9090  -20.0100   62.4670 C.3       1 NAD402      0.0000 
      6 C4B       -43.6370  -20.5770   63.6830 C.3       1 NAD402      0.0000 
      7 O4B       -42.8500  -20.3760   64.8520 O.3       1 NAD402      0.0000 
      8 C3B       -44.9830  -19.8910   63.9470 C.3       1 NAD402      0.0000 
      9 O3B       -46.0290  -20.8750   63.9340 O.3       1 NAD402      0.0000 
     10 C2B       -44.8390  -19.2620   65.3250 C.3       1 NAD402      0.0000 
     11 O2B       -46.0670  -19.3370   66.0570 O.3       1 NAD402      0.0000 
     12 C1B       -43.7560  -20.1400   65.9330 C.3       1 NAD402      0.0000 
     13 N9A       -43.0000  -19.5750   67.0600 N.pl3     1 NAD402      0.0000 
     14 C8A       -42.6070  -18.2970   67.2400 C.2       1 NAD402      0.0000 
     15 N7A       -41.9180  -18.1860   68.3890 N.2       1 NAD402      0.0000 
     16 C5A       -41.8560  -19.4060   68.9590 C.ar      1 NAD402      0.0000 
     17 C6A       -41.2790  -19.9850   70.1880 C.ar      1 NAD402      0.0000 
     18 N6A       -40.6070  -19.2280   71.0820 N.pl3     1 NAD402      0.0000 
     19 N1A       -41.4590  -21.3050   70.3960 N.ar      1 NAD402      0.0000 
     20 C2A       -42.1250  -22.0850   69.5280 C.ar      1 NAD402      0.0000 
     21 N3A       -42.6890  -21.6290   68.3960 N.ar      1 NAD402      0.0000 
     22 C4A       -42.5780  -20.3160   68.0740 C.ar      1 NAD402      0.0000 
     23 O3        -42.2480  -19.3450   59.5460 O.3       1 NAD402      0.0000 
     24 PN        -41.3810  -20.4660   58.7600 P.3       1 NAD402      0.0000 
     25 O1N       -41.6710  -21.8110   59.3650 O.co2     1 NAD402      0.0000 
     26 O2N       -41.5340  -20.2680   57.2680 O.co2     1 NAD402      0.0000 
     27 O5D       -39.9110  -19.9770   59.1860 O.3       1 NAD402      0.0000 
     28 C5D       -39.3690  -20.3150   60.4680 C.3       1 NAD402      0.0000 
     29 C4D       -37.9260  -19.8270   60.5800 C.3       1 NAD402      0.0000 
     30 O4D       -37.0750  -20.5580   59.6840 O.3       1 NAD402      0.0000 
     31 C3D       -37.7740  -18.3620   60.1980 C.3       1 NAD402      0.0000 
     32 O3D       -36.7690  -17.8570   61.0740 O.3       1 NAD402      0.0000 
     33 C2D       -37.2100  -18.4170   58.7870 C.3       1 NAD402      0.0000 
     34 O2D       -36.4970  -17.2360   58.4380 O.3       1 NAD402      0.0000 
     35 C1D       -36.3000  -19.6270   58.9200 C.3       1 NAD402      0.0000 
     36 N1N       -35.9230  -20.2370   57.6500 N.pl3     1 NAD402      0.0000 
     37 C2N       -34.7240  -20.8220   57.5860 C.ar      1 NAD402      0.0000 
     38 C3N       -34.3190  -21.4250   56.4070 C.ar      1 NAD402      0.0000 
     39 C7N       -32.9860  -22.0980   56.3510 C.2       1 NAD402      0.0000 
     40 O7N       -32.5610  -22.4890   55.2690 O.2       1 NAD402      0.0000 
     41 N7N       -32.3490  -22.3060   57.5150 N.am      1 NAD402      0.0000 
     42 C4N       -35.1630  -21.4460   55.2960 C.ar      1 NAD402      0.0000 
     43 C5N       -36.4270  -20.8700   55.4150 C.ar      1 NAD402      0.0000 
     44 C6N       -36.7810  -20.2670   56.6150 C.ar      1 NAD402      0.0000 
@<TRIPOS>BOND
     1    1    2 ar   
     2    1    3 ar   
     3    1    4 1    
     4    1   23 1    
     5    4    5 1    
     6    5    6 1    
     7    6    7 1    
     8    6    8 1    
     9    7   12 1    
    10    8    9 1    
    11    8   10 1    
    12   10   11 1    
    13   10   12 1    
    14   12   13 1    
    15   13   14 1    
    16   13   22 1    
    17   14   15 2    
    18   15   16 1    
    19   16   17 ar   
    20   16   22 ar   
    21   17   18 1    
    22   17   19 ar   
    23   19   20 ar   
    24   20   21 ar   
    25   21   22 ar   
    26   23   24 1    
    27   24   25 ar   
    28   24   26 ar   
    29   24   27 1    
    30   27   28 1    
    31   28   29 1    
    32   29   30 1    
    33   29   31 1    
    34   30   35 1    
    35   31   32 1    
    36   31   33 1    
    37   33   34 1    
    38   33   35 1    
    39   35   36 1    
    40   36   37 ar   
    41   36   44 ar   
    42   37   38 ar   
    43   38   39 1    
    44   38   42 ar   
    45   39   40 2    
    46   39   41 am   
    47   42   43 ar   
    48   43   44 ar   
@<TRIPOS>SUBSTRUCTURE
     1 NAD402      1 GROUP   
@<TRIPOS>SET
ATOM$ORANGE STATIC     ATOMS   COLORGROUP SYSTEM 
42 5 5 6 6 8 8 10 10 12 12 14 14 16 16 17 17 20 \
20 22 22 28 28 29 29 31 31 33 33 35 35 37 37 38 38 39 \
39 42 42 43 43 44 44 

