#    Name: 6c23_1_ALA_ALA_ALA_ARG_LYS_PHE_ALA
#    Modification time : Fri May 22 19:33:49 2020

@<TRIPOS>MOLECULE
6c23_1_ALA_ALA_ALA_ARG_LYS_PHE_ALA
   51    51     7     0     0
SMALL
NO_CHARGES


@<TRIPOS>ATOM
      1 N         160.4150  120.9210  112.7190 N.4       1 ALA23       0.0000 
      2 CA        159.7260  122.0790  113.3510 C.3       1 ALA23       0.0000 
      3 C         158.2130  121.8320  113.4390 C.2       1 ALA23       0.0000 
      4 O         157.5680  121.5090  112.4390 O.2       1 ALA23       0.0000 
      5 CB        160.0190  123.3560  112.5690 C.3       1 ALA23       0.0000 
      6 N         157.6620  121.9780  114.6430 N.am      2 ALA24       0.0000 
      7 CA        156.2130  121.9220  114.8660 C.3       2 ALA24       0.0000 
      8 C         155.4500  123.0720  114.1940 C.2       2 ALA24       0.0000 
      9 O         156.0520  123.9610  113.5860 O.2       2 ALA24       0.0000 
     10 CB        155.9300  121.9280  116.3570 C.3       2 ALA24       0.0000 
     11 N         154.1210  123.0420  114.3080 N.am      3 ALA25       0.0000 
     12 CA        153.2730  124.1400  113.8320 C.3       3 ALA25       0.0000 
     13 C         153.5580  125.3930  114.6740 C.2       3 ALA25       0.0000 
     14 O         153.4950  125.3290  115.8990 O.2       3 ALA25       0.0000 
     15 CB        151.7990  123.7500  113.9130 C.3       3 ALA25       0.0000 
     16 N         153.8990  126.5090  114.0260 N.am      4 ARG26       0.0000 
     17 CA        154.1980  127.7620  114.7350 C.3       4 ARG26       0.0000 
     18 C         153.6980  128.9920  113.9920 C.2       4 ARG26       0.0000 
     19 O         154.2180  129.3450  112.9350 O.2       4 ARG26       0.0000 
     20 CB        155.6940  127.9070  114.9510 C.3       4 ARG26       0.0000 
     21 CG        156.2500  127.0340  116.0480 C.3       4 ARG26       0.0000 
     22 CD        157.6900  127.4520  116.3030 C.3       4 ARG26       0.0000 
     23 NE        158.4590  126.4650  117.0550 N.pl3     4 ARG26       0.0000 
     24 CZ        158.9050  125.2970  116.5810 C.cat     4 ARG26       0.0000 
     25 NH1       158.6470  124.8950  115.3320 N.pl3     4 ARG26       0.0000 
     26 NH2       159.6070  124.4990  117.3800 N.pl3     4 ARG26       0.0000 
     27 N         152.7020  129.6510  114.5730 N.am      5 LYS27       0.0000 
     28 CA        152.0450  130.7900  113.9360 C.3       5 LYS27       0.0000 
     29 C         153.0190  131.9650  113.7650 C.2       5 LYS27       0.0000 
     30 O         153.9410  132.1210  114.5650 O.2       5 LYS27       0.0000 
     31 CB        150.8160  131.2150  114.7540 C.3       5 LYS27       0.0000 
     32 CG        149.7180  130.1530  114.8460 C.3       5 LYS27       0.0000 
     33 CD        148.7810  130.3610  116.0300 C.3       5 LYS27       0.0000 
     34 CE        147.8150  129.1980  116.1880 C.3       5 LYS27       0.0000 
     35 NZ        146.7280  129.5140  117.1560 N.4       5 LYS27       0.0000 
     36 N         152.8320  132.7470  112.7000 N.am      6 PHE28       0.0000 
     37 CA        153.6240  133.9640  112.4380 C.3       6 PHE28       0.0000 
     38 C         152.6620  135.1650  112.3530 C.2       6 PHE28       0.0000 
     39 O         151.4490  135.0030  112.5220 O.2       6 PHE28       0.0000 
     40 CB        154.4580  133.8530  111.1380 C.3       6 PHE28       0.0000 
     41 CG        155.2910  132.5850  111.0040 C.ar      6 PHE28       0.0000 
     42 CD1       155.8920  131.9750  112.1070 C.ar      6 PHE28       0.0000 
     43 CD2       155.5150  132.0240  109.7340 C.ar      6 PHE28       0.0000 
     44 CE1       156.6660  130.8270  111.9470 C.ar      6 PHE28       0.0000 
     45 CE2       156.2830  130.8760  109.5740 C.ar      6 PHE28       0.0000 
     46 CZ        156.8620  130.2780  110.6810 C.ar      6 PHE28       0.0000 
     47 N         153.2000  136.3600  112.0980 N.am      7 ALA29       0.0000 
     48 CA        152.4090  137.5940  112.1380 C.3       7 ALA29       0.0000 
     49 C         153.0670  138.7170  111.3350 C.2       7 ALA29       0.0000 
     50 O         153.3700  138.5430  110.1610 O.2       7 ALA29       0.0000 
     51 CB        152.2090  138.0200  113.5840 C.3       7 ALA29       0.0000 
@<TRIPOS>BOND
     1    1    2 1    
     2    2    3 1    
     3    2    5 1    
     4    3    4 2    
     5    3    6 am   
     6    6    7 1    
     7    7    8 1    
     8    7   10 1    
     9    8    9 2    
    10    8   11 am   
    11   11   12 1    
    12   12   13 1    
    13   12   15 1    
    14   13   14 2    
    15   13   16 am   
    16   16   17 1    
    17   17   18 1    
    18   17   20 1    
    19   18   19 2    
    20   18   27 am   
    21   20   21 1    
    22   21   22 1    
    23   22   23 1    
    24   23   24 ar   
    25   24   25 ar   
    26   24   26 ar   
    27   27   28 1    
    28   28   29 1    
    29   28   31 1    
    30   29   30 2    
    31   29   36 am   
    32   31   32 1    
    33   32   33 1    
    34   33   34 1    
    35   34   35 1    
    36   36   37 1    
    37   37   38 1    
    38   37   40 1    
    39   38   39 2    
    40   38   47 am   
    41   40   41 1    
    42   41   42 ar   
    43   41   43 ar   
    44   42   44 ar   
    45   43   45 ar   
    46   44   46 ar   
    47   45   46 ar   
    48   47   48 1    
    49   48   49 1    
    50   48   51 1    
    51   49   50 2    
@<TRIPOS>SUBSTRUCTURE
     1 ALA23       1 RESIDUE 
     2 ALA24       6 RESIDUE 
     3 ALA25      11 RESIDUE 
     4 ARG26      16 RESIDUE 
     5 LYS27      27 RESIDUE 
     6 PHE28      36 RESIDUE 
     7 ALA29      47 RESIDUE 
@<TRIPOS>SET

