#    Name: 6eh2_1_AMP
#    Modification time : Fri May 22 19:25:29 2020

@<TRIPOS>MOLECULE
6eh2_1_AMP
   35    37     1     0     1
SMALL
NO_CHARGES


@<TRIPOS>ATOM
      1 P         -11.9180  -21.4540   28.1430 P.3       1 AMP401      0.0000 
      2 O1P       -12.9900  -20.9590   27.1980 O.co2     1 AMP401      0.0000 
      3 O2P       -10.4950  -21.2280   27.6820 O.co2     1 AMP401      0.0000 
      4 O3P       -12.1790  -21.1240   29.5950 O.co2     1 AMP401      0.0000 
      5 O5'       -12.0570  -23.0390   28.0880 O.3       1 AMP401      0.0000 
      6 C5'       -12.1260  -23.8180   29.2750 C.3       1 AMP401      0.0000 
      7 C4'       -12.3320  -25.2780   28.9540 C.3       1 AMP401      0.0000 
      8 O4'       -13.7540  -25.5700   28.9240 O.3       1 AMP401      0.0000 
      9 C3'       -11.8170  -25.7550   27.5960 C.3       1 AMP401      0.0000 
     10 O3'       -10.4370  -26.0770   27.6010 O.3       1 AMP401      0.0000 
     11 C2'       -12.7180  -26.9400   27.3020 C.3       1 AMP401      0.0000 
     12 O2'       -12.3150  -28.0800   28.0520 O.3       1 AMP401      0.0000 
     13 C1'       -14.0490  -26.4340   27.8490 C.3       1 AMP401      0.0000 
     14 N9        -14.7960  -25.6460   26.8520 N.pl3     1 AMP401      0.0000 
     15 C8        -14.8300  -24.3000   26.8240 C.2       1 AMP401      0.0000 
     16 N7        -15.6140  -23.8500   25.8110 N.2       1 AMP401      0.0000 
     17 C5        -16.0850  -24.9350   25.1770 C.ar      1 AMP401      0.0000 
     18 C6        -16.9670  -25.1730   24.0270 C.ar      1 AMP401      0.0000 
     19 N6        -17.4510  -24.1120   23.3790 N.pl3     1 AMP401      0.0000 
     20 N1        -17.2280  -26.4480   23.6720 N.ar      1 AMP401      0.0000 
     21 C2        -16.7020  -27.4830   24.3430 C.ar      1 AMP401      0.0000 
     22 N3        -15.8920  -27.3360   25.4060 N.ar      1 AMP401      0.0000 
     23 C4        -15.5490  -26.1120   25.8550 C.ar      1 AMP401      0.0000 
     24 H5'1      -11.2010  -23.6980   29.8430 H         1 AMP401      0.0000 
     25 H5'2      -12.9500  -23.4620   29.8960 H         1 AMP401      0.0000 
     26 H4'       -11.8490  -25.8770   29.7380 H         1 AMP401      0.0000 
     27 H3'       -12.0140  -24.9710   26.8510 H         1 AMP401      0.0000 
     28 HO3'      -10.1710  -26.3710   26.7190 H         1 AMP401      0.0000 
     29 H2'       -12.7790  -27.1390   26.2230 H         1 AMP401      0.0000 
     30 HO2'      -11.4140  -28.3280   27.8020 H         1 AMP401      0.0000 
     31 H1'       -14.6490  -27.2870   28.1940 H         1 AMP401      0.0000 
     32 H8        -14.3050  -23.6600   27.5220 H         1 AMP401      0.0000 
     33 HN61      -18.0600  -24.2400   22.5830 H         1 AMP401      0.0000 
     34 HN62      -17.2210  -23.1800   23.6930 H         1 AMP401      0.0000 
     35 H2        -16.9460  -28.4860   24.0170 H         1 AMP401      0.0000 
@<TRIPOS>BOND
     1    1    2 ar   
     2    1    3 ar   
     3    1    4 ar   
     4    1    5 1    
     5    5    6 1    
     6    6    7 1    
     7    6   24 1    
     8    6   25 1    
     9    7    8 1    
    10    7    9 1    
    11    7   26 1    
    12    8   13 1    
    13    9   10 1    
    14    9   11 1    
    15    9   27 1    
    16   10   28 1    
    17   11   12 1    
    18   11   13 1    
    19   11   29 1    
    20   12   30 1    
    21   13   14 1    
    22   13   31 1    
    23   14   15 1    
    24   14   23 1    
    25   15   16 2    
    26   15   32 1    
    27   16   17 1    
    28   17   18 ar   
    29   17   23 ar   
    30   18   19 1    
    31   18   20 ar   
    32   19   33 1    
    33   19   34 1    
    34   20   21 ar   
    35   21   22 ar   
    36   21   35 1    
    37   22   23 ar   
@<TRIPOS>SUBSTRUCTURE
     1 AMP401      1 GROUP   
@<TRIPOS>SET
ATOM$ORANGE STATIC     ATOMS   COLORGROUP SYSTEM 
20 6 6 7 7 9 9 11 11 13 13 15 15 17 17 18 18 21 \
21 23 23 

