#    Name: 6jwq_2_AMP
#    Modification time : Fri May 22 19:34:02 2020

@<TRIPOS>MOLECULE
6jwq_2_AMP
   23    25     1     0     1
SMALL
NO_CHARGES


@<TRIPOS>ATOM
      1 P         -48.7280   -4.9230   12.6170 P.3       1 AMP801      0.0000 
      2 O1P       -47.7010   -4.1950   11.7730 O.co2     1 AMP801      0.0000 
      3 O2P       -48.2500   -5.2830   14.0090 O.co2     1 AMP801      0.0000 
      4 O3P       -50.1110   -4.3120   12.5790 O.co2     1 AMP801      0.0000 
      5 O5'       -48.9060   -6.3430   11.8730 O.3       1 AMP801      0.0000 
      6 C5'       -49.2190   -6.3600   10.4850 C.3       1 AMP801      0.0000 
      7 C4'       -49.6140   -7.7430   10.0040 C.3       1 AMP801      0.0000 
      8 O4'       -48.4710   -8.5850    9.9330 O.3       1 AMP801      0.0000 
      9 C3'       -50.6230   -8.4680   10.8830 C.3       1 AMP801      0.0000 
     10 O3'       -51.7780   -8.7320   10.0770 O.3       1 AMP801      0.0000 
     11 C2'       -49.9390   -9.7640   11.2780 C.3       1 AMP801      0.0000 
     12 O2'       -50.8310  -10.8710   11.2980 O.3       1 AMP801      0.0000 
     13 C1'       -48.9270   -9.9200   10.1570 C.3       1 AMP801      0.0000 
     14 N9        -47.7830  -10.8380   10.3940 N.pl3     1 AMP801      0.0000 
     15 C8        -47.3180  -11.6810    9.4520 C.2       1 AMP801      0.0000 
     16 N7        -46.2520  -12.4020    9.8850 N.2       1 AMP801      0.0000 
     17 C5        -46.0180  -12.0010   11.1390 C.ar      1 AMP801      0.0000 
     18 C6        -45.0350  -12.3580   12.1660 C.ar      1 AMP801      0.0000 
     19 N6        -44.1180  -13.2930   11.8970 N.pl3     1 AMP801      0.0000 
     20 N1        -45.0960  -11.7260   13.3530 N.ar      1 AMP801      0.0000 
     21 C2        -46.0310  -10.7750   13.6140 C.ar      1 AMP801      0.0000 
     22 N3        -46.9660  -10.3880   12.7180 N.ar      1 AMP801      0.0000 
     23 C4        -47.0110  -10.9610   11.4810 C.ar      1 AMP801      0.0000 
@<TRIPOS>BOND
     1    1    2 ar   
     2    1    3 ar   
     3    1    4 ar   
     4    1    5 1    
     5    5    6 1    
     6    6    7 1    
     7    7    8 1    
     8    7    9 1    
     9    8   13 1    
    10    9   10 1    
    11    9   11 1    
    12   11   12 1    
    13   11   13 1    
    14   13   14 1    
    15   14   15 1    
    16   14   23 1    
    17   15   16 2    
    18   16   17 1    
    19   17   18 ar   
    20   17   23 ar   
    21   18   19 1    
    22   18   20 ar   
    23   20   21 ar   
    24   21   22 ar   
    25   22   23 ar   
@<TRIPOS>SUBSTRUCTURE
     1 AMP801      1 GROUP   
@<TRIPOS>SET
ATOM$ORANGE STATIC     ATOMS   COLORGROUP SYSTEM 
20 6 6 7 7 9 9 11 11 13 13 15 15 17 17 18 18 21 \
21 23 23 

