#    Name: 6jwq_1_ATP
#    Modification time : Fri May 22 19:33:57 2020

@<TRIPOS>MOLECULE
6jwq_1_ATP
   31    33     1     0     1
SMALL
NO_CHARGES


@<TRIPOS>ATOM
      1 PG         28.1990   20.7970    7.6350 P.3       1 ATP802      0.0000 
      2 O1G        28.7670   19.4170    7.9220 O.co2     1 ATP802      0.0000 
      3 O2G        27.0360   21.2050    8.5210 O.co2     1 ATP802      0.0000 
      4 O3G        27.9610   21.0590    6.1670 O.co2     1 ATP802      0.0000 
      5 PB         30.7060   22.0190    7.0850 P.3       1 ATP802      0.0000 
      6 O1B        31.0290   20.6860    6.4250 O.co2     1 ATP802      0.0000 
      7 O2B        30.4580   23.2320    6.2080 O.co2     1 ATP802      0.0000 
      8 O3B        29.3990   21.8140    8.0210 O.3       1 ATP802      0.0000 
      9 PA         33.4620   22.0280    7.9240 P.3       1 ATP802      0.0000 
     10 O1A        33.6490   20.5330    7.7930 O.co2     1 ATP802      0.0000 
     11 O2A        34.2380   22.7900    8.9740 O.co2     1 ATP802      0.0000 
     12 O3A        31.8910   22.3640    8.1500 O.3       1 ATP802      0.0000 
     13 O5'        33.7720   22.7250    6.5050 O.3       1 ATP802      0.0000 
     14 C5'        34.1100   21.9590    5.3460 C.3       1 ATP802      0.0000 
     15 C4'        34.5030   22.8710    4.1880 C.3       1 ATP802      0.0000 
     16 O4'        33.3560   23.4830    3.5900 O.3       1 ATP802      0.0000 
     17 C3'        35.4260   24.0080    4.6160 C.3       1 ATP802      0.0000 
     18 O3'        36.6550   23.8930    3.8910 O.3       1 ATP802      0.0000 
     19 C2'        34.6840   25.2870    4.2680 C.3       1 ATP802      0.0000 
     20 O2'        35.5290   26.3260    3.7780 O.3       1 ATP802      0.0000 
     21 C1'        33.7540   24.7950    3.1750 C.3       1 ATP802      0.0000 
     22 N9         32.5840   25.6520    2.8660 N.pl3     1 ATP802      0.0000 
     23 C8         32.1530   25.8650    1.6070 C.2       1 ATP802      0.0000 
     24 N7         31.0650   26.6690    1.5700 N.2       1 ATP802      0.0000 
     25 C5         30.7730   26.9760    2.8440 C.ar      1 ATP802      0.0000 
     26 C6         29.7360   27.7850    3.5200 C.ar      1 ATP802      0.0000 
     27 N6         28.7900   28.4250    2.8020 N.pl3     1 ATP802      0.0000 
     28 N1         29.7830   27.8640    4.8710 N.ar      1 ATP802      0.0000 
     29 C2         30.7190   27.2170    5.6030 C.ar      1 ATP802      0.0000 
     30 N3         31.6920   26.4600    5.0590 N.ar      1 ATP802      0.0000 
     31 C4         31.7730   26.3040    3.7080 C.ar      1 ATP802      0.0000 
@<TRIPOS>BOND
     1    1    2 ar   
     2    1    3 ar   
     3    1    4 ar   
     4    1    8 1    
     5    5    6 ar   
     6    5    7 ar   
     7    5    8 1    
     8    5   12 1    
     9    9   10 ar   
    10    9   11 ar   
    11    9   12 1    
    12    9   13 1    
    13   13   14 1    
    14   14   15 1    
    15   15   16 1    
    16   15   17 1    
    17   16   21 1    
    18   17   18 1    
    19   17   19 1    
    20   19   20 1    
    21   19   21 1    
    22   21   22 1    
    23   22   23 1    
    24   22   31 1    
    25   23   24 2    
    26   24   25 1    
    27   25   26 ar   
    28   25   31 ar   
    29   26   27 1    
    30   26   28 ar   
    31   28   29 ar   
    32   29   30 ar   
    33   30   31 ar   
@<TRIPOS>SUBSTRUCTURE
     1 ATP802      1 GROUP   
@<TRIPOS>SET
ATOM$ORANGE STATIC     ATOMS   COLORGROUP SYSTEM 
20 14 14 15 15 17 17 19 19 21 21 23 23 25 25 26 26 29 \
29 31 31 

