#    Name: 6jwq_2_AMP_CAVITY_N1_12
#    Modification time : Fri May 22 19:34:03 2020

@<TRIPOS>MOLECULE
6jwq_2_AMP_CAVITY_N1_12
   73     0     7     0     0
SMALL
NO_CHARGES


@<TRIPOS>ATOM
      1 OG        -46.0900  -10.2200    9.9300 O.3       1 SER1        0.0000 
      2 OG        -45.1800   -7.9800    8.9900 O.3       1 SER1        0.0000 
      3 OG        -45.3200   -9.7400   11.8400 O.3       1 SER1        0.0000 
      4 N         -49.7300  -10.5900   10.3100 N.am      2 ALA2        0.0000 
      5 N         -50.4800   -9.2900   10.2900 N.am      2 ALA2        0.0000 
      6 N         -51.2300   -7.9900   10.2700 N.am      2 ALA2        0.0000 
      7 N         -50.1800  -10.8200   11.7300 N.am      2 ALA2        0.0000 
      8 N         -50.9300   -9.5200   11.7000 N.am      2 ALA2        0.0000 
      9 O         -46.5600  -12.2400    9.4500 O.2       2 ALA2        0.0000 
     10 N         -47.7600  -11.1700   10.8400 N.am      2 ALA2        0.0000 
     11 N         -48.5100   -9.8700   10.8200 N.am      2 ALA2        0.0000 
     12 N         -50.4600   -7.5100   12.1800 N.am      2 ALA2        0.0000 
     13 N         -51.2100   -6.2100   12.1600 N.am      2 ALA2        0.0000 
     14 O         -47.4600   -5.8600    7.0300 O.2       2 ALA2        0.0000 
     15 O         -45.3400  -11.5200    9.9500 O.2       2 ALA2        0.0000 
     16 N         -45.0400  -13.0500   11.3800 N.am      2 ALA2        0.0000 
     17 O         -46.2400   -5.1500    7.5400 O.2       2 ALA2        0.0000 
     18 O         -45.0100  -11.2700   13.2800 O.2       2 ALA2        0.0000 
     19 O         -45.4600  -11.5100   14.6900 O.2       2 ALA2        0.0000 
     20 O         -45.7700   -3.1400    8.0200 O.2       2 ALA2        0.0000 
     21 OD1       -48.4900   -8.0900   12.7100 O.co2     3 ASP3        0.0000 
     22 OD1       -49.2400   -6.8000   12.6900 O.co2     3 ASP3        0.0000 
     23 OD1       -48.9300   -8.3300   14.1200 O.co2     3 ASP3        0.0000 
     24 OD1       -45.9100   -4.9000   10.8600 O.co2     3 ASP3        0.0000 
     25 NZ        -45.7700   -9.9800   13.2600 N.4       4 LYS4        0.0000 
     26 NZ        -46.2100  -10.2100   14.6700 N.4       4 LYS4        0.0000 
     27 NZ        -46.9600   -8.9100   14.6500 N.4       4 LYS4        0.0000 
     28 CZ        -50.3400   -7.5300    7.4400 C.ar      5 PHE5        0.0000 
     29 CZ        -49.2800  -10.3500    8.9000 C.ar      5 PHE5        0.0000 
     30 CZ        -50.0400   -9.0600    8.8800 C.ar      5 PHE5        0.0000 
     31 CZ        -50.7900   -7.7600    8.8600 C.ar      5 PHE5        0.0000 
     32 CZ        -49.1200   -6.8100    7.9400 C.ar      5 PHE5        0.0000 
     33 CZ        -47.3100  -10.9400    9.4200 C.ar      5 PHE5        0.0000 
     34 CZ        -48.0700   -9.6400    9.4000 C.ar      5 PHE5        0.0000 
     35 CZ        -48.8200   -8.3400    9.3800 C.ar      5 PHE5        0.0000 
     36 CZ        -49.5700   -7.0400    9.3600 C.ar      5 PHE5        0.0000 
     37 CZ        -46.7100   -7.1600    7.0600 C.ar      5 PHE5        0.0000 
     38 CZ        -45.6500   -9.9900    8.5100 C.ar      5 PHE5        0.0000 
     39 CZ        -46.4000   -8.6900    8.4900 C.ar      5 PHE5        0.0000 
     40 CZ        -47.1500   -7.3900    8.4700 C.ar      5 PHE5        0.0000 
     41 CZ        -47.9000   -6.1000    8.4500 C.ar      5 PHE5        0.0000 
     42 CZ        -46.8500   -8.9300    9.9000 C.ar      5 PHE5        0.0000 
     43 CZ        -47.6000   -7.6300    9.8800 C.ar      5 PHE5        0.0000 
     44 CZ        -45.7900  -11.7500   11.3600 C.ar      5 PHE5        0.0000 
     45 CZ        -45.4900   -6.4500    7.5600 C.ar      5 PHE5        0.0000 
     46 CZ        -44.2700   -5.7300    8.0600 C.ar      5 PHE5        0.0000 
     47 CZ        -45.0200   -4.4300    8.0400 C.ar      5 PHE5        0.0000 
     48 CZ        -44.7100   -5.9600    9.4700 C.ar      5 PHE5        0.0000 
     49 CA        -47.0100  -12.4700   10.8600 C.3       6 GLY6        0.0000 
     50 CA        -47.4500  -12.7000   12.2700 C.3       6 GLY6        0.0000 
     51 CA        -48.2000  -11.4100   12.2500 C.3       6 GLY6        0.0000 
     52 CA        -48.9600  -10.1100   12.2300 C.3       6 GLY6        0.0000 
     53 CA        -49.4000  -10.3400   13.6400 C.3       6 GLY6        0.0000 
     54 CA        -50.1500   -9.0400   13.6200 C.3       6 GLY6        0.0000 
     55 CA        -45.4800  -13.2900   12.8000 C.3       6 GLY6        0.0000 
     56 CA        -46.2300  -11.9900   12.7800 C.3       6 GLY6        0.0000 
     57 CA        -46.9900  -10.6900   12.7500 C.3       6 GLY6        0.0000 
     58 CA        -46.6800  -12.2200   14.1900 C.3       6 GLY6        0.0000 
     59 CA        -47.4300  -10.9200   14.1700 C.3       6 GLY6        0.0000 
     60 CA        -48.1800   -9.6300   14.1400 C.3       6 GLY6        0.0000 
     61 CA        -45.0400   -6.2100    6.1500 C.3       6 GLY6        0.0000 
     62 CA        -44.7400   -7.7400    7.5800 C.3       6 GLY6        0.0000 
     63 DU        -49.2600   -8.5800   10.7900 H         7 CUB7        0.0000 
     64 DU        -50.0100   -7.2800   10.7700 H         7 CUB7        0.0000 
     65 DU        -49.7100   -8.8100   12.2100 H         7 CUB7        0.0000 
     66 DU        -48.3500   -6.3300    9.8600 H         7 CUB7        0.0000 
     67 DU        -46.5400  -10.4600   11.3400 H         7 CUB7        0.0000 
     68 DU        -47.2900   -9.1600   11.3200 H         7 CUB7        0.0000 
     69 DU        -48.0400   -7.8600   11.3000 H         7 CUB7        0.0000 
     70 DU        -48.7900   -6.5600   11.2700 H         7 CUB7        0.0000 
     71 DU        -47.7400   -9.3900   12.7300 H         7 CUB7        0.0000 
     72 DU        -45.9300   -6.6800    8.9700 H         7 CUB7        0.0000 
     73 DU        -46.6800   -5.3800    8.9500 H         7 CUB7        0.0000 
@<TRIPOS>BOND
@<TRIPOS>SUBSTRUCTURE
     1 SER1        1 GROUP   
     2 ALA2        4 GROUP   
     3 ASP3       21 GROUP   
     4 LYS4       25 GROUP   
     5 PHE5       28 GROUP   
     6 GLY6       49 GROUP   
     7 CUB7       63 GROUP   
@<TRIPOS>SET

