#    Name: 6jwq_1_ATP_CAVITY_N1_6
#    Modification time : Fri May 22 19:33:58 2020

@<TRIPOS>MOLECULE
6jwq_1_ATP_CAVITY_N1_6
   72     0     7     0     0
SMALL
NO_CHARGES


@<TRIPOS>ATOM
      1 OG         29.6300   23.0900    2.6800 O.3       1 SER1        0.0000 
      2 OG         29.9300   21.5600    4.1100 O.3       1 SER1        0.0000 
      3 OG         29.4900   21.3300    5.5300 O.3       1 SER1        0.0000 
      4 OG         30.8500   23.8100    3.1800 O.3       1 SER1        0.0000 
      5 OG         31.1500   22.2800    4.6200 O.3       1 SER1        0.0000 
      6 OG         30.4000   23.5700    4.5900 O.3       1 SER1        0.0000 
      7 O          29.3200   24.6300    1.2400 O.2       2 ALA2        0.0000 
      8 O          31.8800   19.2000    2.7400 O.2       2 ALA2        0.0000 
      9 O          30.9900   25.5700    0.3300 O.2       2 ALA2        0.0000 
     10 N          29.7900   26.6400    1.7200 N.am      2 ALA2        0.0000 
     11 O          32.2000   26.2900    0.8300 O.2       2 ALA2        0.0000 
     12 N          31.7600   26.0500    2.2500 N.am      2 ALA2        0.0000 
     13 O          31.0100   27.3500    2.2200 O.2       2 ALA2        0.0000 
     14 N          29.8100   28.4200    3.6200 N.am      2 ALA2        0.0000 
     15 O          29.3700   28.1800    5.0300 O.2       2 ALA2        0.0000 
     16 N          33.7300   25.4700    2.7700 N.am      2 ALA2        0.0000 
     17 N          32.9800   26.7700    2.7500 N.am      2 ALA2        0.0000 
     18 N          36.4500   23.5900    3.3200 N.am      2 ALA2        0.0000 
     19 N          35.7000   24.8900    3.3000 N.am      2 ALA2        0.0000 
     20 N          36.7600   22.0600    4.7500 N.am      2 ALA2        0.0000 
     21 N          35.2600   24.6500    4.7100 N.am      2 ALA2        0.0000 
     22 OD1        29.0200   19.3200    5.0500 O.co2     3 ASP3        0.0000 
     23 OD1        30.7100   22.0400    6.0300 O.co2     3 ASP3        0.0000 
     24 OD1        33.5900   23.7100    5.6200 O.co2     3 ASP3        0.0000 
     25 OD1        32.8400   25.0000    5.6000 O.co2     3 ASP3        0.0000 
     26 OD1        34.8100   24.4200    6.1200 O.co2     3 ASP3        0.0000 
     27 OD1        34.0600   25.7200    6.1000 O.co2     3 ASP3        0.0000 
     28 NZ         31.6200   24.2900    5.1000 N.4       4 LYS4        0.0000 
     29 NZ         30.8700   25.5900    5.0700 N.4       4 LYS4        0.0000 
     30 CZ         29.9100   19.7800    2.2200 C.ar      5 PHE5        0.0000 
     31 CZ         29.1600   21.0800    2.2000 C.ar      5 PHE5        0.0000 
     32 CZ         29.4600   19.5500    3.6300 C.ar      5 PHE5        0.0000 
     33 CZ         28.7100   20.8500    3.6100 C.ar      5 PHE5        0.0000 
     34 CZ         28.2700   20.6100    5.0200 C.ar      5 PHE5        0.0000 
     35 CZ         30.0700   23.3300    1.2600 C.ar      5 PHE5        0.0000 
     36 CZ         31.1300   20.5000    2.7200 C.ar      5 PHE5        0.0000 
     37 CZ         30.3800   21.8000    2.7000 C.ar      5 PHE5        0.0000 
     38 CZ         31.2900   24.0400    1.7700 C.ar      5 PHE5        0.0000 
     39 CZ         30.5400   25.3400    1.7400 C.ar      5 PHE5        0.0000 
     40 CZ         33.1000   19.9100    3.2500 C.ar      5 PHE5        0.0000 
     41 CZ         32.3500   21.2100    3.2200 C.ar      5 PHE5        0.0000 
     42 CZ         31.6000   22.5100    3.2000 C.ar      5 PHE5        0.0000 
     43 CZ         30.0900   25.1100    3.1600 C.ar      5 PHE5        0.0000 
     44 CZ         32.9600   24.9900    0.8600 C.ar      5 PHE5        0.0000 
     45 CZ         34.7700   20.8600    2.3400 C.ar      5 PHE5        0.0000 
     46 CZ         32.5100   24.7600    2.2700 C.ar      5 PHE5        0.0000 
     47 CZ         33.5700   21.9300    3.7300 C.ar      5 PHE5        0.0000 
     48 CZ         32.8200   23.2300    3.7000 C.ar      5 PHE5        0.0000 
     49 CZ         31.3100   25.8200    3.6600 C.ar      5 PHE5        0.0000 
     50 CZ         30.5600   27.1200    3.6400 C.ar      5 PHE5        0.0000 
     51 CZ         30.1200   26.8900    5.0500 C.ar      5 PHE5        0.0000 
     52 CZ         35.9800   21.5800    2.8400 C.ar      5 PHE5        0.0000 
     53 CZ         35.2300   22.8800    2.8200 C.ar      5 PHE5        0.0000 
     54 CZ         34.4800   24.1700    2.7900 C.ar      5 PHE5        0.0000 
     55 CA         30.2600   28.6500    2.2000 C.3       6 GLY6        0.0000 
     56 CA         32.2300   28.0700    2.7300 C.3       6 GLY6        0.0000 
     57 CA         32.5300   26.5400    4.1600 C.3       6 GLY6        0.0000 
     58 CA         31.7800   27.8300    4.1400 C.3       6 GLY6        0.0000 
     59 CA         31.0300   29.1300    4.1200 C.3       6 GLY6        0.0000 
     60 CA         32.0900   26.3000    5.5800 C.3       6 GLY6        0.0000 
     61 CA         31.3400   27.6000    5.5500 C.3       6 GLY6        0.0000 
     62 CA         30.5800   28.9000    5.5300 C.3       6 GLY6        0.0000 
     63 CA         34.5000   25.9500    4.6900 C.3       6 GLY6        0.0000 
     64 CA         33.3100   27.0200    6.0800 C.3       6 GLY6        0.0000 
     65 DU         30.6800   20.2600    4.1400 H         7 CUB7        0.0000 
     66 DU         31.9000   20.9800    4.6400 H         7 CUB7        0.0000 
     67 DU         32.0700   24.5200    3.6800 H         7 CUB7        0.0000 
     68 DU         33.1200   21.6900    5.1400 H         7 CUB7        0.0000 
     69 DU         32.3700   22.9900    5.1200 H         7 CUB7        0.0000 
     70 DU         34.7900   22.6400    4.2300 H         7 CUB7        0.0000 
     71 DU         34.0400   23.9400    4.2100 H         7 CUB7        0.0000 
     72 DU         33.2800   25.2400    4.1800 H         7 CUB7        0.0000 
@<TRIPOS>BOND
@<TRIPOS>SUBSTRUCTURE
     1 SER1        1 GROUP   
     2 ALA2        7 GROUP   
     3 ASP3       22 GROUP   
     4 LYS4       28 GROUP   
     5 PHE5       30 GROUP   
     6 GLY6       55 GROUP   
     7 CUB7       65 GROUP   
@<TRIPOS>SET

