#    Name: 6j46_2_SAH
#    Modification time : Fri May 22 19:35:18 2020

@<TRIPOS>MOLECULE
6j46_2_SAH
   26    28     1     0     0
SMALL
NO_CHARGES


@<TRIPOS>ATOM
      1 N          24.7910  -15.9210  117.5100 N.4       1 SAH401      0.0000 
      2 CA         24.9300  -14.4750  117.3720 C.3       1 SAH401      0.0000 
      3 CB         23.8170  -13.9140  116.4900 C.3       1 SAH401      0.0000 
      4 CG         22.4550  -14.5810  116.6640 C.3       1 SAH401      0.0000 
      5 SD         21.1340  -13.7030  115.7850 S.3       1 SAH401      0.0000 
      6 C          24.9290  -13.7870  118.7340 C.2       1 SAH401      0.0000 
      7 O          24.1890  -14.1700  119.6400 O.co2     1 SAH401      0.0000 
      8 OXT        25.6700  -12.8300  118.9640 O.co2     1 SAH401      0.0000 
      9 C5'        20.9070  -15.0930  114.6450 C.3       1 SAH401      0.0000 
     10 C4'        21.7670  -14.9600  113.3910 C.3       1 SAH401      0.0000 
     11 O4'        21.6310  -16.0980  112.5580 O.3       1 SAH401      0.0000 
     12 C3'        21.3850  -13.7500  112.5510 C.3       1 SAH401      0.0000 
     13 O3'        22.4680  -12.8540  112.5040 O.3       1 SAH401      0.0000 
     14 C2'        21.1250  -14.2870  111.1590 C.3       1 SAH401      0.0000 
     15 O2'        21.7850  -13.5110  110.1890 O.3       1 SAH401      0.0000 
     16 C1'        21.7060  -15.6880  111.2070 C.3       1 SAH401      0.0000 
     17 N9         20.9870  -16.6060  110.3060 N.pl3     1 SAH401      0.0000 
     18 C8         19.6330  -16.7180  110.1370 C.2       1 SAH401      0.0000 
     19 N7         19.3990  -17.6790  109.2120 N.2       1 SAH401      0.0000 
     20 C5         20.5830  -18.1750  108.7880 C.ar      1 SAH401      0.0000 
     21 C6         20.9170  -19.1590  107.8650 C.ar      1 SAH401      0.0000 
     22 N6         19.9670  -19.8120  107.2030 N.pl3     1 SAH401      0.0000 
     23 N1         22.2450  -19.4580  107.6390 N.ar      1 SAH401      0.0000 
     24 C2         23.2310  -18.7810  108.3250 C.ar      1 SAH401      0.0000 
     25 N3         22.8920  -17.8050  109.2400 N.ar      1 SAH401      0.0000 
     26 C4         21.5900  -17.5050  109.4670 C.ar      1 SAH401      0.0000 
@<TRIPOS>BOND
     1    1    2 1    
     2    2    3 1    
     3    2    6 1    
     4    3    4 1    
     5    4    5 1    
     6    5    9 1    
     7    6    7 ar   
     8    6    8 ar   
     9    9   10 1    
    10   10   11 1    
    11   10   12 1    
    12   11   16 1    
    13   12   13 1    
    14   12   14 1    
    15   14   15 1    
    16   14   16 1    
    17   16   17 1    
    18   17   18 1    
    19   17   26 1    
    20   18   19 2    
    21   19   20 1    
    22   20   21 ar   
    23   20   26 ar   
    24   21   22 1    
    25   21   23 ar   
    26   23   24 ar   
    27   24   25 ar   
    28   25   26 ar   
@<TRIPOS>SUBSTRUCTURE
     1 SAH401      1 GROUP   
@<TRIPOS>SET

