#    Name: 6j46_1_SAH
#    Modification time : Fri May 22 19:35:13 2020

@<TRIPOS>MOLECULE
6j46_1_SAH
   26    28     1     0     0
SMALL
NO_CHARGES


@<TRIPOS>ATOM
      1 N         -21.2740    4.4650  137.1510 N.4       1 SAH401      0.0000 
      2 CA        -20.6150    3.2100  137.5030 C.3       1 SAH401      0.0000 
      3 CB        -19.7790    2.7120  136.3300 C.3       1 SAH401      0.0000 
      4 CG        -20.4220    3.0550  134.9940 C.3       1 SAH401      0.0000 
      5 SD        -19.3900    2.6860  133.5550 S.3       1 SAH401      0.0000 
      6 C         -19.7560    3.3560  138.7540 C.2       1 SAH401      0.0000 
      7 O         -20.0540    4.1710  139.6280 O.co2     1 SAH401      0.0000 
      8 OXT       -18.7580    2.6570  138.9290 O.co2     1 SAH401      0.0000 
      9 C5'       -20.3420    3.8790  132.5760 C.3       1 SAH401      0.0000 
     10 C4'       -21.8480    3.6350  132.6270 C.3       1 SAH401      0.0000 
     11 O4'       -22.5250    4.6590  131.9250 O.3       1 SAH401      0.0000 
     12 C3'       -22.2400    2.3160  131.9770 C.3       1 SAH401      0.0000 
     13 O3'       -23.0510    1.5860  132.8690 O.3       1 SAH401      0.0000 
     14 C2'       -23.0530    2.6940  130.7570 C.3       1 SAH401      0.0000 
     15 O2'       -24.1450    1.8240  130.5910 O.3       1 SAH401      0.0000 
     16 C1'       -23.5260    4.0950  131.0970 C.3       1 SAH401      0.0000 
     17 N9        -23.7670    4.9290  129.9060 N.pl3     1 SAH401      0.0000 
     18 C8        -23.0010    5.0250  128.7740 C.2       1 SAH401      0.0000 
     19 N7        -23.5910    5.9100  127.9360 N.2       1 SAH401      0.0000 
     20 C5        -24.7190    6.3770  128.5180 C.ar      1 SAH401      0.0000 
     21 C6        -25.6840    7.2900  128.1090 C.ar      1 SAH401      0.0000 
     22 N6        -25.5930    7.8890  126.9250 N.pl3     1 SAH401      0.0000 
     23 N1        -26.7430    7.5720  128.9450 N.ar      1 SAH401      0.0000 
     24 C2        -26.8480    6.9520  130.1720 C.ar      1 SAH401      0.0000 
     25 N3        -25.8860    6.0490  130.5720 N.ar      1 SAH401      0.0000 
     26 C4        -24.8410    5.7640  129.7560 C.ar      1 SAH401      0.0000 
@<TRIPOS>BOND
     1    1    2 1    
     2    2    3 1    
     3    2    6 1    
     4    3    4 1    
     5    4    5 1    
     6    5    9 1    
     7    6    7 ar   
     8    6    8 ar   
     9    9   10 1    
    10   10   11 1    
    11   10   12 1    
    12   11   16 1    
    13   12   13 1    
    14   12   14 1    
    15   14   15 1    
    16   14   16 1    
    17   16   17 1    
    18   17   18 1    
    19   17   26 1    
    20   18   19 2    
    21   19   20 1    
    22   20   21 ar   
    23   20   26 ar   
    24   21   22 1    
    25   21   23 ar   
    26   23   24 ar   
    27   24   25 ar   
    28   25   26 ar   
@<TRIPOS>SUBSTRUCTURE
     1 SAH401      1 GROUP   
@<TRIPOS>SET

