#    Name: 6s7p_5_CLR_CAVITY_N1_4
#    Modification time : Fri May 22 19:39:14 2020

@<TRIPOS>MOLECULE
6s7p_5_CLR_CAVITY_N1_4
   35     0     4     0     0
SMALL
NO_CHARGES


@<TRIPOS>ATOM
      1 N         115.5300  136.4900  127.7500 N.am      1 ALA2        0.0000 
      2 N         116.1200  137.4000  128.7800 N.am      1 ALA2        0.0000 
      3 N         114.7600  138.9100  130.3900 N.am      1 ALA2        0.0000 
      4 CZ        115.1600  135.1100  135.7000 C.ar      2 PHE5        0.0000 
      5 CA        118.4900  136.3700  126.1700 C.3       3 GLY6        0.0000 
      6 CA        116.5400  136.9700  126.7500 C.3       3 GLY6        0.0000 
      7 CA        120.0200  136.2000  127.6300 C.3       3 GLY6        0.0000 
      8 CA        115.0500  135.3400  131.2100 C.3       3 GLY6        0.0000 
      9 CA        116.0600  135.8300  130.2100 C.3       3 GLY6        0.0000 
     10 CA        118.0700  136.8000  128.2000 C.3       3 GLY6        0.0000 
     11 CA        119.0800  137.2800  127.2000 C.3       3 GLY6        0.0000 
     12 CA        115.1100  136.9100  129.7800 C.3       3 GLY6        0.0000 
     13 CA        117.1300  137.8900  127.7800 C.3       3 GLY6        0.0000 
     14 CA        115.5800  134.6800  133.6600 C.3       3 GLY6        0.0000 
     15 CA        116.5800  135.1700  132.6600 C.3       3 GLY6        0.0000 
     16 CA        120.6100  137.1100  128.6600 C.3       3 GLY6        0.0000 
     17 CA        121.6200  137.6000  127.6600 C.3       3 GLY6        0.0000 
     18 CA        114.7000  137.3400  131.8200 C.3       3 GLY6        0.0000 
     19 CA        117.7100  138.8000  128.8200 C.3       3 GLY6        0.0000 
     20 CA        123.1500  137.4200  129.1200 C.3       3 GLY6        0.0000 
     21 CA        121.2000  138.0200  129.6900 C.3       3 GLY6        0.0000 
     22 CA        122.2000  138.5100  128.6900 C.3       3 GLY6        0.0000 
     23 CA        122.7900  139.4200  129.7300 C.3       3 GLY6        0.0000 
     24 DU        118.0100  135.2300  129.6300 H         4 CUB7        0.0000 
     25 DU        119.0100  135.7100  128.6300 H         4 CUB7        0.0000 
     26 DU        117.0600  136.3100  129.2000 H         4 CUB7        0.0000 
     27 DU        117.5900  135.6600  131.6600 H         4 CUB7        0.0000 
     28 DU        118.6000  136.1400  130.6600 H         4 CUB7        0.0000 
     29 DU        119.6000  136.6300  129.6600 H         4 CUB7        0.0000 
     30 DU        115.6400  136.2600  132.2400 H         4 CUB7        0.0000 
     31 DU        116.6500  136.7400  131.2400 H         4 CUB7        0.0000 
     32 DU        118.6600  137.7100  129.2400 H         4 CUB7        0.0000 
     33 DU        119.6600  138.2000  128.2400 H         4 CUB7        0.0000 
     34 DU        116.1700  135.6000  134.7000 H         4 CUB7        0.0000 
     35 DU        120.1900  137.5400  130.6900 H         4 CUB7        0.0000 
@<TRIPOS>BOND
@<TRIPOS>SUBSTRUCTURE
     1 ALA2        1 GROUP   
     2 PHE5        4 GROUP   
     3 GLY6        5 GROUP   
     4 CUB7       24 GROUP   
@<TRIPOS>SET

