#    Name: 6s7p_10_ATP
#    Modification time : Fri May 22 19:39:28 2020

@<TRIPOS>MOLECULE
6s7p_10_ATP
   31    33     1     0     1
SMALL
NO_CHARGES


@<TRIPOS>ATOM
      1 PG         92.1050   99.1360  170.6410 P.3       1 ATP1302     0.0000 
      2 O1G        91.6770   98.8750  172.0540 O.co2     1 ATP1302     0.0000 
      3 O2G        93.5920   99.3130  170.4750 O.co2     1 ATP1302     0.0000 
      4 O3G        91.4550   98.2180  169.6430 O.co2     1 ATP1302     0.0000 
      5 PB         91.7380  101.8780  171.1780 P.3       1 ATP1302     0.0000 
      6 O1B        90.8310  101.7830  172.3630 O.co2     1 ATP1302     0.0000 
      7 O2B        93.2190  102.0190  171.3650 O.co2     1 ATP1302     0.0000 
      8 O3B        91.4570  100.5670  170.3030 O.3       1 ATP1302     0.0000 
      9 PA         92.1440  104.2870  169.7540 P.3       1 ATP1302     0.0000 
     10 O1A        92.4590  105.1410  170.9270 O.co2     1 ATP1302     0.0000 
     11 O2A        93.2900  103.7570  168.9510 O.co2     1 ATP1302     0.0000 
     12 O3A        91.2050  103.0830  170.2580 O.3       1 ATP1302     0.0000 
     13 O5'        91.1930  105.1580  168.8100 O.3       1 ATP1302     0.0000 
     14 C5'        89.7790  105.0360  168.8690 C.3       1 ATP1302     0.0000 
     15 C4'        89.1730  105.7130  167.6560 C.3       1 ATP1302     0.0000 
     16 O4'        90.0280  106.7580  167.2250 O.3       1 ATP1302     0.0000 
     17 C3'        89.1080  104.7360  166.5140 C.3       1 ATP1302     0.0000 
     18 O3'        87.7740  104.7030  166.0290 O.3       1 ATP1302     0.0000 
     19 C2'        89.9940  105.2780  165.4280 C.3       1 ATP1302     0.0000 
     20 O2'        89.2670  105.2000  164.2080 O.3       1 ATP1302     0.0000 
     21 C1'        90.2340  106.7130  165.8190 C.3       1 ATP1302     0.0000 
     22 N9         91.6100  107.1640  165.5380 N.pl3     1 ATP1302     0.0000 
     23 C8         92.7100  106.6620  166.1010 C.2       1 ATP1302     0.0000 
     24 N7         93.8160  107.2940  165.6540 N.2       1 ATP1302     0.0000 
     25 C5         93.4210  108.2300  164.7850 C.ar      1 ATP1302     0.0000 
     26 C6         94.0870  109.2470  163.9550 C.ar      1 ATP1302     0.0000 
     27 N6         95.4310  109.3770  163.9770 N.pl3     1 ATP1302     0.0000 
     28 N1         93.3190  110.0340  163.1850 N.ar      1 ATP1302     0.0000 
     29 C2         91.9870  109.9000  163.1660 C.ar      1 ATP1302     0.0000 
     30 N3         91.3200  108.9990  163.8980 N.ar      1 ATP1302     0.0000 
     31 C4         91.9670  108.1430  164.7130 C.ar      1 ATP1302     0.0000 
@<TRIPOS>BOND
     1    1    2 ar   
     2    1    3 ar   
     3    1    4 ar   
     4    1    8 1    
     5    5    6 ar   
     6    5    7 ar   
     7    5    8 1    
     8    5   12 1    
     9    9   10 ar   
    10    9   11 ar   
    11    9   12 1    
    12    9   13 1    
    13   13   14 1    
    14   14   15 1    
    15   15   16 1    
    16   15   17 1    
    17   16   21 1    
    18   17   18 1    
    19   17   19 1    
    20   19   20 1    
    21   19   21 1    
    22   21   22 1    
    23   22   23 1    
    24   22   31 1    
    25   23   24 2    
    26   24   25 1    
    27   25   26 ar   
    28   25   31 ar   
    29   26   27 1    
    30   26   28 ar   
    31   28   29 ar   
    32   29   30 ar   
    33   30   31 ar   
@<TRIPOS>SUBSTRUCTURE
     1 ATP1302     1 GROUP   
@<TRIPOS>SET
ATOM$ORANGE STATIC     ATOMS   COLORGROUP SYSTEM 
20 14 14 15 15 17 17 19 19 21 21 23 23 25 25 26 26 29 \
29 31 31 

