#    Name: 6s7p_5_CLR
#    Modification time : Fri May 22 19:39:14 2020

@<TRIPOS>MOLECULE
6s7p_5_CLR
   28    31     1     0     0
SMALL
NO_CHARGES


@<TRIPOS>ATOM
      1 C1        114.4780  137.9510  132.6350 C.3       1 CLR1308     0.0000 
      2 C2        113.3860  137.7030  133.6790 C.3       1 CLR1308     0.0000 
      3 C3        113.9780  137.7870  135.0810 C.3       1 CLR1308     0.0000 
      4 C4        114.3880  139.2390  135.3070 C.3       1 CLR1308     0.0000 
      5 C5        115.4330  139.6030  134.2690 C.2       1 CLR1308     0.0000 
      6 C6        116.3850  140.4030  134.6350 C.2       1 CLR1308     0.0000 
      7 C7        117.6420  140.5950  133.8360 C.3       1 CLR1308     0.0000 
      8 C8        117.3440  140.5210  132.3350 C.3       1 CLR1308     0.0000 
      9 C9        116.4730  139.3020  132.0250 C.3       1 CLR1308     0.0000 
     10 C10       115.1800  139.3000  132.8280 C.3       1 CLR1308     0.0000 
     11 C11       116.2150  139.2130  130.5250 C.3       1 CLR1308     0.0000 
     12 C12       117.5350  139.1070  129.7520 C.3       1 CLR1308     0.0000 
     13 C13       118.4440  140.2990  130.0600 C.3       1 CLR1308     0.0000 
     14 C14       118.6590  140.3190  131.6040 C.3       1 CLR1308     0.0000 
     15 C15       119.6980  141.4320  131.7880 C.3       1 CLR1308     0.0000 
     16 C16       120.6030  141.2800  130.5340 C.3       1 CLR1308     0.0000 
     17 C17       119.9020  140.2630  129.5870 C.3       1 CLR1308     0.0000 
     18 C18       117.7780  141.6050  129.6040 C.3       1 CLR1308     0.0000 
     19 C19       114.2740  140.4080  132.2990 C.3       1 CLR1308     0.0000 
     20 C20       120.0890  140.5890  128.0890 C.3       1 CLR1308     0.0000 
     21 C21       120.2080  139.2870  127.2930 C.3       1 CLR1308     0.0000 
     22 C22       121.3670  141.3850  127.8030 C.3       1 CLR1308     0.0000 
     23 C23       121.3980  141.7930  126.3310 C.3       1 CLR1308     0.0000 
     24 C24       122.8370  141.8170  125.8160 C.3       1 CLR1308     0.0000 
     25 C25       122.8430  142.2570  124.3530 C.3       1 CLR1308     0.0000 
     26 C26       124.2800  142.3360  123.8370 C.3       1 CLR1308     0.0000 
     27 C27       122.0410  141.2710  123.5020 C.3       1 CLR1308     0.0000 
     28 O1        112.9890  137.4120  136.0420 O.3       1 CLR1308     0.0000 
@<TRIPOS>BOND
     1    1    2 1    
     2    1   10 1    
     3    2    3 1    
     4    3    4 1    
     5    3   28 1    
     6    4    5 1    
     7    5    6 2    
     8    5   10 1    
     9    6    7 1    
    10    7    8 1    
    11    8    9 1    
    12    8   14 1    
    13    9   10 1    
    14    9   11 1    
    15   10   19 1    
    16   11   12 1    
    17   12   13 1    
    18   13   14 1    
    19   13   17 1    
    20   13   18 1    
    21   14   15 1    
    22   15   16 1    
    23   16   17 1    
    24   17   20 1    
    25   20   21 1    
    26   20   22 1    
    27   22   23 1    
    28   23   24 1    
    29   24   25 1    
    30   25   26 1    
    31   25   27 1    
@<TRIPOS>SUBSTRUCTURE
     1 CLR1308     1 GROUP   
@<TRIPOS>SET

