#    Name: 6s7p_9_ATP
#    Modification time : Fri May 22 19:39:21 2020

@<TRIPOS>MOLECULE
6s7p_9_ATP
   31    33     1     0     1
SMALL
NO_CHARGES


@<TRIPOS>ATOM
      1 PG        106.7230   85.3280  166.0260 P.3       1 ATP1301     0.0000 
      2 O1G       105.4720   84.5930  165.6200 O.co2     1 ATP1301     0.0000 
      3 O2G       106.5380   86.5370  166.8840 O.co2     1 ATP1301     0.0000 
      4 O3G       107.6920   85.5780  164.9120 O.co2     1 ATP1301     0.0000 
      5 PB        108.4820   83.2200  166.5430 P.3       1 ATP1301     0.0000 
      6 O1B       108.6100   82.3030  167.7190 O.co2     1 ATP1301     0.0000 
      7 O2B       107.9630   82.7090  165.2380 O.co2     1 ATP1301     0.0000 
      8 O3B       107.5120   84.3800  167.0500 O.3       1 ATP1301     0.0000 
      9 PA        110.7180   83.9670  164.9590 P.3       1 ATP1301     0.0000 
     10 O1A       110.3970   85.1470  164.0930 O.co2     1 ATP1301     0.0000 
     11 O2A       110.6820   82.5920  164.4050 O.co2     1 ATP1301     0.0000 
     12 O3A       109.8740   83.9870  166.3250 O.3       1 ATP1301     0.0000 
     13 O5'       112.2070   84.1440  165.4810 O.3       1 ATP1301     0.0000 
     14 C5'       113.1090   83.0640  165.3570 C.3       1 ATP1301     0.0000 
     15 C4'       114.5150   83.5900  165.5080 C.3       1 ATP1301     0.0000 
     16 O4'       114.9310   84.1110  164.2640 O.3       1 ATP1301     0.0000 
     17 C3'       114.5850   84.7170  166.4990 C.3       1 ATP1301     0.0000 
     18 O3'       115.5970   84.3760  167.4360 O.3       1 ATP1301     0.0000 
     19 C2'       115.0150   85.9380  165.7280 C.3       1 ATP1301     0.0000 
     20 O2'       116.1060   86.5620  166.3970 O.3       1 ATP1301     0.0000 
     21 C1'       115.4770   85.4130  164.3930 C.3       1 ATP1301     0.0000 
     22 N9        114.9770   86.2100  163.2570 N.pl3     1 ATP1301     0.0000 
     23 C8        113.6960   86.4690  162.9820 C.2       1 ATP1301     0.0000 
     24 N7        113.5770   87.2130  161.8640 N.2       1 ATP1301     0.0000 
     25 C5        114.8150   87.4220  161.4050 C.ar      1 ATP1301     0.0000 
     26 C6        115.4140   88.1290  160.2630 C.ar      1 ATP1301     0.0000 
     27 N6        114.6280   88.7670  159.3710 N.pl3     1 ATP1301     0.0000 
     28 N1        116.7560   88.1120  160.1490 N.ar      1 ATP1301     0.0000 
     29 C2        117.5300   87.4800  161.0390 C.ar      1 ATP1301     0.0000 
     30 N3        117.0520   86.8170  162.0950 N.ar      1 ATP1301     0.0000 
     31 C4        115.7310   86.7580  162.3250 C.ar      1 ATP1301     0.0000 
@<TRIPOS>BOND
     1    1    2 ar   
     2    1    3 ar   
     3    1    4 ar   
     4    1    8 1    
     5    5    6 ar   
     6    5    7 ar   
     7    5    8 1    
     8    5   12 1    
     9    9   10 ar   
    10    9   11 ar   
    11    9   12 1    
    12    9   13 1    
    13   13   14 1    
    14   14   15 1    
    15   15   16 1    
    16   15   17 1    
    17   16   21 1    
    18   17   18 1    
    19   17   19 1    
    20   19   20 1    
    21   19   21 1    
    22   21   22 1    
    23   22   23 1    
    24   22   31 1    
    25   23   24 2    
    26   24   25 1    
    27   25   26 ar   
    28   25   31 ar   
    29   26   27 1    
    30   26   28 ar   
    31   28   29 ar   
    32   29   30 ar   
    33   30   31 ar   
@<TRIPOS>SUBSTRUCTURE
     1 ATP1301     1 GROUP   
@<TRIPOS>SET
ATOM$ORANGE STATIC     ATOMS   COLORGROUP SYSTEM 
20 14 14 15 15 17 17 19 19 21 21 23 23 25 25 26 26 29 \
29 31 31 

