#    Name: 6jf3_2_BB2_CAVITY_N1_ALL
#    Modification time : Fri May 22 19:35:30 2020

@<TRIPOS>MOLECULE
6jf3_2_BB2_CAVITY_N1_ALL
   77     0     7     0     0
SMALL
NO_CHARGES


@<TRIPOS>ATOM
      1 OG          2.6800   20.0300   32.2100 O.3       1 SER1        0.0000 
      2 OG          0.9800   20.3000   34.1500 O.3       1 SER1        0.0000 
      3 O           4.1600   21.8000   29.7800 O.2       2 ALA2        0.0000 
      4 O           5.0800   22.8700   29.2700 O.2       2 ALA2        0.0000 
      5 O           4.8500   24.9200   28.7700 O.2       2 ALA2        0.0000 
      6 N           3.7100   25.9000   28.7900 N.am      2 ALA2        0.0000 
      7 N           5.8800   19.1500   31.6700 N.am      2 ALA2        0.0000 
      8 O           6.7900   20.2300   31.1600 O.2       2 ALA2        0.0000 
      9 N           4.5100   22.1800   31.1900 N.am      2 ALA2        0.0000 
     10 N           5.4200   23.2500   30.6800 N.am      2 ALA2        0.0000 
     11 N           7.2400   25.4000   29.6500 N.am      2 ALA2        0.0000 
     12 N           4.2800   24.2300   30.6900 N.am      2 ALA2        0.0000 
     13 N           7.8200   23.7300   31.5600 N.am      2 ALA2        0.0000 
     14 N           3.0300   20.4100   33.6200 N.am      2 ALA2        0.0000 
     15 N           3.9400   21.4800   33.1100 N.am      2 ALA2        0.0000 
     16 N           4.8500   22.5600   32.6000 N.am      2 ALA2        0.0000 
     17 N           5.7600   23.6300   32.0900 N.am      2 ALA2        0.0000 
     18 N           6.6700   24.7100   31.5800 N.am      2 ALA2        0.0000 
     19 N           7.5900   25.7800   31.0600 N.am      2 ALA2        0.0000 
     20 N           1.8900   21.3800   33.6400 N.am      2 ALA2        0.0000 
     21 N           4.6200   24.6100   32.1000 N.am      2 ALA2        0.0000 
     22 O           7.2500   23.0400   33.4800 O.2       2 ALA2        0.0000 
     23 N           7.0200   25.0900   32.9900 N.am      2 ALA2        0.0000 
     24 O           3.1400   22.8300   34.5400 O.2       2 ALA2        0.0000 
     25 O           4.0500   23.9100   34.0300 O.2       2 ALA2        0.0000 
     26 N           2.5800   22.1400   36.4600 N.am      2 ALA2        0.0000 
     27 N           3.4900   23.2100   35.9500 N.am      2 ALA2        0.0000 
     28 N           3.2600   25.2600   35.4500 N.am      2 ALA2        0.0000 
     29 N           3.8300   23.5900   37.3600 N.am      2 ALA2        0.0000 
     30 N           3.6000   25.6400   36.8600 N.am      2 ALA2        0.0000 
     31 OD1         4.3900   19.7500   30.2800 O.co2     3 ASP3        0.0000 
     32 OD1         4.0500   26.2800   30.2000 O.co2     3 ASP3        0.0000 
     33 OD1         5.5300   25.6800   31.5900 O.co2     3 ASP3        0.0000 
     34 OD1         5.3100   27.7300   31.1000 O.co2     3 ASP3        0.0000 
     35 OD1         4.9700   24.9900   33.5100 O.co2     3 ASP3        0.0000 
     36 OD1         5.8800   26.0600   33.0000 O.co2     3 ASP3        0.0000 
     37 OD1         5.3100   25.3700   34.9200 O.co2     3 ASP3        0.0000 
     38 NZ          2.9100   17.9800   32.7100 N.4       4 LYS4        0.0000 
     39 NZ          3.8300   19.0500   32.2000 N.4       4 LYS4        0.0000 
     40 NZ          4.7400   20.1300   31.6900 N.4       4 LYS4        0.0000 
     41 NZ          0.7500   19.9900   37.4800 N.4       4 LYS4        0.0000 
     42 CZ          2.1200   19.3300   34.1400 C.ar      5 PHE5        0.0000 
     43 CZ          2.8000   20.0900   36.9600 C.ar      5 PHE5        0.0000 
     44 CZ          3.7200   21.1600   36.4400 C.ar      5 PHE5        0.0000 
     45 CZ          4.6300   22.2400   35.9300 C.ar      5 PHE5        0.0000 
     46 CZ          7.0200   22.7200   36.8100 C.ar      5 PHE5        0.0000 
     47 CZ          2.0100   21.4400   38.3800 C.ar      5 PHE5        0.0000 
     48 CZ          2.9200   22.5200   37.8700 C.ar      5 PHE5        0.0000 
     49 CA          5.3000   20.8200   29.7600 C.3       6 GLY6        0.0000 
     50 CA          6.5600   22.2800   30.6600 C.3       6 GLY6        0.0000 
     51 CA          7.4700   23.3500   30.1500 C.3       6 GLY6        0.0000 
     52 CA          6.3300   24.3300   30.1700 C.3       6 GLY6        0.0000 
     53 CA          5.1900   25.3000   30.1800 C.3       6 GLY6        0.0000 
     54 CA          5.3100   18.4600   33.5900 C.3       6 GLY6        0.0000 
     55 CA          3.2600   18.3600   34.1200 C.3       6 GLY6        0.0000 
     56 CA          4.1700   19.4300   33.6100 C.3       6 GLY6        0.0000 
     57 CA          5.0800   20.5100   33.1000 C.3       6 GLY6        0.0000 
     58 CA          5.9900   21.5800   32.5800 C.3       6 GLY6        0.0000 
     59 CA          6.9000   22.6600   32.0700 C.3       6 GLY6        0.0000 
     60 CA          3.6000   18.7400   35.5300 C.3       6 GLY6        0.0000 
     61 CA          4.5100   19.8100   35.0200 C.3       6 GLY6        0.0000 
     62 CA          6.3400   21.9600   33.9900 C.3       6 GLY6        0.0000 
     63 CA          4.2800   21.8600   34.5200 C.3       6 GLY6        0.0000 
     64 CA          5.2000   22.9400   34.0100 C.3       6 GLY6        0.0000 
     65 CA          1.3200   20.6800   35.5600 C.3       6 GLY6        0.0000 
     66 CA          2.2300   21.7600   35.0500 C.3       6 GLY6        0.0000 
     67 CA          6.6800   22.3400   35.4000 C.3       6 GLY6        0.0000 
     68 CA          1.8900   19.0100   37.4700 C.3       6 GLY6        0.0000 
     69 CA          5.5400   23.3200   35.4200 C.3       6 GLY6        0.0000 
     70 CA          1.6600   21.0600   36.9700 C.3       6 GLY6        0.0000 
     71 CA          1.1000   20.3700   38.8900 C.3       6 GLY6        0.0000 
     72 DU          5.6500   21.2000   31.1700 H         7 CUB7        0.0000 
     73 DU          2.4600   19.7100   35.5500 H         7 CUB7        0.0000 
     74 DU          3.3700   20.7800   35.0300 H         7 CUB7        0.0000 
     75 DU          6.1100   24.0100   33.5000 H         7 CUB7        0.0000 
     76 DU          6.4500   24.3900   34.9100 H         7 CUB7        0.0000 
     77 DU          4.4000   24.2900   35.4400 H         7 CUB7        0.0000 
@<TRIPOS>BOND
@<TRIPOS>SUBSTRUCTURE
     1 SER1        1 GROUP   
     2 ALA2        3 GROUP   
     3 ASP3       31 GROUP   
     4 LYS4       38 GROUP   
     5 PHE5       42 GROUP   
     6 GLY6       49 GROUP   
     7 CUB7       72 GROUP   
@<TRIPOS>SET

