#    Name: 6jf3_2_BB2
#    Modification time : Fri May 22 19:35:29 2020

@<TRIPOS>MOLECULE
6jf3_2_BB2
   27    27     1     0     0
SMALL
NO_CHARGES


@<TRIPOS>ATOM
      1 C5          5.2970   19.9380   30.1860 C.3       1 BB2202      0.0000 
      2 C3          4.1850   19.3220   29.3560 C.2       1 BB2202      0.0000 
      3 O4          3.4320   19.9860   28.6820 O.2       1 BB2202      0.0000 
      4 N1          4.0390   18.0190   29.4540 N.am      1 BB2202      0.0000 
      5 O2          2.9920   17.3780   28.7940 O.3       1 BB2202      0.0000 
      6 C6          4.6210   20.6350   31.3710 C.3       1 BB2202      0.0000 
      7 C12         5.5460   21.6830   31.9350 C.2       1 BB2202      0.0000 
      8 O13         6.7350   21.4270   32.2010 O.2       1 BB2202      0.0000 
      9 C7          4.2710   19.5900   32.4470 C.3       1 BB2202      0.0000 
     10 C8          3.1170   20.0360   33.3440 C.3       1 BB2202      0.0000 
     11 C9          3.1740   19.2840   34.6680 C.3       1 BB2202      0.0000 
     12 C10         2.1910   19.7570   35.7530 C.3       1 BB2202      0.0000 
     13 C11         2.5460   21.1740   36.1390 C.3       1 BB2202      0.0000 
     14 N14         4.9970   22.8660   32.1830 N.am      1 BB2202      0.0000 
     15 C15         5.7340   23.9180   32.9000 C.3       1 BB2202      0.0000 
     16 C16         5.9250   25.1370   31.9880 C.3       1 BB2202      0.0000 
     17 C18         6.9330   24.7910   30.8940 C.3       1 BB2202      0.0000 
     18 C17         4.6290   25.6320   31.3310 C.3       1 BB2202      0.0000 
     19 C19         5.0640   24.1820   34.2420 C.2       1 BB2202      0.0000 
     20 O20         3.8230   24.2200   34.2910 O.2       1 BB2202      0.0000 
     21 N21         5.8650   24.3330   35.3380 N.am      1 BB2202      0.0000 
     22 C22         5.3630   24.2390   36.7370 C.3       1 BB2202      0.0000 
     23 C23         7.3230   24.5590   35.3470 C.3       1 BB2202      0.0000 
     24 C24         7.7430   24.6910   36.8020 C.3       1 BB2202      0.0000 
     25 C25         6.4730   24.8170   37.6130 C.3       1 BB2202      0.0000 
     26 C26         4.0070   24.9250   37.0500 C.3       1 BB2202      0.0000 
     27 O27         3.6890   26.1000   36.2940 O.3       1 BB2202      0.0000 
@<TRIPOS>BOND
     1    1    2 1    
     2    1    6 1    
     3    2    3 2    
     4    2    4 am   
     5    4    5 1    
     6    6    7 1    
     7    6    9 1    
     8    7    8 2    
     9    7   14 am   
    10    9   10 1    
    11   10   11 1    
    12   11   12 1    
    13   12   13 1    
    14   14   15 1    
    15   15   16 1    
    16   15   19 1    
    17   16   17 1    
    18   16   18 1    
    19   19   20 2    
    20   19   21 am   
    21   21   22 1    
    22   21   23 1    
    23   22   25 1    
    24   22   26 1    
    25   23   24 1    
    26   24   25 1    
    27   26   27 1    
@<TRIPOS>SUBSTRUCTURE
     1 BB2202      1 GROUP   
@<TRIPOS>SET

