#    Name: 6pf8_5_MTX
#    Modification time : Fri May 22 19:30:06 2020

@<TRIPOS>MOLECULE
6pf8_5_MTX
   33    35     1     0     0
SMALL
NO_CHARGES


@<TRIPOS>ATOM
      1 N1       -108.2650  -62.8530   29.6910 N.ar      1 MTX604      0.0000 
      2 C2       -108.6460  -62.3660   28.4960 C.ar      1 MTX604      0.0000 
      3 NA2      -108.7060  -63.2610   27.3700 N.pl3     1 MTX604      0.0000 
      4 N3       -108.9710  -61.0750   28.3190 N.ar      1 MTX604      0.0000 
      5 C4       -108.9240  -60.2120   29.3570 C.ar      1 MTX604      0.0000 
      6 NA4      -109.2620  -58.8330   29.2070 N.pl3     1 MTX604      0.0000 
      7 C4A      -108.5300  -60.6760   30.6290 C.ar      1 MTX604      0.0000 
      8 N5       -108.4730  -59.8280   31.6940 N.ar      1 MTX604      0.0000 
      9 C6       -108.0920  -60.3160   32.8900 C.ar      1 MTX604      0.0000 
     10 C7       -107.7560  -61.6660   33.0620 C.ar      1 MTX604      0.0000 
     11 N8       -107.8170  -62.4910   31.9950 N.ar      1 MTX604      0.0000 
     12 C8A      -108.2030  -62.0120   30.7700 C.ar      1 MTX604      0.0000 
     13 C9       -108.0260  -59.3780   34.0690 C.3       1 MTX604      0.0000 
     14 N10      -107.0180  -59.7450   35.0390 N.pl3     1 MTX604      0.0000 
     15 CM       -107.4240  -60.1330   36.3690 C.3       1 MTX604      0.0000 
     16 C11      -102.9180  -59.8670   33.9300 C.ar      1 MTX604      0.0000 
     17 C12      -103.4490  -60.7980   34.8160 C.ar      1 MTX604      0.0000 
     18 C13      -104.7920  -60.7420   35.1730 C.ar      1 MTX604      0.0000 
     19 C14      -105.6160  -59.7590   34.6430 C.ar      1 MTX604      0.0000 
     20 C15      -105.0940  -58.8260   33.7460 C.ar      1 MTX604      0.0000 
     21 C16      -103.7430  -58.8830   33.3910 C.ar      1 MTX604      0.0000 
     22 C        -101.4560  -59.9650   33.5610 C.2       1 MTX604      0.0000 
     23 O        -100.6730  -60.4290   34.3720 O.2       1 MTX604      0.0000 
     24 N        -100.9530  -59.5450   32.2720 N.am      1 MTX604      0.0000 
     25 CA        -99.5510  -59.6780   31.9730 C.3       1 MTX604      0.0000 
     26 CT        -99.2190  -58.7330   30.8870 C.2       1 MTX604      0.0000 
     27 O1       -100.1520  -58.1590   30.2650 O.co2     1 MTX604      0.0000 
     28 O2        -98.0060  -58.5120   30.5780 O.co2     1 MTX604      0.0000 
     29 CB        -99.3410  -61.0520   31.4360 C.3       1 MTX604      0.0000 
     30 CG        -98.2590  -61.9320   31.9880 C.3       1 MTX604      0.0000 
     31 CD        -97.9880  -63.1850   31.2170 C.2       1 MTX604      0.0000 
     32 OE1       -97.1540  -63.1820   30.2740 O.co2     1 MTX604      0.0000 
     33 OE2       -98.6530  -64.2230   31.4560 O.co2     1 MTX604      0.0000 
@<TRIPOS>BOND
     1    1    2 ar   
     2    1   12 ar   
     3    2    3 1    
     4    2    4 ar   
     5    4    5 ar   
     6    5    6 1    
     7    5    7 ar   
     8    7    8 ar   
     9    7   12 ar   
    10    8    9 ar   
    11    9   10 ar   
    12    9   13 1    
    13   10   11 ar   
    14   11   12 ar   
    15   13   14 1    
    16   14   15 1    
    17   14   19 1    
    18   16   17 ar   
    19   16   21 ar   
    20   16   22 1    
    21   17   18 ar   
    22   18   19 ar   
    23   19   20 ar   
    24   20   21 ar   
    25   22   23 2    
    26   22   24 am   
    27   24   25 1    
    28   25   26 1    
    29   25   29 1    
    30   26   27 ar   
    31   26   28 ar   
    32   29   30 1    
    33   30   31 1    
    34   31   32 ar   
    35   31   33 ar   
@<TRIPOS>SUBSTRUCTURE
     1 MTX604      1 GROUP   
@<TRIPOS>SET

