#    Name: 6pf8_6_NDP
#    Modification time : Fri May 22 19:30:12 2020

@<TRIPOS>MOLECULE
6pf8_6_NDP
   48    52     1     0     1
SMALL
NO_CHARGES


@<TRIPOS>ATOM
      1 PA          6.1820  -45.7680   87.7140 P.3       1 NDP601      0.0000 
      2 O1A         5.3340  -46.1330   86.5160 O.co2     1 NDP601      0.0000 
      3 O2A         5.4750  -46.1450   88.9830 O.co2     1 NDP601      0.0000 
      4 O5B         7.4900  -46.5620   87.6570 O.3       1 NDP601      0.0000 
      5 C5B         8.3040  -46.5040   86.5170 C.3       1 NDP601      0.0000 
      6 C4B         9.3680  -47.5140   86.4330 C.3       1 NDP601      0.0000 
      7 O4B         8.8130  -48.7810   86.1530 O.3       1 NDP601      0.0000 
      8 C3B        10.3050  -47.2730   85.3330 C.3       1 NDP601      0.0000 
      9 O3B        11.2760  -46.3440   85.6610 O.3       1 NDP601      0.0000 
     10 C2B        10.8710  -48.5840   85.1450 C.3       1 NDP601      0.0000 
     11 O2B        11.7670  -48.8980   86.1730 O.3       1 NDP601      0.0000 
     12 C1B         9.7130  -49.4490   85.2840 C.3       1 NDP601      0.0000 
     13 N9A         9.1120  -49.6630   84.0160 N.pl3     1 NDP601      0.0000 
     14 C8A         8.0360  -49.0090   83.5160 C.2       1 NDP601      0.0000 
     15 N7A         7.7570  -49.4860   82.2870 N.2       1 NDP601      0.0000 
     16 C5A         8.6700  -50.4710   81.9930 C.ar      1 NDP601      0.0000 
     17 C6A         8.8890  -51.3200   80.8810 C.ar      1 NDP601      0.0000 
     18 N6A         7.9930  -51.2200   79.7030 N.pl3     1 NDP601      0.0000 
     19 N1A         9.9110  -52.2200   80.8970 N.ar      1 NDP601      0.0000 
     20 C2A        10.7200  -52.2880   81.9930 C.ar      1 NDP601      0.0000 
     21 N3A        10.5530  -51.5100   83.0660 N.ar      1 NDP601      0.0000 
     22 C4A         9.5270  -50.5810   83.0910 C.ar      1 NDP601      0.0000 
     23 O3          6.5450  -44.2130   87.7340 O.3       1 NDP601      0.0000 
     24 PN          5.4760  -43.0550   87.5060 P.3       1 NDP601      0.0000 
     25 O1N         6.1840  -41.6940   87.4530 O.co2     1 NDP601      0.0000 
     26 O2N         4.7520  -43.2540   86.1910 O.co2     1 NDP601      0.0000 
     27 O5D         4.4270  -43.0950   88.7410 O.3       1 NDP601      0.0000 
     28 C5D         4.7950  -42.6260   90.0090 C.3       1 NDP601      0.0000 
     29 C4D         4.0810  -41.4640   90.5090 C.3       1 NDP601      0.0000 
     30 O4D         2.6730  -41.6990   90.4340 O.3       1 NDP601      0.0000 
     31 C3D         4.3880  -41.2290   91.9260 C.3       1 NDP601      0.0000 
     32 O3D         4.2800  -39.8710   92.2080 O.3       1 NDP601      0.0000 
     33 C2D         3.3650  -41.9490   92.6060 C.3       1 NDP601      0.0000 
     34 O2D         3.1580  -41.4440   93.8910 O.3       1 NDP601      0.0000 
     35 C1D         2.1900  -41.7190   91.7380 C.3       1 NDP601      0.0000 
     36 N1N         1.2190  -42.7500   91.9260 N.pl3     1 NDP601      0.0000 
     37 C2N        -0.0670  -42.3980   92.1080 C.2       1 NDP601      0.0000 
     38 C3N        -1.0600  -43.3720   92.2920 C.2       1 NDP601      0.0000 
     39 C7N        -2.5020  -42.9410   92.4960 C.2       1 NDP601      0.0000 
     40 O7N        -3.3970  -43.8010   92.4710 O.2       1 NDP601      0.0000 
     41 N7N        -2.8500  -41.5670   92.7250 N.am      1 NDP601      0.0000 
     42 C4N        -0.7050  -44.7330   92.2900 C.3       1 NDP601      0.0000 
     43 C5N         0.6440  -45.0580   92.1020 C.2       1 NDP601      0.0000 
     44 C6N         1.5980  -44.0640   91.9160 C.2       1 NDP601      0.0000 
     45 P2B        13.3120  -48.9170   85.9490 P.3       1 NDP601      0.0000 
     46 O1X        13.8190  -47.4700   85.7880 O.co2     1 NDP601      0.0000 
     47 O2X        13.9570  -49.5520   87.1100 O.co2     1 NDP601      0.0000 
     48 O3X        13.6490  -49.7100   84.7270 O.co2     1 NDP601      0.0000 
@<TRIPOS>BOND
     1    1    2 ar   
     2    1    3 ar   
     3    1    4 1    
     4    1   23 1    
     5    4    5 1    
     6    5    6 1    
     7    6    7 1    
     8    6    8 1    
     9    7   12 1    
    10    8    9 1    
    11    8   10 1    
    12   10   11 1    
    13   10   12 1    
    14   11   45 1    
    15   12   13 1    
    16   13   14 1    
    17   13   22 1    
    18   14   15 2    
    19   15   16 1    
    20   16   17 ar   
    21   16   22 ar   
    22   17   18 1    
    23   17   19 ar   
    24   19   20 ar   
    25   20   21 ar   
    26   21   22 ar   
    27   23   24 1    
    28   24   25 ar   
    29   24   26 ar   
    30   24   27 1    
    31   27   28 1    
    32   28   29 1    
    33   29   30 1    
    34   29   31 1    
    35   30   35 1    
    36   31   32 1    
    37   31   33 1    
    38   33   34 1    
    39   33   35 1    
    40   35   36 1    
    41   36   37 1    
    42   36   44 1    
    43   37   38 2    
    44   38   39 1    
    45   38   42 1    
    46   39   40 2    
    47   39   41 am   
    48   42   43 1    
    49   43   44 2    
    50   45   46 ar   
    51   45   47 ar   
    52   45   48 ar   
@<TRIPOS>SUBSTRUCTURE
     1 NDP601      1 GROUP   
@<TRIPOS>SET
ATOM$ORANGE STATIC     ATOMS   COLORGROUP SYSTEM 
42 5 5 6 6 8 8 10 10 12 12 14 14 16 16 17 17 20 \
20 22 22 28 28 29 29 31 31 33 33 35 35 37 37 38 38 39 \
39 42 42 43 43 44 44 

