#    Name: 6pf8_5_NDP
#    Modification time : Fri May 22 19:30:18 2020

@<TRIPOS>MOLECULE
6pf8_5_NDP
   48    52     1     0     1
SMALL
NO_CHARGES


@<TRIPOS>ATOM
      1 PA        -72.7400  -86.8740   16.9940 P.3       1 NDP601      0.0000 
      2 O1A       -71.5260  -86.7370   17.8910 O.co2     1 NDP601      0.0000 
      3 O2A       -73.6920  -85.7380   17.2390 O.co2     1 NDP601      0.0000 
      4 O5B       -72.2930  -86.8180   15.5280 O.3       1 NDP601      0.0000 
      5 C5B       -71.2980  -87.6880   15.0580 C.3       1 NDP601      0.0000 
      6 C4B       -70.7210  -87.3940   13.7370 C.3       1 NDP601      0.0000 
      7 O4B       -69.9290  -86.2260   13.7920 O.3       1 NDP601      0.0000 
      8 C3B       -69.7940  -88.4300   13.2780 C.3       1 NDP601      0.0000 
      9 O3B       -70.4430  -89.5340   12.7530 O.3       1 NDP601      0.0000 
     10 C2B       -69.0540  -87.7070   12.2750 C.3       1 NDP601      0.0000 
     11 O2B       -69.8500  -87.4640   11.1490 O.3       1 NDP601      0.0000 
     12 C1B       -68.8210  -86.4350   12.9310 C.3       1 NDP601      0.0000 
     13 N9A       -67.6030  -86.4620   13.6680 N.pl3     1 NDP601      0.0000 
     14 C8A       -67.4600  -86.7570   14.9830 C.2       1 NDP601      0.0000 
     15 N7A       -66.1590  -86.6720   15.3220 N.2       1 NDP601      0.0000 
     16 C5A       -65.4450  -86.3090   14.2050 C.ar      1 NDP601      0.0000 
     17 C6A       -64.0740  -86.0660   13.9350 C.ar      1 NDP601      0.0000 
     18 N6A       -63.0750  -86.2010   15.0250 N.pl3     1 NDP601      0.0000 
     19 N1A       -63.6770  -85.7110   12.6820 N.ar      1 NDP601      0.0000 
     20 C2A       -64.6110  -85.5950   11.6980 C.ar      1 NDP601      0.0000 
     21 N3A       -65.9140  -85.8120   11.9020 N.ar      1 NDP601      0.0000 
     22 C4A       -66.3640  -86.1740   13.1590 C.ar      1 NDP601      0.0000 
     23 O3        -73.4770  -88.2670   17.2420 O.3       1 NDP601      0.0000 
     24 PN        -73.9620  -88.7400   18.6810 P.3       1 NDP601      0.0000 
     25 O1N       -74.4820  -90.1840   18.6230 O.co2     1 NDP601      0.0000 
     26 O2N       -72.8000  -88.6680   19.6470 O.co2     1 NDP601      0.0000 
     27 O5D       -75.1690  -87.7780   19.1730 O.3       1 NDP601      0.0000 
     28 C5D       -76.4880  -88.0780   18.7980 C.3       1 NDP601      0.0000 
     29 C4D       -77.4240  -88.4370   19.8520 C.3       1 NDP601      0.0000 
     30 O4D       -77.1940  -87.6180   20.9980 O.3       1 NDP601      0.0000 
     31 C3D       -78.8080  -88.1800   19.4380 C.3       1 NDP601      0.0000 
     32 O3D       -79.6610  -89.0630   20.0900 O.3       1 NDP601      0.0000 
     33 C2D       -79.0490  -86.8600   19.9070 C.3       1 NDP601      0.0000 
     34 O2D       -80.4170  -86.6320   20.0530 O.3       1 NDP601      0.0000 
     35 C1D       -78.3450  -86.8690   21.2080 C.3       1 NDP601      0.0000 
     36 N1N       -78.0420  -85.5360   21.6280 N.pl3     1 NDP601      0.0000 
     37 C2N       -78.3580  -85.1680   22.8810 C.2       1 NDP601      0.0000 
     38 C3N       -78.0810  -83.8720   23.3420 C.2       1 NDP601      0.0000 
     39 C7N       -78.4550  -83.4970   24.7650 C.2       1 NDP601      0.0000 
     40 O7N       -78.0510  -82.4200   25.2320 O.2       1 NDP601      0.0000 
     41 N7N       -79.2680  -84.3610   25.5760 N.am      1 NDP601      0.0000 
     42 C4N       -77.4660  -82.9440   22.4820 C.3       1 NDP601      0.0000 
     43 C5N       -77.1550  -83.3650   21.1840 C.2       1 NDP601      0.0000 
     44 C6N       -77.4430  -84.6600   20.7660 C.2       1 NDP601      0.0000 
     45 P2B       -69.5140  -88.0680    9.7490 P.3       1 NDP601      0.0000 
     46 O1X       -69.7940  -89.5840    9.7780 O.co2     1 NDP601      0.0000 
     47 O2X       -70.3590  -87.4140    8.7360 O.co2     1 NDP601      0.0000 
     48 O3X       -68.0850  -87.8170    9.3880 O.co2     1 NDP601      0.0000 
@<TRIPOS>BOND
     1    1    2 ar   
     2    1    3 ar   
     3    1    4 1    
     4    1   23 1    
     5    4    5 1    
     6    5    6 1    
     7    6    7 1    
     8    6    8 1    
     9    7   12 1    
    10    8    9 1    
    11    8   10 1    
    12   10   11 1    
    13   10   12 1    
    14   11   45 1    
    15   12   13 1    
    16   13   14 1    
    17   13   22 1    
    18   14   15 2    
    19   15   16 1    
    20   16   17 ar   
    21   16   22 ar   
    22   17   18 1    
    23   17   19 ar   
    24   19   20 ar   
    25   20   21 ar   
    26   21   22 ar   
    27   23   24 1    
    28   24   25 ar   
    29   24   26 ar   
    30   24   27 1    
    31   27   28 1    
    32   28   29 1    
    33   29   30 1    
    34   29   31 1    
    35   30   35 1    
    36   31   32 1    
    37   31   33 1    
    38   33   34 1    
    39   33   35 1    
    40   35   36 1    
    41   36   37 1    
    42   36   44 1    
    43   37   38 2    
    44   38   39 1    
    45   38   42 1    
    46   39   40 2    
    47   39   41 am   
    48   42   43 1    
    49   43   44 2    
    50   45   46 ar   
    51   45   47 ar   
    52   45   48 ar   
@<TRIPOS>SUBSTRUCTURE
     1 NDP601      1 GROUP   
@<TRIPOS>SET
ATOM$ORANGE STATIC     ATOMS   COLORGROUP SYSTEM 
42 5 5 6 6 8 8 10 10 12 12 14 14 16 16 17 17 20 \
20 22 22 28 28 29 29 31 31 33 33 35 35 37 37 38 38 39 \
39 42 42 43 43 44 44 

