#    Name: 6pf8_2_MTX
#    Modification time : Fri May 22 19:29:49 2020

@<TRIPOS>MOLECULE
6pf8_2_MTX
   33    35     1     0     0
SMALL
NO_CHARGES


@<TRIPOS>ATOM
      1 N1        -58.1870  -68.3180   84.0170 N.ar      1 MTX604      0.0000 
      2 C2        -56.9260  -68.4880   84.4580 C.ar      1 MTX604      0.0000 
      3 NA2       -56.2380  -67.3770   85.0640 N.pl3     1 MTX604      0.0000 
      4 N3        -56.2830  -69.6610   84.3540 N.ar      1 MTX604      0.0000 
      5 C4        -56.8910  -70.7250   83.7930 C.ar      1 MTX604      0.0000 
      6 NA4       -56.2320  -71.9860   83.6660 N.pl3     1 MTX604      0.0000 
      7 C4A       -58.2120  -70.5940   83.3160 C.ar      1 MTX604      0.0000 
      8 N5        -58.8500  -71.6520   82.7460 N.ar      1 MTX604      0.0000 
      9 C6        -60.1080  -71.4880   82.3020 C.ar      1 MTX604      0.0000 
     10 C7        -60.7830  -70.2630   82.4130 C.ar      1 MTX604      0.0000 
     11 N8        -60.1340  -69.2220   82.9820 N.ar      1 MTX604      0.0000 
     12 C8A       -58.8460  -69.3710   83.4400 C.ar      1 MTX604      0.0000 
     13 C9        -60.7890  -72.6690   81.6650 C.3       1 MTX604      0.0000 
     14 N10       -61.7310  -72.2660   80.6470 N.pl3     1 MTX604      0.0000 
     15 CM        -63.1320  -72.5520   80.8180 C.3       1 MTX604      0.0000 
     16 C11       -60.5940  -70.0070   77.2460 C.ar      1 MTX604      0.0000 
     17 C12       -61.8120  -69.8110   77.8780 C.ar      1 MTX604      0.0000 
     18 C13       -62.1510  -70.5650   78.9890 C.ar      1 MTX604      0.0000 
     19 C14       -61.2860  -71.5310   79.4720 C.ar      1 MTX604      0.0000 
     20 C15       -60.0550  -71.7410   78.8460 C.ar      1 MTX604      0.0000 
     21 C16       -59.7110  -70.9750   77.7240 C.ar      1 MTX604      0.0000 
     22 C         -60.2920  -69.1470   76.0450 C.2       1 MTX604      0.0000 
     23 O         -61.2220  -68.7890   75.3440 O.2       1 MTX604      0.0000 
     24 N         -58.9550  -68.7310   75.6920 N.am      1 MTX604      0.0000 
     25 CA        -58.7630  -67.9060   74.5280 C.3       1 MTX604      0.0000 
     26 CT        -57.3900  -68.1320   74.0430 C.2       1 MTX604      0.0000 
     27 O1        -56.5410  -68.6140   74.8360 O.co2     1 MTX604      0.0000 
     28 O2        -57.0740  -67.8390   72.8490 O.co2     1 MTX604      0.0000 
     29 CB        -58.8380  -66.4710   74.9230 C.3       1 MTX604      0.0000 
     30 CG        -60.0950  -65.6870   74.7030 C.3       1 MTX604      0.0000 
     31 CD        -59.9730  -64.2060   74.8870 C.2       1 MTX604      0.0000 
     32 OE1       -58.9530  -63.6210   74.4510 O.co2     1 MTX604      0.0000 
     33 OE2       -60.7140  -63.6130   75.7140 O.co2     1 MTX604      0.0000 
@<TRIPOS>BOND
     1    1    2 ar   
     2    1   12 ar   
     3    2    3 1    
     4    2    4 ar   
     5    4    5 ar   
     6    5    6 1    
     7    5    7 ar   
     8    7    8 ar   
     9    7   12 ar   
    10    8    9 ar   
    11    9   10 ar   
    12    9   13 1    
    13   10   11 ar   
    14   11   12 ar   
    15   13   14 1    
    16   14   15 1    
    17   14   19 1    
    18   16   17 ar   
    19   16   21 ar   
    20   16   22 1    
    21   17   18 ar   
    22   18   19 ar   
    23   19   20 ar   
    24   20   21 ar   
    25   22   23 2    
    26   22   24 am   
    27   24   25 1    
    28   25   26 1    
    29   25   29 1    
    30   26   27 ar   
    31   26   28 ar   
    32   29   30 1    
    33   30   31 1    
    34   31   32 ar   
    35   31   33 ar   
@<TRIPOS>SUBSTRUCTURE
     1 MTX604      1 GROUP   
@<TRIPOS>SET

