#    Name: 6pf8_3_MTX
#    Modification time : Fri May 22 19:29:57 2020

@<TRIPOS>MOLECULE
6pf8_3_MTX
   33    35     1     0     0
SMALL
NO_CHARGES


@<TRIPOS>ATOM
      1 N1        -61.7370  -41.2630   67.0110 N.ar      1 MTX604      0.0000 
      2 C2        -61.9900  -41.6030   65.7350 C.ar      1 MTX604      0.0000 
      3 NA2       -63.0030  -42.5900   65.4670 N.pl3     1 MTX604      0.0000 
      4 N3        -61.3300  -41.0550   64.7030 N.ar      1 MTX604      0.0000 
      5 C4        -60.3730  -40.1270   64.9180 C.ar      1 MTX604      0.0000 
      6 NA4       -59.6510  -39.5240   63.8440 N.pl3     1 MTX604      0.0000 
      7 C4A       -60.0730  -39.7390   66.2400 C.ar      1 MTX604      0.0000 
      8 N5        -59.1140  -38.8040   66.4880 N.ar      1 MTX604      0.0000 
      9 C6        -58.8610  -38.4620   67.7650 C.ar      1 MTX604      0.0000 
     10 C7        -59.5550  -39.0400   68.8380 C.ar      1 MTX604      0.0000 
     11 N8        -60.5030  -39.9660   68.5730 N.ar      1 MTX604      0.0000 
     12 C8A       -60.7740  -40.3260   67.2770 C.ar      1 MTX604      0.0000 
     13 C9        -57.7910  -37.4320   68.0250 C.3       1 MTX604      0.0000 
     14 N10       -57.1060  -37.6080   69.2830 N.pl3     1 MTX604      0.0000 
     15 CM        -57.1910  -36.5820   70.2960 C.3       1 MTX604      0.0000 
     16 C11       -55.0000  -41.2060   70.0540 C.ar      1 MTX604      0.0000 
     17 C12       -55.6920  -40.5460   71.0620 C.ar      1 MTX604      0.0000 
     18 C13       -56.3730  -39.3680   70.7930 C.ar      1 MTX604      0.0000 
     19 C14       -56.3660  -38.8400   69.5120 C.ar      1 MTX604      0.0000 
     20 C15       -55.6810  -39.4980   68.4880 C.ar      1 MTX604      0.0000 
     21 C16       -54.9940  -40.6850   68.7630 C.ar      1 MTX604      0.0000 
     22 C         -54.2820  -42.4840   70.4110 C.2       1 MTX604      0.0000 
     23 O         -53.8530  -42.6150   71.5450 O.2       1 MTX604      0.0000 
     24 N         -54.0940  -43.5630   69.4700 N.am      1 MTX604      0.0000 
     25 CA        -53.4100  -44.7510   69.9070 C.3       1 MTX604      0.0000 
     26 CT        -52.9320  -45.4740   68.7090 C.2       1 MTX604      0.0000 
     27 O1        -53.3800  -45.1510   67.5770 O.co2     1 MTX604      0.0000 
     28 O2        -52.0720  -46.4030   68.8140 O.co2     1 MTX604      0.0000 
     29 CB        -54.4180  -45.5900   70.6180 C.3       1 MTX604      0.0000 
     30 CG        -54.0410  -46.8820   71.2800 C.3       1 MTX604      0.0000 
     31 CD        -55.1870  -47.7300   71.7360 C.2       1 MTX604      0.0000 
     32 OE1       -55.1350  -48.9700   71.5700 O.co2     1 MTX604      0.0000 
     33 OE2       -56.0080  -47.2630   72.5690 O.co2     1 MTX604      0.0000 
@<TRIPOS>BOND
     1    1    2 ar   
     2    1   12 ar   
     3    2    3 1    
     4    2    4 ar   
     5    4    5 ar   
     6    5    6 1    
     7    5    7 ar   
     8    7    8 ar   
     9    7   12 ar   
    10    8    9 ar   
    11    9   10 ar   
    12    9   13 1    
    13   10   11 ar   
    14   11   12 ar   
    15   13   14 1    
    16   14   15 1    
    17   14   19 1    
    18   16   17 ar   
    19   16   21 ar   
    20   16   22 1    
    21   17   18 ar   
    22   18   19 ar   
    23   19   20 ar   
    24   20   21 ar   
    25   22   23 2    
    26   22   24 am   
    27   24   25 1    
    28   25   26 1    
    29   25   29 1    
    30   26   27 ar   
    31   26   28 ar   
    32   29   30 1    
    33   30   31 1    
    34   31   32 ar   
    35   31   33 ar   
@<TRIPOS>SUBSTRUCTURE
     1 MTX604      1 GROUP   
@<TRIPOS>SET

