#    Name: 5wmm_1_SAH
#    Modification time : Fri May 22 19:15:38 2020

@<TRIPOS>MOLECULE
5wmm_1_SAH
   26    28     1     0     0
SMALL
NO_CHARGES


@<TRIPOS>ATOM
      1 N         -64.9170   52.2150  -34.3450 N.4       1 SAH1002     0.0000 
      2 CA        -64.1860   53.2690  -33.5550 C.3       1 SAH1002     0.0000 
      3 CB        -64.6620   53.3380  -32.0930 C.3       1 SAH1002     0.0000 
      4 CG        -64.4740   52.0600  -31.2720 C.3       1 SAH1002     0.0000 
      5 SD        -65.3110   52.2250  -29.7230 S.3       1 SAH1002     0.0000 
      6 C         -62.6910   53.0670  -33.6330 C.2       1 SAH1002     0.0000 
      7 O         -62.1920   52.2030  -34.3590 O.co2     1 SAH1002     0.0000 
      8 OXT       -61.9210   53.7710  -32.9810 O.co2     1 SAH1002     0.0000 
      9 C5'       -66.7400   51.2070  -29.9090 C.3       1 SAH1002     0.0000 
     10 C4'       -67.9300   52.0560  -30.3450 C.3       1 SAH1002     0.0000 
     11 O4'       -68.9730   51.2120  -30.8370 O.3       1 SAH1002     0.0000 
     12 C3'       -68.5160   52.8840  -29.2080 C.3       1 SAH1002     0.0000 
     13 O3'       -68.4530   54.2790  -29.5240 O.3       1 SAH1002     0.0000 
     14 C2'       -69.9480   52.4030  -29.0470 C.3       1 SAH1002     0.0000 
     15 O2'       -70.8560   53.4950  -28.8820 O.3       1 SAH1002     0.0000 
     16 C1'       -70.2410   51.6250  -30.3250 C.3       1 SAH1002     0.0000 
     17 N9        -71.1090   50.4340  -30.1320 N.pl3     1 SAH1002     0.0000 
     18 C8        -70.9080   49.4250  -29.2620 C.2       1 SAH1002     0.0000 
     19 N7        -71.8950   48.4950  -29.3580 N.2       1 SAH1002     0.0000 
     20 C5        -72.7460   48.9010  -30.3140 C.ar      1 SAH1002     0.0000 
     21 C6        -74.0020   48.3900  -30.9250 C.ar      1 SAH1002     0.0000 
     22 N6        -74.5530   47.2240  -30.5160 N.pl3     1 SAH1002     0.0000 
     23 N1        -74.5770   49.1320  -31.9050 N.ar      1 SAH1002     0.0000 
     24 C2        -74.0350   50.2980  -32.3260 C.ar      1 SAH1002     0.0000 
     25 N3        -72.9020   50.8230  -31.8120 N.ar      1 SAH1002     0.0000 
     26 C4        -72.2190   50.1800  -30.8270 C.ar      1 SAH1002     0.0000 
@<TRIPOS>BOND
     1    1    2 1    
     2    2    3 1    
     3    2    6 1    
     4    3    4 1    
     5    4    5 1    
     6    5    9 1    
     7    6    7 ar   
     8    6    8 ar   
     9    9   10 1    
    10   10   11 1    
    11   10   12 1    
    12   11   16 1    
    13   12   13 1    
    14   12   14 1    
    15   14   15 1    
    16   14   16 1    
    17   16   17 1    
    18   17   18 1    
    19   17   26 1    
    20   18   19 2    
    21   19   20 1    
    22   20   21 ar   
    23   20   26 ar   
    24   21   22 1    
    25   21   23 ar   
    26   23   24 ar   
    27   24   25 ar   
    28   25   26 ar   
@<TRIPOS>SUBSTRUCTURE
     1 SAH1002     1 GROUP   
@<TRIPOS>SET

