#    Name: 5wmm_1_SAH_CAVITY_N1_12
#    Modification time : Fri May 22 19:15:39 2020

@<TRIPOS>MOLECULE
5wmm_1_SAH_CAVITY_N1_12
   81     0     6     0     0
SMALL
NO_CHARGES


@<TRIPOS>ATOM
      1 OG        -66.0100   52.6100  -28.4700 O.3       1 SER1        0.0000 
      2 OG        -64.6000   52.1000  -28.5800 O.3       1 SER1        0.0000 
      3 OG        -65.7800   53.4700  -29.6800 O.3       1 SER1        0.0000 
      4 OG        -64.3800   52.9600  -29.7800 O.3       1 SER1        0.0000 
      5 OG        -64.3500   52.3600  -26.4800 O.3       1 SER1        0.0000 
      6 OG        -64.1300   53.2200  -27.6900 O.3       1 SER1        0.0000 
      7 OG        -63.9100   54.0800  -28.9000 O.3       1 SER1        0.0000 
      8 OG        -63.6900   54.9400  -30.1100 O.3       1 SER1        0.0000 
      9 OG        -63.6600   54.3400  -26.8100 O.3       1 SER1        0.0000 
     10 OG        -63.4400   55.2000  -28.0200 O.3       1 SER1        0.0000 
     11 OG        -63.2200   56.0600  -29.2200 O.3       1 SER1        0.0000 
     12 OG        -64.3800   56.8200  -27.0300 O.3       1 SER1        0.0000 
     13 OG        -62.9800   56.3200  -27.1300 O.3       1 SER1        0.0000 
     14 OG        -62.7500   57.1800  -28.3400 O.3       1 SER1        0.0000 
     15 OG        -61.3500   56.6700  -28.4400 O.3       1 SER1        0.0000 
     16 N         -65.0900   51.5900  -32.7600 N.am      2 ALA2        0.0000 
     17 N         -64.8700   52.4500  -33.9700 N.am      2 ALA2        0.0000 
     18 N         -65.0600   50.9800  -29.4600 N.am      2 ALA2        0.0000 
     19 N         -63.6600   50.4800  -29.5600 N.am      2 ALA2        0.0000 
     20 N         -66.2500   52.3500  -30.5600 N.am      2 ALA2        0.0000 
     21 N         -63.4400   51.3400  -30.7700 N.am      2 ALA2        0.0000 
     22 N         -66.0300   53.2100  -31.7700 N.am      2 ALA2        0.0000 
     23 N         -64.6200   52.7000  -31.8700 N.am      2 ALA2        0.0000 
     24 N         -63.2100   52.2000  -31.9800 N.am      2 ALA2        0.0000 
     25 N         -64.4000   53.5700  -33.0800 N.am      2 ALA2        0.0000 
     26 N         -62.9900   53.0600  -33.1900 N.am      2 ALA2        0.0000 
     27 O         -61.5900   52.5500  -33.2900 O.2       2 ALA2        0.0000 
     28 N         -64.1800   54.4300  -34.2900 N.am      2 ALA2        0.0000 
     29 O         -61.3600   53.4200  -34.5000 O.2       2 ALA2        0.0000 
     30 O         -59.9600   52.9100  -34.6000 O.2       2 ALA2        0.0000 
     31 N         -63.9300   54.6800  -32.2000 N.am      2 ALA2        0.0000 
     32 N         -63.7100   55.5500  -33.4100 N.am      2 ALA2        0.0000 
     33 O         -61.0900   53.0700  -29.1100 O.2       2 ALA2        0.0000 
     34 O         -59.6800   52.5600  -29.2100 O.2       2 ALA2        0.0000 
     35 O         -63.4700   55.8000  -31.3200 O.2       2 ALA2        0.0000 
     36 O         -60.6300   54.1900  -28.2200 O.2       2 ALA2        0.0000 
     37 O         -59.2200   53.6800  -28.3300 O.2       2 ALA2        0.0000 
     38 O         -57.8100   53.1700  -28.4300 O.2       2 ALA2        0.0000 
     39 O         -60.1600   55.3100  -27.3400 O.2       2 ALA2        0.0000 
     40 NZ        -62.7700   53.9200  -34.3900 N.4       3 LYS4        0.0000 
     41 CZ        -63.1900   51.5900  -28.6800 C.ar      4 PHE5        0.0000 
     42 CZ        -61.7800   51.0900  -28.7800 C.ar      4 PHE5        0.0000 
     43 CZ        -61.5600   51.9500  -29.9900 C.ar      4 PHE5        0.0000 
     44 CZ        -60.1500   51.4400  -30.0900 C.ar      4 PHE5        0.0000 
     45 CZ        -59.7100   53.1700  -32.5100 C.ar      4 PHE5        0.0000 
     46 CZ        -62.7200   52.7100  -27.8000 C.ar      4 PHE5        0.0000 
     47 CZ        -63.8800   53.4800  -25.6000 C.ar      4 PHE5        0.0000 
     48 CZ        -62.2500   53.8300  -26.9100 C.ar      4 PHE5        0.0000 
     49 CZ        -60.8500   53.3300  -27.0200 C.ar      4 PHE5        0.0000 
     50 CZ        -58.9700   53.9400  -26.2400 C.ar      4 PHE5        0.0000 
     51 CZ        -63.9200   57.9400  -26.1500 C.ar      4 PHE5        0.0000 
     52 CA        -62.0300   50.8300  -30.8700 C.3       5 GLY6        0.0000 
     53 CA        -61.8100   51.6900  -32.0800 C.3       5 GLY6        0.0000 
     54 CA        -65.5600   54.3300  -30.8900 C.3       5 GLY6        0.0000 
     55 CA        -61.3400   52.8100  -31.2000 C.3       5 GLY6        0.0000 
     56 CA        -62.5300   54.1800  -32.3000 C.3       5 GLY6        0.0000 
     57 CA        -61.1200   53.6700  -32.4100 C.3       5 GLY6        0.0000 
     58 CA        -62.3100   55.0400  -33.5100 C.3       5 GLY6        0.0000 
     59 CA        -62.2800   54.4400  -30.2100 C.3       5 GLY6        0.0000 
     60 CA        -60.8700   53.9300  -30.3200 C.3       5 GLY6        0.0000 
     61 CA        -59.4600   53.4200  -30.4200 C.3       5 GLY6        0.0000 
     62 CA        -61.8100   55.5500  -29.3300 C.3       5 GLY6        0.0000 
     63 CA        -63.2000   55.4600  -25.9300 C.3       5 GLY6        0.0000 
     64 CA        -61.7900   54.9500  -26.0300 C.3       5 GLY6        0.0000 
     65 CA        -60.3800   54.4400  -26.1300 C.3       5 GLY6        0.0000 
     66 CA        -61.5700   55.8100  -27.2400 C.3       5 GLY6        0.0000 
     67 CA        -58.7500   54.8000  -27.4400 C.3       5 GLY6        0.0000 
     68 CA        -64.1600   57.6900  -28.2400 C.3       5 GLY6        0.0000 
     69 CA        -59.9400   56.1700  -28.5500 C.3       5 GLY6        0.0000 
     70 CA        -64.1400   57.0800  -24.9400 C.3       5 GLY6        0.0000 
     71 CA        -62.7300   56.5800  -25.0400 C.3       5 GLY6        0.0000 
     72 CA        -62.5100   57.4400  -26.2500 C.3       5 GLY6        0.0000 
     73 CA        -61.1000   56.9300  -26.3500 C.3       5 GLY6        0.0000 
     74 CA        -63.7000   58.8000  -27.3500 C.3       5 GLY6        0.0000 
     75 CA        -63.4500   59.0600  -25.2600 C.3       5 GLY6        0.0000 
     76 CA        -62.0400   58.5600  -25.3700 C.3       5 GLY6        0.0000 
     77 DU        -62.9700   52.4600  -29.8900 H         6 CUB7        0.0000 
     78 DU        -64.1600   53.8200  -30.9900 H         6 CUB7        0.0000 
     79 DU        -62.7500   53.3200  -31.0900 H         6 CUB7        0.0000 
     80 DU        -62.5000   53.5700  -29.0000 H         6 CUB7        0.0000 
     81 DU        -62.0300   54.6900  -28.1200 H         6 CUB7        0.0000 
@<TRIPOS>BOND
@<TRIPOS>SUBSTRUCTURE
     1 SER1        1 GROUP   
     2 ALA2       16 GROUP   
     3 LYS4       40 GROUP   
     4 PHE5       41 GROUP   
     5 GLY6       52 GROUP   
     6 CUB7       77 GROUP   
@<TRIPOS>SET

