#    Name: 5wmm_1_SAH_CAVITY_N1_4
#    Modification time : Fri May 22 19:15:39 2020

@<TRIPOS>MOLECULE
5wmm_1_SAH_CAVITY_N1_4
   48     0     6     0     0
SMALL
NO_CHARGES


@<TRIPOS>ATOM
      1 OG        -66.0100   52.6100  -28.4700 O.3       1 SER1        0.0000 
      2 OG        -64.6000   52.1000  -28.5800 O.3       1 SER1        0.0000 
      3 OG        -65.7800   53.4700  -29.6800 O.3       1 SER1        0.0000 
      4 OG        -64.3800   52.9600  -29.7800 O.3       1 SER1        0.0000 
      5 OG        -64.3500   52.3600  -26.4800 O.3       1 SER1        0.0000 
      6 OG        -64.1300   53.2200  -27.6900 O.3       1 SER1        0.0000 
      7 OG        -63.9100   54.0800  -28.9000 O.3       1 SER1        0.0000 
      8 OG        -63.6900   54.9400  -30.1100 O.3       1 SER1        0.0000 
      9 OG        -63.6600   54.3400  -26.8100 O.3       1 SER1        0.0000 
     10 OG        -63.4400   55.2000  -28.0200 O.3       1 SER1        0.0000 
     11 N         -65.0900   51.5900  -32.7600 N.am      2 ALA2        0.0000 
     12 N         -64.8700   52.4500  -33.9700 N.am      2 ALA2        0.0000 
     13 N         -65.0600   50.9800  -29.4600 N.am      2 ALA2        0.0000 
     14 N         -63.6600   50.4800  -29.5600 N.am      2 ALA2        0.0000 
     15 N         -66.2500   52.3500  -30.5600 N.am      2 ALA2        0.0000 
     16 N         -63.4400   51.3400  -30.7700 N.am      2 ALA2        0.0000 
     17 N         -66.0300   53.2100  -31.7700 N.am      2 ALA2        0.0000 
     18 N         -64.6200   52.7000  -31.8700 N.am      2 ALA2        0.0000 
     19 N         -63.2100   52.2000  -31.9800 N.am      2 ALA2        0.0000 
     20 N         -64.4000   53.5700  -33.0800 N.am      2 ALA2        0.0000 
     21 N         -62.9900   53.0600  -33.1900 N.am      2 ALA2        0.0000 
     22 O         -61.5900   52.5500  -33.2900 O.2       2 ALA2        0.0000 
     23 N         -64.1800   54.4300  -34.2900 N.am      2 ALA2        0.0000 
     24 O         -61.3600   53.4200  -34.5000 O.2       2 ALA2        0.0000 
     25 O         -59.9600   52.9100  -34.6000 O.2       2 ALA2        0.0000 
     26 N         -63.9300   54.6800  -32.2000 N.am      2 ALA2        0.0000 
     27 N         -63.7100   55.5500  -33.4100 N.am      2 ALA2        0.0000 
     28 O         -63.4700   55.8000  -31.3200 O.2       2 ALA2        0.0000 
     29 NZ        -62.7700   53.9200  -34.3900 N.4       3 LYS4        0.0000 
     30 CZ        -63.1900   51.5900  -28.6800 C.ar      4 PHE5        0.0000 
     31 CZ        -61.7800   51.0900  -28.7800 C.ar      4 PHE5        0.0000 
     32 CZ        -61.5600   51.9500  -29.9900 C.ar      4 PHE5        0.0000 
     33 CZ        -59.7100   53.1700  -32.5100 C.ar      4 PHE5        0.0000 
     34 CZ        -62.7200   52.7100  -27.8000 C.ar      4 PHE5        0.0000 
     35 CA        -62.0300   50.8300  -30.8700 C.3       5 GLY6        0.0000 
     36 CA        -61.8100   51.6900  -32.0800 C.3       5 GLY6        0.0000 
     37 CA        -65.5600   54.3300  -30.8900 C.3       5 GLY6        0.0000 
     38 CA        -61.3400   52.8100  -31.2000 C.3       5 GLY6        0.0000 
     39 CA        -62.5300   54.1800  -32.3000 C.3       5 GLY6        0.0000 
     40 CA        -61.1200   53.6700  -32.4100 C.3       5 GLY6        0.0000 
     41 CA        -62.3100   55.0400  -33.5100 C.3       5 GLY6        0.0000 
     42 CA        -62.2800   54.4400  -30.2100 C.3       5 GLY6        0.0000 
     43 CA        -60.8700   53.9300  -30.3200 C.3       5 GLY6        0.0000 
     44 CA        -59.4600   53.4200  -30.4200 C.3       5 GLY6        0.0000 
     45 DU        -62.9700   52.4600  -29.8900 H         6 CUB7        0.0000 
     46 DU        -64.1600   53.8200  -30.9900 H         6 CUB7        0.0000 
     47 DU        -62.7500   53.3200  -31.0900 H         6 CUB7        0.0000 
     48 DU        -62.5000   53.5700  -29.0000 H         6 CUB7        0.0000 
@<TRIPOS>BOND
@<TRIPOS>SUBSTRUCTURE
     1 SER1        1 GROUP   
     2 ALA2       11 GROUP   
     3 LYS4       29 GROUP   
     4 PHE5       30 GROUP   
     5 GLY6       35 GROUP   
     6 CUB7       45 GROUP   
@<TRIPOS>SET

