#    Name: 6imz_1_VGH
#    Modification time : Fri May 22 19:26:20 2020

@<TRIPOS>MOLECULE
6imz_1_VGH
   30    33     1     0     0
SMALL
NO_CHARGES


@<TRIPOS>ATOM
      1 CL         25.3810  -14.4910   19.5820 Cl        1 VGH205      0.0000 
      2 C13        24.4180  -14.6830   18.1390 C.ar      1 VGH205      0.0000 
      3 C3         24.9990  -15.3600   17.0740 C.ar      1 VGH205      0.0000 
      4 C2         24.2980  -15.5550   15.8930 C.ar      1 VGH205      0.0000 
      5 C12        23.0060  -15.0660   15.7660 C.ar      1 VGH205      0.0000 
      6 F          22.3070  -15.2480   14.6060 F         1 VGH205      0.0000 
      7 C17        23.1130  -14.1880   18.0110 C.ar      1 VGH205      0.0000 
      8 C18        22.4230  -14.3860   16.8250 C.ar      1 VGH205      0.0000 
      9 CL2        20.8310  -13.7770   16.6840 Cl        1 VGH205      0.0000 
     10 C21        22.4220  -13.4920   19.0120 C.3       1 VGH205      0.0000 
     11 C1         22.1100  -14.4170   20.2030 C.3       1 VGH205      0.0000 
     12 O27        23.1230  -12.3180   19.4390 O.3       1 VGH205      0.0000 
     13 C15        23.5680  -11.4120   18.5180 C.ar      1 VGH205      0.0000 
     14 C4         24.8870  -11.4290   18.0990 C.ar      1 VGH205      0.0000 
     15 C19        22.7050  -10.4220   18.0520 C.ar      1 VGH205      0.0000 
     16 N22        21.4490  -10.4370   18.5000 N.pl3     1 VGH205      0.0000 
     17 N23        23.1410   -9.5000   17.1720 N.ar      1 VGH205      0.0000 
     18 C5         24.4810   -9.5220   16.7170 C.ar      1 VGH205      0.0000 
     19 C14        25.3560  -10.4940   17.1970 C.ar      1 VGH205      0.0000 
     20 C16        26.6290  -10.6160   16.8160 C.2       1 VGH205      0.0000 
     21 C6         27.2200  -11.7940   16.6760 C.2       1 VGH205      0.0000 
     22 C7         27.5100   -9.6720   16.5160 C.2       1 VGH205      0.0000 
     23 N26        28.6380  -10.3250   16.1900 N.pl3     1 VGH205      0.0000 
     24 N24        28.4670  -11.5440   16.2860 N.2       1 VGH205      0.0000 
     25 C20        29.9600   -9.7870   15.7650 C.3       1 VGH205      0.0000 
     26 C8         30.5860  -10.7040   14.7210 C.3       1 VGH205      0.0000 
     27 C10        31.8990  -10.1000   14.2300 C.3       1 VGH205      0.0000 
     28 N25        32.2590   -8.8960   14.9940 N.4       1 VGH205      0.0000 
     29 C11        32.2960   -9.2030   16.4320 C.3       1 VGH205      0.0000 
     30 C9         30.9200   -9.6460   16.9370 C.3       1 VGH205      0.0000 
@<TRIPOS>BOND
     1    1    2 1    
     2    2    3 ar   
     3    2    7 ar   
     4    3    4 ar   
     5    4    5 ar   
     6    5    6 1    
     7    5    8 ar   
     8    7    8 ar   
     9    7   10 1    
    10    8    9 1    
    11   10   11 1    
    12   10   12 1    
    13   12   13 1    
    14   13   14 ar   
    15   13   15 ar   
    16   14   19 ar   
    17   15   16 1    
    18   15   17 ar   
    19   17   18 ar   
    20   18   19 ar   
    21   19   20 1    
    22   20   21 1    
    23   20   22 2    
    24   21   24 2    
    25   22   23 1    
    26   23   24 1    
    27   23   25 1    
    28   25   26 1    
    29   25   30 1    
    30   26   27 1    
    31   27   28 1    
    32   28   29 1    
    33   29   30 1    
@<TRIPOS>SUBSTRUCTURE
     1 VGH205      1 GROUP   
@<TRIPOS>SET

