#    Name: 6k9v_5_ACP
#    Modification time : Fri May 22 19:31:45 2020

@<TRIPOS>MOLECULE
6k9v_5_ACP
   35    37     1     0     1
SMALL
NO_CHARGES


@<TRIPOS>ATOM
      1 PG          7.9030  -49.1850  -93.6250 P.3       1 ACP401      0.0000 
      2 O1G         6.7010  -48.4120  -93.3180 O.co2     1 ACP401      0.0000 
      3 O2G         8.6740  -49.4530  -92.2520 O.co2     1 ACP401      0.0000 
      4 O3G         7.5230  -50.6670  -94.0960 O.co2     1 ACP401      0.0000 
      5 PB         10.1670  -49.8450  -95.2250 P.3       1 ACP401      0.0000 
      6 O1B         9.5380  -51.0590  -94.6550 O.co2     1 ACP401      0.0000 
      7 O2B        11.5090  -49.5480  -94.4200 O.co2     1 ACP401      0.0000 
      8 C3B         9.0150  -48.5080  -94.8750 C.3       1 ACP401      0.0000 
      9 PA         10.2060  -51.1550  -97.7630 P.3       1 ACP401      0.0000 
     10 O1A         8.8340  -51.6370  -97.4890 O.co2     1 ACP401      0.0000 
     11 O2A        11.3070  -52.1360  -97.8430 O.co2     1 ACP401      0.0000 
     12 O3A        10.5320  -49.9470  -96.7810 O.3       1 ACP401      0.0000 
     13 O5'        10.1440  -50.3900  -99.1480 O.3       1 ACP401      0.0000 
     14 C5'         8.9280  -49.6810  -99.3140 C.3       1 ACP401      0.0000 
     15 C4'         8.7300  -48.9870 -100.6450 C.3       1 ACP401      0.0000 
     16 O4'         9.3040  -49.7290 -101.7010 O.3       1 ACP401      0.0000 
     17 C3'         7.2530  -48.9770 -100.9210 C.3       1 ACP401      0.0000 
     18 O3'         6.9560  -47.6880 -101.4410 O.3       1 ACP401      0.0000 
     19 C2'         7.0440  -50.0650 -101.9410 C.3       1 ACP401      0.0000 
     20 O2'         6.1040  -49.6820 -102.9200 O.3       1 ACP401      0.0000 
     21 C1'         8.3420  -50.1300 -102.6560 C.3       1 ACP401      0.0000 
     22 N9          8.7370  -51.4670 -103.1070 N.pl3     1 ACP401      0.0000 
     23 C8          9.4760  -52.3110 -102.3950 C.2       1 ACP401      0.0000 
     24 N7          9.7350  -53.4390 -103.0800 N.2       1 ACP401      0.0000 
     25 C5          9.1550  -53.3170 -104.2660 C.ar      1 ACP401      0.0000 
     26 C6          9.0430  -54.1530 -105.4620 C.ar      1 ACP401      0.0000 
     27 N6          9.6130  -55.3670 -105.5310 N.pl3     1 ACP401      0.0000 
     28 N1          8.3590  -53.6550 -106.4970 N.ar      1 ACP401      0.0000 
     29 C2          7.7920  -52.4500 -106.4380 C.ar      1 ACP401      0.0000 
     30 N3          7.8580  -51.6440 -105.3740 N.ar      1 ACP401      0.0000 
     31 C4          8.5150  -52.0110 -104.2800 C.ar      1 ACP401      0.0000 
     32 H3B1        9.5390  -47.6270  -94.4980 H         1 ACP401      0.0000 
     33 H3B2        8.4560  -48.2420  -95.7730 H         1 ACP401      0.0000 
     34 H5'1        8.8170  -48.9620  -98.5050 H         1 ACP401      0.0000 
     35 H5'2        8.1140  -50.3980  -99.1930 H         1 ACP401      0.0000 
@<TRIPOS>BOND
     1    1    2 ar   
     2    1    3 ar   
     3    1    4 ar   
     4    1    8 1    
     5    5    6 ar   
     6    5    7 ar   
     7    5    8 1    
     8    5   12 1    
     9    8   32 1    
    10    8   33 1    
    11    9   10 ar   
    12    9   11 ar   
    13    9   12 1    
    14    9   13 1    
    15   13   14 1    
    16   14   15 1    
    17   14   34 1    
    18   14   35 1    
    19   15   16 1    
    20   15   17 1    
    21   16   21 1    
    22   17   18 1    
    23   17   19 1    
    24   19   20 1    
    25   19   21 1    
    26   21   22 1    
    27   22   23 1    
    28   22   31 1    
    29   23   24 2    
    30   24   25 1    
    31   25   26 ar   
    32   25   31 ar   
    33   26   27 1    
    34   26   28 ar   
    35   28   29 ar   
    36   29   30 ar   
    37   30   31 ar   
@<TRIPOS>SUBSTRUCTURE
     1 ACP401      1 GROUP   
@<TRIPOS>SET
ATOM$ORANGE STATIC     ATOMS   COLORGROUP SYSTEM 
22 8 8 14 14 15 15 17 17 19 19 21 21 23 23 25 25 26 \
26 29 29 31 31 

