#    Name: 6k9v_1_GTP_CAVITY_N1_ALL
#    Modification time : Fri May 22 19:31:27 2020

@<TRIPOS>MOLECULE
6k9v_1_GTP_CAVITY_N1_ALL
   70     0     7     0     0
SMALL
NO_CHARGES


@<TRIPOS>ATOM
      1 OG         21.1700  -80.4100  -40.4700 O.3       1 SER1        0.0000 
      2 OG         20.3200  -78.6900  -39.5700 O.3       1 SER1        0.0000 
      3 OG         21.4500  -77.8600  -40.1100 O.3       1 SER1        0.0000 
      4 OG         21.5800  -77.1800  -38.7700 O.3       1 SER1        0.0000 
      5 O          16.4300  -82.6800  -45.6100 O.2       2 ALA2        0.0000 
      6 O          17.5400  -83.0600  -43.8400 O.2       2 ALA2        0.0000 
      7 O          16.5600  -82.0100  -44.2800 O.2       2 ALA2        0.0000 
      8 O          18.8000  -81.5500  -43.0400 O.2       2 ALA2        0.0000 
      9 O          19.9300  -80.7200  -43.5700 O.2       2 ALA2        0.0000 
     10 O          17.8200  -80.5000  -43.4800 O.2       2 ALA2        0.0000 
     11 N          18.9500  -79.6700  -44.0100 N.am      2 ALA2        0.0000 
     12 O          17.9800  -78.6200  -44.4500 O.2       2 ALA2        0.0000 
     13 N          17.0000  -77.5700  -44.8900 N.am      2 ALA2        0.0000 
     14 N          21.1900  -79.2100  -42.7700 N.am      2 ALA2        0.0000 
     15 N          17.9500  -79.8200  -42.1400 N.am      2 ALA2        0.0000 
     16 N          19.0800  -78.9900  -42.6800 N.am      2 ALA2        0.0000 
     17 N          15.8400  -79.6000  -42.0500 N.am      2 ALA2        0.0000 
     18 N          16.9700  -78.7700  -42.5800 N.am      2 ALA2        0.0000 
     19 N          20.1900  -79.3600  -40.9100 N.am      2 ALA2        0.0000 
     20 N          21.3200  -78.5300  -41.4400 N.am      2 ALA2        0.0000 
     21 N          18.0800  -79.1400  -40.8100 N.am      2 ALA2        0.0000 
     22 N          18.2100  -78.4600  -39.4800 N.am      2 ALA2        0.0000 
     23 N          19.4700  -76.9600  -38.6800 N.am      2 ALA2        0.0000 
     24 N          20.6000  -76.1300  -39.2100 N.am      2 ALA2        0.0000 
     25 OD1        20.5800  -77.3300  -36.9100 O.co2     3 ASP3        0.0000 
     26 OD1        19.6000  -76.2800  -37.3500 O.co2     3 ASP3        0.0000 
     27 OD1        20.7300  -75.4500  -37.8800 O.co2     3 ASP3        0.0000 
     28 NZ         19.7800  -82.6000  -42.6000 N.4       4 LYS4        0.0000 
     29 NZ         17.6700  -82.3800  -42.5000 N.4       4 LYS4        0.0000 
     30 NZ         19.9000  -81.9200  -41.2600 N.4       4 LYS4        0.0000 
     31 NZ         17.8000  -81.7000  -41.1700 N.4       4 LYS4        0.0000 
     32 NZ         18.9000  -82.0700  -39.4000 N.4       4 LYS4        0.0000 
     33 NZ         17.9300  -81.0200  -39.8400 N.4       4 LYS4        0.0000 
     34 NZ         19.0300  -81.3900  -38.0700 N.4       4 LYS4        0.0000 
     35 NZ         18.0600  -80.3400  -38.5100 N.4       4 LYS4        0.0000 
     36 NZ         20.1400  -81.7700  -36.3000 N.4       4 LYS4        0.0000 
     37 NZ         19.1600  -80.7200  -36.7400 N.4       4 LYS4        0.0000 
     38 NZ         18.1900  -79.6700  -37.1800 N.4       4 LYS4        0.0000 
     39 NZ         22.7100  -76.3500  -39.3100 N.4       4 LYS4        0.0000 
     40 NZ         21.7100  -76.5000  -37.4400 N.4       4 LYS4        0.0000 
     41 NZ         22.8400  -75.6700  -37.9700 N.4       4 LYS4        0.0000 
     42 CZ         16.7200  -80.1300  -45.2500 C.ar      5 PHE5        0.0000 
     43 CZ         14.6100  -79.9000  -45.1500 C.ar      5 PHE5        0.0000 
     44 CA         15.8700  -78.4000  -44.3600 C.3       6 GLY6        0.0000 
     45 CA         21.0400  -81.0900  -41.8000 C.3       6 GLY6        0.0000 
     46 CA         20.0600  -80.0400  -42.2400 C.3       6 GLY6        0.0000 
     47 CA         20.0300  -81.2400  -39.9300 C.3       6 GLY6        0.0000 
     48 CA         20.1600  -80.5600  -38.6000 C.3       6 GLY6        0.0000 
     49 CA         15.9500  -80.1200  -38.4200 C.3       6 GLY6        0.0000 
     50 CA         17.0800  -79.2900  -38.9500 C.3       6 GLY6        0.0000 
     51 CA         20.2900  -79.8900  -37.2700 C.3       6 GLY6        0.0000 
     52 CA         20.4500  -78.0100  -38.2400 C.3       6 GLY6        0.0000 
     53 CA         18.3400  -77.7900  -38.1500 C.3       6 GLY6        0.0000 
     54 CA         21.7300  -75.3000  -39.7500 C.3       6 GLY6        0.0000 
     55 CA         18.4900  -75.9100  -39.1200 C.3       6 GLY6        0.0000 
     56 CA         20.4200  -79.2100  -35.9400 C.3       6 GLY6        0.0000 
     57 CA         21.5500  -78.3800  -36.4700 C.3       6 GLY6        0.0000 
     58 CA         19.4500  -78.1600  -36.3800 C.3       6 GLY6        0.0000 
     59 CA         18.4700  -77.1100  -36.8200 C.3       6 GLY6        0.0000 
     60 CA         21.8600  -74.6200  -38.4100 C.3       6 GLY6        0.0000 
     61 DU         15.5800  -80.9600  -44.7100 H         7 CUB7        0.0000 
     62 DU         16.6900  -81.3300  -42.9400 H         7 CUB7        0.0000 
     63 DU         15.7100  -80.2800  -43.3800 H         7 CUB7        0.0000 
     64 DU         16.8500  -79.4500  -43.9200 H         7 CUB7        0.0000 
     65 DU         18.9300  -80.8700  -41.7000 H         7 CUB7        0.0000 
     66 DU         16.8200  -80.6500  -41.6100 H         7 CUB7        0.0000 
     67 DU         19.0600  -80.1900  -40.3700 H         7 CUB7        0.0000 
     68 DU         16.9500  -79.9700  -40.2800 H         7 CUB7        0.0000 
     69 DU         19.1900  -79.5100  -39.0400 H         7 CUB7        0.0000 
     70 DU         19.3200  -78.8400  -37.7100 H         7 CUB7        0.0000 
@<TRIPOS>BOND
@<TRIPOS>SUBSTRUCTURE
     1 SER1        1 GROUP   
     2 ALA2        5 GROUP   
     3 ASP3       25 GROUP   
     4 LYS4       28 GROUP   
     5 PHE5       42 GROUP   
     6 GLY6       44 GROUP   
     7 CUB7       61 GROUP   
@<TRIPOS>SET

