#    Name: 6k9v_1_GTP_CAVITY_N1_8
#    Modification time : Fri May 22 19:31:27 2020

@<TRIPOS>MOLECULE
6k9v_1_GTP_CAVITY_N1_8
   26     0     6     0     0
SMALL
NO_CHARGES


@<TRIPOS>ATOM
      1 OG         21.4500  -77.8600  -40.1100 O.3       1 SER1        0.0000 
      2 O          16.4300  -82.6800  -45.6100 O.2       2 ALA2        0.0000 
      3 O          17.5400  -83.0600  -43.8400 O.2       2 ALA2        0.0000 
      4 O          16.5600  -82.0100  -44.2800 O.2       2 ALA2        0.0000 
      5 O          18.8000  -81.5500  -43.0400 O.2       2 ALA2        0.0000 
      6 O          19.9300  -80.7200  -43.5700 O.2       2 ALA2        0.0000 
      7 O          17.8200  -80.5000  -43.4800 O.2       2 ALA2        0.0000 
      8 N          18.9500  -79.6700  -44.0100 N.am      2 ALA2        0.0000 
      9 O          17.9800  -78.6200  -44.4500 O.2       2 ALA2        0.0000 
     10 N          17.0000  -77.5700  -44.8900 N.am      2 ALA2        0.0000 
     11 N          21.1900  -79.2100  -42.7700 N.am      2 ALA2        0.0000 
     12 N          19.0800  -78.9900  -42.6800 N.am      2 ALA2        0.0000 
     13 N          16.9700  -78.7700  -42.5800 N.am      2 ALA2        0.0000 
     14 N          21.3200  -78.5300  -41.4400 N.am      2 ALA2        0.0000 
     15 NZ         22.7100  -76.3500  -39.3100 N.4       3 LYS4        0.0000 
     16 NZ         22.8400  -75.6700  -37.9700 N.4       3 LYS4        0.0000 
     17 CZ         16.7200  -80.1300  -45.2500 C.ar      4 PHE5        0.0000 
     18 CZ         14.6100  -79.9000  -45.1500 C.ar      4 PHE5        0.0000 
     19 CA         15.8700  -78.4000  -44.3600 C.3       5 GLY6        0.0000 
     20 CA         20.0600  -80.0400  -42.2400 C.3       5 GLY6        0.0000 
     21 CA         21.7300  -75.3000  -39.7500 C.3       5 GLY6        0.0000 
     22 CA         21.8600  -74.6200  -38.4100 C.3       5 GLY6        0.0000 
     23 DU         15.5800  -80.9600  -44.7100 H         6 CUB7        0.0000 
     24 DU         16.6900  -81.3300  -42.9400 H         6 CUB7        0.0000 
     25 DU         15.7100  -80.2800  -43.3800 H         6 CUB7        0.0000 
     26 DU         16.8500  -79.4500  -43.9200 H         6 CUB7        0.0000 
@<TRIPOS>BOND
@<TRIPOS>SUBSTRUCTURE
     1 SER1        1 GROUP   
     2 ALA2        2 GROUP   
     3 LYS4       15 GROUP   
     4 PHE5       17 GROUP   
     5 GLY6       19 GROUP   
     6 CUB7       23 GROUP   
@<TRIPOS>SET

