#    Name: 6k9v_2_GDP
#    Modification time : Fri May 22 19:31:38 2020

@<TRIPOS>MOLECULE
6k9v_2_GDP
   38    40     1     0     1
SMALL
NO_CHARGES


@<TRIPOS>ATOM
      1 PB         18.7100  -49.4930  -15.7530 P.3       1 GDP501      0.0000 
      2 O1B        19.4950  -50.1610  -16.8540 O.co2     1 GDP501      0.0000 
      3 O2B        18.1200  -50.5230  -14.8240 O.co2     1 GDP501      0.0000 
      4 O3B        19.6550  -48.6040  -14.9830 O.co2     1 GDP501      0.0000 
      5 O3A        17.5970  -48.5510  -16.4310 O.3       1 GDP501      0.0000 
      6 PA         16.1050  -48.9710  -16.8730 P.3       1 GDP501      0.0000 
      7 O1A        16.0590  -50.3620  -17.4560 O.co2     1 GDP501      0.0000 
      8 O2A        15.1040  -48.8070  -15.7560 O.co2     1 GDP501      0.0000 
      9 O5'        15.8920  -47.8700  -18.0230 O.3       1 GDP501      0.0000 
     10 C5'        14.7980  -46.9670  -18.0540 C.3       1 GDP501      0.0000 
     11 C4'        14.3650  -46.9500  -19.5070 C.3       1 GDP501      0.0000 
     12 O4'        14.0800  -48.3020  -19.8660 O.3       1 GDP501      0.0000 
     13 C3'        13.1120  -46.1460  -19.7550 C.3       1 GDP501      0.0000 
     14 O3'        13.2520  -45.5340  -21.0380 O.3       1 GDP501      0.0000 
     15 C2'        12.0010  -47.1730  -19.7000 C.3       1 GDP501      0.0000 
     16 O2'        10.9290  -46.9020  -20.6060 O.3       1 GDP501      0.0000 
     17 C1'        12.6810  -48.4760  -20.0660 C.3       1 GDP501      0.0000 
     18 N9         12.1970  -49.5730  -19.2100 N.pl3     1 GDP501      0.0000 
     19 C8         12.4490  -49.7440  -17.9020 C.2       1 GDP501      0.0000 
     20 N7         11.8470  -50.8730  -17.4460 N.2       1 GDP501      0.0000 
     21 C5         11.2030  -51.4330  -18.4860 C.2       1 GDP501      0.0000 
     22 C6         10.3710  -52.6300  -18.7110 C.2       1 GDP501      0.0000 
     23 O6         10.1080  -53.4270  -17.7950 O.2       1 GDP501      0.0000 
     24 N1          9.9030  -52.8390  -19.9330 N.am      1 GDP501      0.0000 
     25 C2         10.1520  -52.0170  -20.9620 C.2       1 GDP501      0.0000 
     26 N2          9.6220  -52.3280  -22.1680 N.pl3     1 GDP501      0.0000 
     27 N3         10.9030  -50.8980  -20.8400 N.2       1 GDP501      0.0000 
     28 C4         11.4410  -50.5690  -19.6450 C.2       1 GDP501      0.0000 
     29 H4'        15.1810  -46.5530  -20.1260 H         1 GDP501      0.0000 
     30 H3'        12.9790  -45.3970  -18.9630 H         1 GDP501      0.0000 
     31 HO3'       12.4600  -45.0160  -21.2360 H         1 GDP501      0.0000 
     32 H2'        11.6230  -47.2410  -18.6700 H         1 GDP501      0.0000 
     33 HO2'       10.5430  -46.0400  -20.4000 H         1 GDP501      0.0000 
     34 H1'        12.4760  -48.7020  -21.1210 H         1 GDP501      0.0000 
     35 H8         13.0460  -49.0750  -17.2950 H         1 GDP501      0.0000 
     36 HN1         9.3150  -53.6800  -20.1010 H         1 GDP501      0.0000 
     37 HN21        9.0580  -53.1590  -22.2720 H         1 GDP501      0.0000 
     38 HN22        9.7900  -51.7290  -22.9640 H         1 GDP501      0.0000 
@<TRIPOS>BOND
     1    1    2 ar   
     2    1    3 ar   
     3    1    4 ar   
     4    1    5 1    
     5    5    6 1    
     6    6    7 ar   
     7    6    8 ar   
     8    6    9 1    
     9    9   10 1    
    10   10   11 1    
    11   11   12 1    
    12   11   13 1    
    13   11   29 1    
    14   12   17 1    
    15   13   14 1    
    16   13   15 1    
    17   13   30 1    
    18   14   31 1    
    19   15   16 1    
    20   15   17 1    
    21   15   32 1    
    22   16   33 1    
    23   17   18 1    
    24   17   34 1    
    25   18   19 1    
    26   18   28 1    
    27   19   20 2    
    28   19   35 1    
    29   20   21 1    
    30   21   22 1    
    31   21   28 2    
    32   22   23 2    
    33   22   24 am   
    34   24   25 1    
    35   24   36 1    
    36   25   26 1    
    37   25   27 2    
    38   26   37 1    
    39   26   38 1    
    40   27   28 1    
@<TRIPOS>SUBSTRUCTURE
     1 GDP501      1 GROUP   
@<TRIPOS>SET
ATOM$ORANGE STATIC     ATOMS   COLORGROUP SYSTEM 
20 10 10 11 11 13 13 15 15 17 17 19 19 21 21 22 22 25 \
25 28 28 

