#    Name: 6k9v_1_GTP
#    Modification time : Fri May 22 19:31:24 2020

@<TRIPOS>MOLECULE
6k9v_1_GTP
   42    44     1     0     1
SMALL
NO_CHARGES


@<TRIPOS>ATOM
      1 PG         26.8050  -73.4640  -45.9040 P.3       1 GTP501      0.0000 
      2 O1G        28.1190  -73.5290  -45.1750 O.co2     1 GTP501      0.0000 
      3 O2G        25.7150  -74.1220  -45.0920 O.co2     1 GTP501      0.0000 
      4 O3G        26.4620  -72.0220  -46.1760 O.co2     1 GTP501      0.0000 
      5 O3B        27.0330  -74.2290  -47.3020 O.3       1 GTP501      0.0000 
      6 PB         26.1790  -75.5120  -47.7620 P.3       1 GTP501      0.0000 
      7 O1B        26.1180  -76.5600  -46.6780 O.co2     1 GTP501      0.0000 
      8 O2B        26.7860  -76.0580  -49.0280 O.co2     1 GTP501      0.0000 
      9 O3A        24.7100  -74.8990  -48.0010 O.3       1 GTP501      0.0000 
     10 PA         23.6300  -75.4930  -49.0350 P.3       1 GTP501      0.0000 
     11 O1A        22.3380  -75.6370  -48.2720 O.co2     1 GTP501      0.0000 
     12 O2A        24.0560  -76.8070  -49.6410 O.co2     1 GTP501      0.0000 
     13 O5'        23.5100  -74.3570  -50.1680 O.3       1 GTP501      0.0000 
     14 C5'        22.3870  -73.5160  -50.3030 C.3       1 GTP501      0.0000 
     15 C4'        21.6500  -73.8740  -51.5870 C.3       1 GTP501      0.0000 
     16 O4'        21.6550  -75.2770  -51.7400 O.3       1 GTP501      0.0000 
     17 C3'        20.2010  -73.4230  -51.5540 C.3       1 GTP501      0.0000 
     18 O3'        19.9030  -72.5930  -52.6520 O.3       1 GTP501      0.0000 
     19 C2'        19.3850  -74.6910  -51.6340 C.3       1 GTP501      0.0000 
     20 O2'        18.3030  -74.5230  -52.5160 O.3       1 GTP501      0.0000 
     21 C1'        20.3740  -75.7500  -52.0990 C.3       1 GTP501      0.0000 
     22 N9         20.1060  -77.0420  -51.4460 N.pl3     1 GTP501      0.0000 
     23 C8         20.3720  -77.3810  -50.1470 C.2       1 GTP501      0.0000 
     24 N7         19.9820  -78.6570  -49.9470 N.2       1 GTP501      0.0000 
     25 C5         19.4760  -79.1380  -51.1010 C.2       1 GTP501      0.0000 
     26 C6         18.9440  -80.3710  -51.4470 C.2       1 GTP501      0.0000 
     27 O6         18.8750  -81.2660  -50.6090 O.2       1 GTP501      0.0000 
     28 N1         18.4910  -80.5820  -52.7330 N.am      1 GTP501      0.0000 
     29 C2         18.5770  -79.5670  -53.6610 C.2       1 GTP501      0.0000 
     30 N2         18.1450  -79.7590  -54.9010 N.pl3     1 GTP501      0.0000 
     31 N3         19.1080  -78.3480  -53.3070 N.2       1 GTP501      0.0000 
     32 C4         19.5500  -78.1340  -52.0500 C.2       1 GTP501      0.0000 
     33 H4'        22.1520  -73.4010  -52.4310 H         1 GTP501      0.0000 
     34 H3'        19.9960  -72.9120  -50.6130 H         1 GTP501      0.0000 
     35 HO3'       19.2330  -73.0290  -53.2180 H         1 GTP501      0.0000 
     36 H2'        19.0260  -74.9490  -50.6380 H         1 GTP501      0.0000 
     37 HO2'       18.4020  -75.1360  -53.2740 H         1 GTP501      0.0000 
     38 H1'        20.3020  -75.8530  -53.1820 H         1 GTP501      0.0000 
     39 H8         20.8250  -76.7300  -49.4000 H         1 GTP501      0.0000 
     40 HN1        17.9960  -81.4640  -52.9710 H         1 GTP501      0.0000 
     41 HN21       18.2090  -79.0090  -55.5820 H         1 GTP501      0.0000 
     42 HN22       17.7470  -80.6540  -55.1670 H         1 GTP501      0.0000 
@<TRIPOS>BOND
     1    1    2 ar   
     2    1    3 ar   
     3    1    4 ar   
     4    1    5 1    
     5    5    6 1    
     6    6    7 ar   
     7    6    8 ar   
     8    6    9 1    
     9    9   10 1    
    10   10   11 ar   
    11   10   12 ar   
    12   10   13 1    
    13   13   14 1    
    14   14   15 1    
    15   15   16 1    
    16   15   17 1    
    17   15   33 1    
    18   16   21 1    
    19   17   18 1    
    20   17   19 1    
    21   17   34 1    
    22   18   35 1    
    23   19   20 1    
    24   19   21 1    
    25   19   36 1    
    26   20   37 1    
    27   21   22 1    
    28   21   38 1    
    29   22   23 1    
    30   22   32 1    
    31   23   24 2    
    32   23   39 1    
    33   24   25 1    
    34   25   26 1    
    35   25   32 2    
    36   26   27 2    
    37   26   28 am   
    38   28   29 1    
    39   28   40 1    
    40   29   30 1    
    41   29   31 2    
    42   30   41 1    
    43   30   42 1    
    44   31   32 1    
@<TRIPOS>SUBSTRUCTURE
     1 GTP501      1 GROUP   
@<TRIPOS>SET
ATOM$ORANGE STATIC     ATOMS   COLORGROUP SYSTEM 
20 14 14 15 15 17 17 19 19 21 21 23 23 25 25 26 26 29 \
29 32 32 

