#    Name: 6k9v_2_GDP_CAVITY_N1_6
#    Modification time : Fri May 22 19:31:40 2020

@<TRIPOS>MOLECULE
6k9v_2_GDP_CAVITY_N1_6
   17     0     5     0     0
SMALL
NO_CHARGES


@<TRIPOS>ATOM
      1 OG          7.6700  -46.2900  -15.9800 O.3       1 SER1        0.0000 
      2 O           7.7700  -56.2100  -14.3100 O.2       2 ALA2        0.0000 
      3 N           7.9300  -54.3300  -15.2900 N.am      2 ALA2        0.0000 
      4 O           5.8200  -54.1100  -15.1900 O.2       2 ALA2        0.0000 
      5 O           4.8400  -53.0600  -15.6300 O.2       2 ALA2        0.0000 
      6 O           8.0600  -53.6500  -13.9500 O.2       2 ALA2        0.0000 
      7 O           9.3200  -52.1500  -13.1500 O.2       2 ALA2        0.0000 
      8 O           9.6000  -49.5900  -12.8000 O.2       2 ALA2        0.0000 
      9 N          10.7300  -48.7600  -13.3300 N.am      2 ALA2        0.0000 
     10 O          10.8600  -48.0800  -12.0000 O.2       2 ALA2        0.0000 
     11 NZ         10.8900  -46.8800  -14.3000 N.4       3 LYS4        0.0000 
     12 NZ         11.0200  -46.2000  -12.9700 N.4       3 LYS4        0.0000 
     13 CZ          6.1100  -51.5500  -14.8300 C.ar      4 PHE5        0.0000 
     14 CZ          8.3400  -51.1000  -13.5900 C.ar      4 PHE5        0.0000 
     15 CZ          8.6300  -48.5400  -13.2300 C.ar      4 PHE5        0.0000 
     16 CZ          9.7600  -47.7100  -13.7700 C.ar      4 PHE5        0.0000 
     17 CA          7.0800  -52.6000  -14.3900 C.3       5 GLY6        0.0000 
@<TRIPOS>BOND
@<TRIPOS>SUBSTRUCTURE
     1 SER1        1 GROUP   
     2 ALA2        2 GROUP   
     3 LYS4       11 GROUP   
     4 PHE5       13 GROUP   
     5 GLY6       17 GROUP   
@<TRIPOS>SET

