#    Name: 6k9v_2_GDP_CAVITY_N1_8
#    Modification time : Fri May 22 19:31:40 2020

@<TRIPOS>MOLECULE
6k9v_2_GDP_CAVITY_N1_8
   68     0     6     0     0
SMALL
NO_CHARGES


@<TRIPOS>ATOM
      1 OG          7.6700  -46.2900  -15.9800 O.3       1 SER1        0.0000 
      2 OG          6.7000  -45.2400  -16.4200 O.3       1 SER1        0.0000 
      3 O           7.7700  -56.2100  -14.3100 O.2       2 ALA2        0.0000 
      4 N           7.9300  -54.3300  -15.2900 N.am      2 ALA2        0.0000 
      5 O           5.8200  -54.1100  -15.1900 O.2       2 ALA2        0.0000 
      6 O           3.7100  -53.8900  -15.1000 O.2       2 ALA2        0.0000 
      7 O           4.8400  -53.0600  -15.6300 O.2       2 ALA2        0.0000 
      8 N           4.1800  -48.2500  -18.0200 N.am      2 ALA2        0.0000 
      9 N           3.3500  -45.3200  -19.4300 N.am      2 ALA2        0.0000 
     10 O           8.0600  -53.6500  -13.9500 O.2       2 ALA2        0.0000 
     11 O           4.1500  -49.4500  -15.7100 O.2       2 ALA2        0.0000 
     12 N           4.6200  -43.8100  -18.6300 N.am      2 ALA2        0.0000 
     13 O           9.3200  -52.1500  -13.1500 O.2       2 ALA2        0.0000 
     14 N           5.7200  -44.1900  -16.8600 N.am      2 ALA2        0.0000 
     15 O           9.4500  -51.4700  -11.8200 O.2       2 ALA2        0.0000 
     16 O           9.6000  -49.5900  -12.8000 O.2       2 ALA2        0.0000 
     17 N          10.7300  -48.7600  -13.3300 N.am      2 ALA2        0.0000 
     18 N           6.3600  -50.2000  -12.1700 N.am      2 ALA2        0.0000 
     19 N           7.9600  -43.7300  -15.6200 N.am      2 ALA2        0.0000 
     20 N           5.8500  -43.5100  -15.5300 N.am      2 ALA2        0.0000 
     21 O           9.7300  -48.9100  -11.4600 O.2       2 ALA2        0.0000 
     22 O          10.8600  -48.0800  -12.0000 O.2       2 ALA2        0.0000 
     23 N           7.6300  -48.6900  -11.3700 N.am      2 ALA2        0.0000 
     24 N           9.8600  -48.2300  -10.1300 N.am      2 ALA2        0.0000 
     25 NZ         10.8900  -46.8800  -14.3000 N.4       3 LYS4        0.0000 
     26 NZ          8.7800  -46.6600  -14.2100 N.4       3 LYS4        0.0000 
     27 NZ          7.8000  -45.6100  -14.6500 N.4       3 LYS4        0.0000 
     28 NZ          6.8300  -44.5600  -15.0900 N.4       3 LYS4        0.0000 
     29 NZ         11.0200  -46.2000  -12.9700 N.4       3 LYS4        0.0000 
     30 NZ          8.9100  -45.9800  -12.8700 N.4       3 LYS4        0.0000 
     31 NZ         10.0400  -45.1500  -13.4100 N.4       3 LYS4        0.0000 
     32 NZ          7.9300  -44.9300  -13.3100 N.4       3 LYS4        0.0000 
     33 NZ          9.0700  -44.1000  -13.8500 N.4       3 LYS4        0.0000 
     34 NZ         11.1500  -45.5200  -11.6400 N.4       3 LYS4        0.0000 
     35 NZ         10.1700  -44.4700  -12.0800 N.4       3 LYS4        0.0000 
     36 NZ         12.2500  -45.9000   -9.8600 N.4       3 LYS4        0.0000 
     37 CZ          6.1100  -51.5500  -14.8300 C.ar      4 PHE5        0.0000 
     38 CZ          5.1300  -50.5000  -15.2700 C.ar      4 PHE5        0.0000 
     39 CZ          5.2800  -48.6200  -16.2400 C.ar      4 PHE5        0.0000 
     40 CZ          5.4400  -46.7400  -17.2200 C.ar      4 PHE5        0.0000 
     41 CZ          8.3400  -51.1000  -13.5900 C.ar      4 PHE5        0.0000 
     42 CZ          6.2300  -50.8700  -13.5000 C.ar      4 PHE5        0.0000 
     43 CZ          5.2600  -49.8200  -13.9400 C.ar      4 PHE5        0.0000 
     44 CZ          6.3900  -49.0000  -14.4700 C.ar      4 PHE5        0.0000 
     45 CZ          5.4100  -47.9500  -14.9100 C.ar      4 PHE5        0.0000 
     46 CZ          6.5400  -47.1200  -15.4500 C.ar      4 PHE5        0.0000 
     47 CZ          5.5700  -46.0700  -15.8900 C.ar      4 PHE5        0.0000 
     48 CZ          7.5000  -49.3700  -12.7000 C.ar      4 PHE5        0.0000 
     49 CZ          8.6300  -48.5400  -13.2300 C.ar      4 PHE5        0.0000 
     50 CZ          9.7600  -47.7100  -13.7700 C.ar      4 PHE5        0.0000 
     51 CZ          7.6500  -47.4900  -13.6700 C.ar      4 PHE5        0.0000 
     52 CZ          6.6700  -46.4400  -14.1100 C.ar      4 PHE5        0.0000 
     53 CA          5.3100  -47.4200  -18.5500 C.3       5 GLY6        0.0000 
     54 CA          4.3300  -46.3700  -18.9900 C.3       5 GLY6        0.0000 
     55 CA          7.0800  -52.6000  -14.3900 C.3       5 GLY6        0.0000 
     56 CA          4.9700  -52.3800  -14.3000 C.3       5 GLY6        0.0000 
     57 CA          4.0000  -51.3300  -14.7400 C.3       5 GLY6        0.0000 
     58 CA          4.4600  -45.6900  -17.6600 C.3       5 GLY6        0.0000 
     59 CA          5.5900  -44.8600  -18.1900 C.3       5 GLY6        0.0000 
     60 CA          4.1300  -50.6500  -13.4100 C.3       5 GLY6        0.0000 
     61 CA         10.0200  -46.3500  -11.1000 C.3       5 GLY6        0.0000 
     62 DU          4.3100  -47.5700  -16.6800 H         6 CUB7        0.0000 
     63 DU          5.1000  -51.7000  -12.9700 H         6 CUB7        0.0000 
     64 DU          4.7400  -43.1400  -17.3000 H         6 CUB7        0.0000 
     65 DU          8.7600  -47.8600  -11.9000 H         6 CUB7        0.0000 
     66 DU          9.8900  -47.0300  -12.4400 H         6 CUB7        0.0000 
     67 DU          7.7800  -46.8100  -12.3400 H         6 CUB7        0.0000 
     68 DU         10.9900  -47.4000  -10.6600 H         6 CUB7        0.0000 
@<TRIPOS>BOND
@<TRIPOS>SUBSTRUCTURE
     1 SER1        1 GROUP   
     2 ALA2        3 GROUP   
     3 LYS4       25 GROUP   
     4 PHE5       37 GROUP   
     5 GLY6       53 GROUP   
     6 CUB7       62 GROUP   
@<TRIPOS>SET

