#    Name: 6k9v_1_GTP_CAVITY_N1_6
#    Modification time : Fri May 22 19:31:27 2020

@<TRIPOS>MOLECULE
6k9v_1_GTP_CAVITY_N1_6
    4     0     2     0     0
SMALL
NO_CHARGES


@<TRIPOS>ATOM
      1 O          16.4300  -82.6800  -45.6100 O.2       1 ALA2        0.0000 
      2 O          17.9800  -78.6200  -44.4500 O.2       1 ALA2        0.0000 
      3 N          17.0000  -77.5700  -44.8900 N.am      1 ALA2        0.0000 
      4 CZ         16.7200  -80.1300  -45.2500 C.ar      2 PHE5        0.0000 
@<TRIPOS>BOND
@<TRIPOS>SUBSTRUCTURE
     1 ALA2        1 GROUP   
     2 PHE5        4 GROUP   
@<TRIPOS>SET

