#    Name: 6up7_1_ARG_ARG_PRO_TYR_ILE_LEU_CAVITY_N1_4
#    Modification time : Fri May 22 19:27:35 2020

@<TRIPOS>MOLECULE
6up7_1_ARG_ARG_PRO_TYR_ILE_LEU_CAVITY_N1_4
   63     0     5     0     0
SMALL
NO_CHARGES


@<TRIPOS>ATOM
      1 OG        112.4200  134.7200  134.7700 O.3       1 SER1        0.0000 
      2 OG        112.6900  135.3100  136.1300 O.3       1 SER1        0.0000 
      3 OG        110.5800  137.3900  135.6500 O.3       1 SER1        0.0000 
      4 OG        111.6100  138.3000  135.0500 O.3       1 SER1        0.0000 
      5 OG        111.9300  134.9900  138.0800 O.3       1 SER1        0.0000 
      6 OG        112.9600  135.9000  137.4800 O.3       1 SER1        0.0000 
      7 OG        111.9100  136.9400  137.2400 O.3       1 SER1        0.0000 
      8 OG        112.9400  137.8500  136.6400 O.3       1 SER1        0.0000 
      9 OG        109.8200  137.0700  137.6100 O.3       1 SER1        0.0000 
     10 OG        115.3200  136.3600  138.4700 O.3       1 SER1        0.0000 
     11 OG        112.2100  135.5800  139.4300 O.3       1 SER1        0.0000 
     12 OG        113.2400  136.4900  138.8300 O.3       1 SER1        0.0000 
     13 OG        112.1800  137.5300  138.5900 O.3       1 SER1        0.0000 
     14 OG        113.2100  138.4300  137.9900 O.3       1 SER1        0.0000 
     15 OG        110.1000  137.6600  138.9600 O.3       1 SER1        0.0000 
     16 OG        112.4800  136.1700  140.7900 O.3       1 SER1        0.0000 
     17 OG        111.4000  139.1500  139.7100 O.3       1 SER1        0.0000 
     18 OD1       113.7200  136.2200  135.5200 O.co2     2 ASP3        0.0000 
     19 OD1       112.6700  137.2600  135.2800 O.co2     2 ASP3        0.0000 
     20 OD1       118.1700  136.5400  136.1500 O.co2     2 ASP3        0.0000 
     21 OD1       116.0800  136.6700  136.5100 O.co2     2 ASP3        0.0000 
     22 OD1       117.1100  137.5800  135.9100 O.co2     2 ASP3        0.0000 
     23 OD1       115.0300  137.7100  136.2700 O.co2     2 ASP3        0.0000 
     24 OD1       116.0600  138.6200  135.6700 O.co2     2 ASP3        0.0000 
     25 CZ        111.0900  135.1700  133.1800 C.ar      3 PHE5        0.0000 
     26 CZ        111.3600  135.7600  134.5400 C.ar      3 PHE5        0.0000 
     27 CZ        110.3100  136.8000  134.3000 C.ar      3 PHE5        0.0000 
     28 CZ        111.6600  134.4000  136.7300 C.ar      3 PHE5        0.0000 
     29 CZ        110.6100  135.4400  136.4900 C.ar      3 PHE5        0.0000 
     30 CZ        111.6400  136.3500  135.8900 C.ar      3 PHE5        0.0000 
     31 CZ        117.1400  135.6400  136.7500 C.ar      3 PHE5        0.0000 
     32 CZ        109.8500  135.1200  138.4500 C.ar      3 PHE5        0.0000 
     33 CZ        110.8800  136.0300  137.8400 C.ar      3 PHE5        0.0000 
     34 CZ        113.9700  138.7500  136.0300 C.ar      3 PHE5        0.0000 
     35 CZ        115.0000  139.6600  135.4300 C.ar      3 PHE5        0.0000 
     36 CZ        108.7900  136.1600  138.2100 C.ar      3 PHE5        0.0000 
     37 CZ        116.3800  135.3200  138.7100 C.ar      3 PHE5        0.0000 
     38 CZ        115.3000  138.3000  137.6200 C.ar      3 PHE5        0.0000 
     39 CZ        116.3300  139.2100  137.0200 C.ar      3 PHE5        0.0000 
     40 CZ        117.3600  140.1200  136.4200 C.ar      3 PHE5        0.0000 
     41 CZ        110.1200  135.7100  139.8000 C.ar      3 PHE5        0.0000 
     42 CZ        114.2500  139.3400  137.3900 C.ar      3 PHE5        0.0000 
     43 CZ        115.5700  138.8900  138.9800 C.ar      3 PHE5        0.0000 
     44 CZ        113.4900  139.0200  139.3400 C.ar      3 PHE5        0.0000 
     45 CA        112.3900  136.6700  133.9300 C.3       4 GLY6        0.0000 
     46 CA        111.3400  137.7100  133.6900 C.3       4 GLY6        0.0000 
     47 CA        113.7000  138.1600  134.6800 C.3       4 GLY6        0.0000 
     48 CA        114.7300  139.0700  134.0800 C.3       4 GLY6        0.0000 
     49 CA        112.6400  139.2000  134.4400 C.3       4 GLY6        0.0000 
     50 CA        117.4100  136.2200  138.1000 C.3       4 GLY6        0.0000 
     51 CA        116.3500  137.2600  137.8600 C.3       4 GLY6        0.0000 
     52 CA        117.3900  138.1700  137.2600 C.3       4 GLY6        0.0000 
     53 CA        114.5400  137.9800  139.5800 C.3       4 GLY6        0.0000 
     54 CA        113.7900  137.6600  141.5400 C.3       4 GLY6        0.0000 
     55 DU        114.0000  136.8100  136.8800 H         5 CUB7        0.0000 
     56 DU        117.0900  139.5300  135.0700 H         5 CUB7        0.0000 
     57 DU        114.2700  137.3900  138.2300 H         5 CUB7        0.0000 
     58 DU        111.1500  136.6200  139.2000 H         5 CUB7        0.0000 
     59 DU        109.0700  136.7500  139.5600 H         5 CUB7        0.0000 
     60 DU        113.5100  137.0800  140.1800 H         5 CUB7        0.0000 
     61 DU        110.4000  136.3000  141.1500 H         5 CUB7        0.0000 
     62 DU        111.4300  137.2100  140.5500 H         5 CUB7        0.0000 
     63 DU        112.4600  138.1200  139.9500 H         5 CUB7        0.0000 
@<TRIPOS>BOND
@<TRIPOS>SUBSTRUCTURE
     1 SER1        1 GROUP   
     2 ASP3       18 GROUP   
     3 PHE5       25 GROUP   
     4 GLY6       45 GROUP   
     5 CUB7       55 GROUP   
@<TRIPOS>SET

