#    Name: 6up7_1_ARG_ARG_PRO_TYR_ILE_LEU
#    Modification time : Fri May 22 19:27:34 2020

@<TRIPOS>MOLECULE
6up7_1_ARG_ARG_PRO_TYR_ILE_LEU
   48    49     6     0     0
SMALL
NO_CHARGES


@<TRIPOS>ATOM
      1 N         108.0960  147.4460  145.7300 N.4       1 ARG8        0.0000 
      2 CA        109.3370  146.6900  145.8390 C.3       1 ARG8        0.0000 
      3 C         109.6270  145.9290  144.5500 C.2       1 ARG8        0.0000 
      4 O         108.7810  145.1830  144.0580 O.2       1 ARG8        0.0000 
      5 CB        109.2710  145.7210  147.0200 C.3       1 ARG8        0.0000 
      6 N         110.8260  146.1210  144.0090 N.am      2 ARG9        0.0000 
      7 CA        111.2230  145.4530  142.7750 C.3       2 ARG9        0.0000 
      8 C         111.0430  143.9430  142.8730 C.2       2 ARG9        0.0000 
      9 O         111.5020  143.3170  143.8270 O.2       2 ARG9        0.0000 
     10 CB        112.6700  145.7930  142.4180 C.3       2 ARG9        0.0000 
     11 CG        112.8800  147.2350  141.9850 C.3       2 ARG9        0.0000 
     12 CD        112.0580  147.5680  140.7480 C.3       2 ARG9        0.0000 
     13 NE        110.6230  147.4210  140.9820 N.pl3     2 ARG9        0.0000 
     14 CZ        109.6850  147.6930  140.0800 C.cat     2 ARG9        0.0000 
     15 NH1       108.4050  147.5290  140.3810 N.pl3     2 ARG9        0.0000 
     16 NH2       110.0240  148.1310  138.8760 N.pl3     2 ARG9        0.0000 
     17 N         110.3670  143.3560  141.8780 N.am      3 PRO10       0.0000 
     18 CA        110.1020  141.9160  141.8160 C.3       3 PRO10       0.0000 
     19 C         111.3830  141.1020  141.9290 C.2       3 PRO10       0.0000 
     20 O         112.2420  141.1790  141.0520 O.2       3 PRO10       0.0000 
     21 CB        109.4930  141.7340  140.4240 C.3       3 PRO10       0.0000 
     22 CG        108.8980  143.0590  140.0980 C.3       3 PRO10       0.0000 
     23 CD        109.8120  144.0730  140.7190 C.3       3 PRO10       0.0000 
     24 N         111.5060  140.3320  143.0030 N.am      4 TYR11       0.0000 
     25 CA        112.6870  139.5080  143.2150 C.3       4 TYR11       0.0000 
     26 C         112.8540  138.4400  142.1390 C.2       4 TYR11       0.0000 
     27 O         113.9650  138.1790  141.6850 O.2       4 TYR11       0.0000 
     28 CB        112.6650  138.8740  144.6060 C.3       4 TYR11       0.0000 
     29 CG        111.3150  138.3500  145.0330 C.ar      4 TYR11       0.0000 
     30 CD1       110.4170  139.1640  145.7080 C.ar      4 TYR11       0.0000 
     31 CD2       110.9420  137.0400  144.7730 C.ar      4 TYR11       0.0000 
     32 CE1       109.1840  138.6900  146.1070 C.ar      4 TYR11       0.0000 
     33 CE2       109.7100  136.5560  145.1680 C.ar      4 TYR11       0.0000 
     34 CZ        108.8360  137.3860  145.8340 C.ar      4 TYR11       0.0000 
     35 OH        107.6080  136.9090  146.2300 O.3       4 TYR11       0.0000 
     36 N         111.7480  137.8300  141.7260 N.am      5 ILE12       0.0000 
     37 CA        111.7870  136.7880  140.7040 C.3       5 ILE12       0.0000 
     38 C         112.2550  137.3300  139.3570 C.2       5 ILE12       0.0000 
     39 O         112.0270  138.4940  139.0310 O.2       5 ILE12       0.0000 
     40 CB        110.4170  136.1170  140.5330 C.3       5 ILE12       0.0000 
     41 CG1       109.3960  137.1230  140.0040 C.3       5 ILE12       0.0000 
     42 CG2       109.9500  135.5280  141.8530 C.3       5 ILE12       0.0000 
     43 CD1       108.0080  136.5460  139.8320 C.3       5 ILE12       0.0000 
     44 N         112.8980  136.4760  138.5680 N.am      6 LEU13       0.0000 
     45 CA        113.4100  136.8930  137.2720 C.3       6 LEU13       0.0000 
     46 C         113.4810  135.7060  136.3290 C.2       6 LEU13       0.0000 
     47 O         113.1550  134.5870  136.7120 O.2       6 LEU13       0.0000 
     48 CB        114.7900  137.5350  137.4080 C.3       6 LEU13       0.0000 
@<TRIPOS>BOND
     1    2    3 1    
     2    2    5 1    
     3    3    4 2    
     4    1    2 1    
     5    7    8 1    
     6    3    6 am   
     7    6    7 1    
     8    7   10 1    
     9    8    9 2    
    10    8   17 am   
    11   10   11 1    
    12   11   12 1    
    13   12   13 1    
    14   13   14 ar   
    15   14   15 ar   
    16   14   16 ar   
    17   17   18 1    
    18   17   23 1    
    19   18   19 1    
    20   18   21 1    
    21   19   20 2    
    22   19   24 am   
    23   21   22 1    
    24   22   23 1    
    25   24   25 1    
    26   25   26 1    
    27   25   28 1    
    28   26   27 2    
    29   26   36 am   
    30   28   29 1    
    31   29   30 ar   
    32   29   31 ar   
    33   30   32 ar   
    34   31   33 ar   
    35   32   34 ar   
    36   33   34 ar   
    37   34   35 1    
    38   36   37 1    
    39   37   38 1    
    40   37   40 1    
    41   38   39 2    
    42   38   44 am   
    43   40   41 1    
    44   40   42 1    
    45   41   43 1    
    46   44   45 1    
    47   45   46 1    
    48   45   48 1    
    49   46   47 2    
@<TRIPOS>SUBSTRUCTURE
     1 ARG8        1 RESIDUE 
     2 ARG9        6 RESIDUE 
     3 PRO10      17 RESIDUE 
     4 TYR11      24 RESIDUE 
     5 ILE12      36 RESIDUE 
     6 LEU13      44 RESIDUE 
@<TRIPOS>SET

