#    Name: 5yh2_2_ATP
#    Modification time : Fri May 22 19:17:52 2020

@<TRIPOS>MOLECULE
5yh2_2_ATP
   31    33     1     0     1
SMALL
NO_CHARGES


@<TRIPOS>ATOM
      1 PG        -34.7680   13.0880 -117.5240 P.3       1 ATP701      0.0000 
      2 O1G       -34.6680   13.0250 -119.0300 O.co2     1 ATP701      0.0000 
      3 O2G       -34.2800   14.3670 -116.8790 O.co2     1 ATP701      0.0000 
      4 O3G       -34.2680   11.8360 -116.8440 O.co2     1 ATP701      0.0000 
      5 PB        -37.3260   11.8760 -117.1800 P.3       1 ATP701      0.0000 
      6 O1B       -38.4980   12.0450 -118.1100 O.co2     1 ATP701      0.0000 
      7 O2B       -36.5360   10.5870 -117.2230 O.co2     1 ATP701      0.0000 
      8 O3B       -36.3540   13.1570 -117.2460 O.3       1 ATP701      0.0000 
      9 PA        -38.6660   10.9980 -114.9360 P.3       1 ATP701      0.0000 
     10 O1A       -38.5950    9.7590 -115.7920 O.co2     1 ATP701      0.0000 
     11 O2A       -38.1380   11.0010 -113.5210 O.co2     1 ATP701      0.0000 
     12 O3A       -37.9280   12.1720 -115.7260 O.3       1 ATP701      0.0000 
     13 O5'       -40.1900   11.5070 -114.9800 O.3       1 ATP701      0.0000 
     14 C5'       -41.1700   10.6810 -115.6030 C.3       1 ATP701      0.0000 
     15 C4'       -42.3440   10.4520 -114.6630 C.3       1 ATP701      0.0000 
     16 O4'       -43.5330   10.3650 -115.4440 O.3       1 ATP701      0.0000 
     17 C3'       -42.1960    9.1510 -113.8860 C.3       1 ATP701      0.0000 
     18 O3'       -42.1990    9.4060 -112.4770 O.3       1 ATP701      0.0000 
     19 C2'       -43.4040    8.3140 -114.2490 C.3       1 ATP701      0.0000 
     20 O2'       -44.0970    7.9230 -113.0610 O.3       1 ATP701      0.0000 
     21 C1'       -44.2970    9.2200 -115.0780 C.3       1 ATP701      0.0000 
     22 N9        -44.7420    8.5410 -116.3130 N.pl3     1 ATP701      0.0000 
     23 C8        -44.2330    8.7270 -117.5440 C.2       1 ATP701      0.0000 
     24 N7        -44.8780    7.9570 -118.4540 N.2       1 ATP701      0.0000 
     25 C5        -45.8240    7.2640 -117.7950 C.ar      1 ATP701      0.0000 
     26 C6        -46.8630    6.2690 -118.1460 C.ar      1 ATP701      0.0000 
     27 N6        -47.0280    5.8430 -119.4230 N.pl3     1 ATP701      0.0000 
     28 N1        -47.6440    5.7980 -117.1460 N.ar      1 ATP701      0.0000 
     29 C2        -47.4960    6.2080 -115.8710 C.ar      1 ATP701      0.0000 
     30 N3        -46.5760    7.1070 -115.4830 N.ar      1 ATP701      0.0000 
     31 C4        -45.7300    7.6580 -116.3830 C.ar      1 ATP701      0.0000 
@<TRIPOS>BOND
     1    1    2 ar   
     2    1    3 ar   
     3    1    4 ar   
     4    1    8 1    
     5    5    6 ar   
     6    5    7 ar   
     7    5    8 1    
     8    5   12 1    
     9    9   10 ar   
    10    9   11 ar   
    11    9   12 1    
    12    9   13 1    
    13   13   14 1    
    14   14   15 1    
    15   15   16 1    
    16   15   17 1    
    17   16   21 1    
    18   17   18 1    
    19   17   19 1    
    20   19   20 1    
    21   19   21 1    
    22   21   22 1    
    23   22   23 1    
    24   22   31 1    
    25   23   24 2    
    26   24   25 1    
    27   25   26 ar   
    28   25   31 ar   
    29   26   27 1    
    30   26   28 ar   
    31   28   29 ar   
    32   29   30 ar   
    33   30   31 ar   
@<TRIPOS>SUBSTRUCTURE
     1 ATP701      1 GROUP   
@<TRIPOS>SET
ATOM$ORANGE STATIC     ATOMS   COLORGROUP SYSTEM 
20 14 14 15 15 17 17 19 19 21 21 23 23 25 25 26 26 29 \
29 31 31 

