#    Name: 5yh2_1_ATP
#    Modification time : Fri May 22 19:17:41 2020

@<TRIPOS>MOLECULE
5yh2_1_ATP
   31    33     1     0     1
SMALL
NO_CHARGES


@<TRIPOS>ATOM
      1 PG        -63.5900  -17.8450  -48.2200 P.3       1 ATP701      0.0000 
      2 O1G       -64.7520  -18.5870  -48.8370 O.co2     1 ATP701      0.0000 
      3 O2G       -63.5840  -17.7960  -46.7110 O.co2     1 ATP701      0.0000 
      4 O3G       -62.2520  -18.2080  -48.8220 O.co2     1 ATP701      0.0000 
      5 PB        -62.8420  -15.1310  -48.6130 P.3       1 ATP701      0.0000 
      6 O1B       -61.4490  -15.7030  -48.7220 O.co2     1 ATP701      0.0000 
      7 O2B       -63.1690  -14.1550  -47.5060 O.co2     1 ATP701      0.0000 
      8 O3B       -63.9150  -16.3280  -48.6600 O.3       1 ATP701      0.0000 
      9 PA        -62.1100  -13.6560  -50.8330 P.3       1 ATP701      0.0000 
     10 O1A       -61.9900  -14.3240  -52.1820 O.co2     1 ATP701      0.0000 
     11 O2A       -60.8810  -13.4980  -49.9660 O.co2     1 ATP701      0.0000 
     12 O3A       -63.2430  -14.4100  -49.9870 O.3       1 ATP701      0.0000 
     13 O5'       -62.8130  -12.2170  -50.9820 O.3       1 ATP701      0.0000 
     14 C5'       -62.3040  -11.1210  -50.2290 C.3       1 ATP701      0.0000 
     15 C4'       -61.9740   -9.9410  -51.1330 C.3       1 ATP701      0.0000 
     16 O4'       -62.1430   -8.7470  -50.3680 O.3       1 ATP701      0.0000 
     17 C3'       -60.5290   -9.9670  -51.6260 C.3       1 ATP701      0.0000 
     18 O3'       -60.4330  -10.2520  -53.0280 O.3       1 ATP701      0.0000 
     19 C2'       -59.9900   -8.5770  -51.3580 C.3       1 ATP701      0.0000 
     20 O2'       -59.7100   -7.9260  -52.6010 O.3       1 ATP701      0.0000 
     21 C1'       -61.0920   -7.8200  -50.6380 C.3       1 ATP701      0.0000 
     22 N9        -60.5990   -7.2490  -49.3600 N.pl3     1 ATP701      0.0000 
     23 C8        -60.9000   -7.7010  -48.1310 C.2       1 ATP701      0.0000 
     24 N7        -60.2970   -6.9470  -47.1770 N.2       1 ATP701      0.0000 
     25 C5        -59.5950   -5.9880  -47.8050 C.ar      1 ATP701      0.0000 
     26 C6        -58.7250   -4.8570  -47.4010 C.ar      1 ATP701      0.0000 
     27 N6        -58.4770   -4.5960  -46.0970 N.pl3     1 ATP701      0.0000 
     28 N1        -58.1870   -4.0880  -48.3760 N.ar      1 ATP701      0.0000 
     29 C2        -58.4220   -4.3360  -49.6800 C.ar      1 ATP701      0.0000 
     30 N3        -59.1970   -5.3460  -50.1150 N.ar      1 ATP701      0.0000 
     31 C4        -59.8020   -6.1900  -49.2440 C.ar      1 ATP701      0.0000 
@<TRIPOS>BOND
     1    1    2 ar   
     2    1    3 ar   
     3    1    4 ar   
     4    1    8 1    
     5    5    6 ar   
     6    5    7 ar   
     7    5    8 1    
     8    5   12 1    
     9    9   10 ar   
    10    9   11 ar   
    11    9   12 1    
    12    9   13 1    
    13   13   14 1    
    14   14   15 1    
    15   15   16 1    
    16   15   17 1    
    17   16   21 1    
    18   17   18 1    
    19   17   19 1    
    20   19   20 1    
    21   19   21 1    
    22   21   22 1    
    23   22   23 1    
    24   22   31 1    
    25   23   24 2    
    26   24   25 1    
    27   25   26 ar   
    28   25   31 ar   
    29   26   27 1    
    30   26   28 ar   
    31   28   29 ar   
    32   29   30 ar   
    33   30   31 ar   
@<TRIPOS>SUBSTRUCTURE
     1 ATP701      1 GROUP   
@<TRIPOS>SET
ATOM$ORANGE STATIC     ATOMS   COLORGROUP SYSTEM 
20 14 14 15 15 17 17 19 19 21 21 23 23 25 25 26 26 29 \
29 31 31 

