#    Name: 5yh2_1_ATP_CAVITY_N1_4
#    Modification time : Fri May 22 19:17:42 2020

@<TRIPOS>MOLECULE
5yh2_1_ATP_CAVITY_N1_4
   64     0     6     0     0
SMALL
NO_CHARGES


@<TRIPOS>ATOM
      1 OG        -64.7000  -18.8000  -49.3200 O.3       1 SER1        0.0000 
      2 OG        -64.2800  -20.1700  -48.8800 O.3       1 SER1        0.0000 
      3 OG        -64.5200  -16.8400  -48.5300 O.3       1 SER1        0.0000 
      4 OG        -64.0900  -18.2100  -48.0900 O.3       1 SER1        0.0000 
      5 OG        -63.4800  -17.6200  -46.8500 O.3       1 SER1        0.0000 
      6 OG        -62.2600  -16.4400  -44.3800 O.3       1 SER1        0.0000 
      7 O         -66.3500  -18.6200  -52.2400 O.2       2 ALA2        0.0000 
      8 N         -66.1700  -16.6600  -51.4400 N.am      2 ALA2        0.0000 
      9 O         -65.7400  -18.0300  -51.0000 O.2       2 ALA2        0.0000 
     10 N         -62.6900  -14.7700  -54.0600 N.am      2 ALA2        0.0000 
     11 O         -66.8600  -16.2400  -49.4800 O.2       2 ALA2        0.0000 
     12 O         -65.5600  -16.0700  -50.2100 O.2       2 ALA2        0.0000 
     13 O         -65.1300  -17.4300  -49.7600 O.2       2 ALA2        0.0000 
     14 O         -59.9200  -16.7400  -52.6600 O.2       2 ALA2        0.0000 
     15 O         -59.7400  -14.7800  -51.8700 O.2       2 ALA2        0.0000 
     16 O         -58.4400  -14.6100  -52.5900 O.2       2 ALA2        0.0000 
     17 O         -58.2600  -12.6500  -51.8000 O.2       2 ALA2        0.0000 
     18 OD1       -62.3600  -19.4100  -48.3700 O.co2     3 ASP3        0.0000 
     19 OD1       -61.0600  -19.2300  -49.0900 O.co2     3 ASP3        0.0000 
     20 OD1       -60.1900  -17.6900  -50.2600 O.co2     3 ASP3        0.0000 
     21 OD1       -59.7600  -19.0600  -49.8200 O.co2     3 ASP3        0.0000 
     22 OD1       -58.8900  -17.5200  -50.9800 O.co2     3 ASP3        0.0000 
     23 OD1       -62.6100  -16.0800  -48.0200 O.co2     3 ASP3        0.0000 
     24 OD1       -62.1800  -17.4500  -47.5700 O.co2     3 ASP3        0.0000 
     25 OD1       -60.4500  -18.6400  -47.8600 O.co2     3 ASP3        0.0000 
     26 OD1       -60.4400  -14.3700  -49.9100 O.co2     3 ASP3        0.0000 
     27 OD1       -59.1500  -18.4700  -48.5800 O.co2     3 ASP3        0.0000 
     28 OD1       -58.7200  -19.8400  -48.1400 O.co2     3 ASP3        0.0000 
     29 OD1       -58.7100  -15.5600  -50.1900 O.co2     3 ASP3        0.0000 
     30 OD1       -58.2800  -16.9300  -49.7500 O.co2     3 ASP3        0.0000 
     31 OD1       -61.1400  -18.2300  -45.9000 O.co2     3 ASP3        0.0000 
     32 CZ        -60.8600  -13.0000  -50.3500 C.ar      4 PHE5        0.0000 
     33 CZ        -59.5600  -12.8300  -51.0700 C.ar      4 PHE5        0.0000 
     34 CZ        -59.1300  -14.1900  -50.6300 C.ar      4 PHE5        0.0000 
     35 CZ        -61.8400  -17.8100  -43.9300 C.ar      4 PHE5        0.0000 
     36 CA        -65.9200  -19.9800  -51.8000 C.3       5 GLY6        0.0000 
     37 CA        -66.6000  -15.2900  -51.8900 C.3       5 GLY6        0.0000 
     38 CA        -65.3100  -19.3900  -50.5600 C.3       5 GLY6        0.0000 
     39 CA        -65.3000  -15.1200  -52.6100 C.3       5 GLY6        0.0000 
     40 CA        -63.9900  -14.9400  -53.3400 C.3       5 GLY6        0.0000 
     41 CA        -65.9900  -14.7000  -50.6500 C.3       5 GLY6        0.0000 
     42 CA        -64.6900  -14.5300  -51.3700 C.3       5 GLY6        0.0000 
     43 CA        -64.2600  -15.8900  -50.9300 C.3       5 GLY6        0.0000 
     44 CA        -63.8100  -12.9800  -52.5400 C.3       5 GLY6        0.0000 
     45 CA        -63.3800  -14.3500  -52.1000 C.3       5 GLY6        0.0000 
     46 CA        -62.0800  -14.1800  -52.8200 C.3       5 GLY6        0.0000 
     47 CA        -61.6500  -15.5500  -52.3800 C.3       5 GLY6        0.0000 
     48 CA        -64.9500  -15.4800  -48.9700 C.3       5 GLY6        0.0000 
     49 CA        -64.0800  -13.9300  -50.1400 C.3       5 GLY6        0.0000 
     50 CA        -63.6500  -15.3000  -49.7000 C.3       5 GLY6        0.0000 
     51 CA        -63.2200  -16.6700  -49.2500 C.3       5 GLY6        0.0000 
     52 CA        -62.7900  -18.0400  -48.8100 C.3       5 GLY6        0.0000 
     53 CA        -62.7700  -13.7600  -50.8600 C.3       5 GLY6        0.0000 
     54 CA        -62.3500  -15.1300  -50.4200 C.3       5 GLY6        0.0000 
     55 CA        -61.9200  -16.5000  -49.9800 C.3       5 GLY6        0.0000 
     56 CA        -61.4900  -17.8700  -49.5400 C.3       5 GLY6        0.0000 
     57 CA        -61.0400  -14.9600  -51.1400 C.3       5 GLY6        0.0000 
     58 CA        -60.6200  -16.3200  -50.7000 C.3       5 GLY6        0.0000 
     59 CA        -60.1700  -13.4200  -52.3100 C.3       5 GLY6        0.0000 
     60 CA        -59.3200  -16.1500  -51.4300 C.3       5 GLY6        0.0000 
     61 CA        -61.7500  -18.8200  -47.1300 C.3       5 GLY6        0.0000 
     62 CA        -57.8300  -14.0200  -51.3600 C.3       5 GLY6        0.0000 
     63 CA        -62.4500  -18.4000  -45.1700 C.3       5 GLY6        0.0000 
     64 DU        -61.4700  -13.5900  -51.5900 H         6 CUB7        0.0000 
@<TRIPOS>BOND
@<TRIPOS>SUBSTRUCTURE
     1 SER1        1 GROUP   
     2 ALA2        7 GROUP   
     3 ASP3       18 GROUP   
     4 PHE5       32 GROUP   
     5 GLY6       36 GROUP   
     6 CUB7       64 GROUP   
@<TRIPOS>SET

