#    Name: 6cer_3_TDP_CAVITY_N1_ALL
#    Modification time : Fri May 22 19:25:49 2020

@<TRIPOS>MOLECULE
6cer_3_TDP_CAVITY_N1_ALL
  108     0     7     0     0
SMALL
NO_CHARGES


@<TRIPOS>ATOM
      1 OG         28.1700  -14.4400   -9.6400 O.3       1 SER1        0.0000 
      2 OG         27.9200  -15.4300   -8.5500 O.3       1 SER1        0.0000 
      3 OG         30.5000  -13.8300  -10.6100 O.3       1 SER1        0.0000 
      4 OG         30.2500  -14.8300   -9.5200 O.3       1 SER1        0.0000 
      5 OG         29.0600  -14.8600   -7.7600 O.3       1 SER1        0.0000 
      6 OG         32.8300  -13.2300  -11.5900 O.3       1 SER1        0.0000 
      7 OG         31.8900  -12.2600  -10.9200 O.3       1 SER1        0.0000 
      8 OG         31.6400  -13.2600   -9.8300 O.3       1 SER1        0.0000 
      9 OG         31.3900  -14.2600   -8.7400 O.3       1 SER1        0.0000 
     10 OG         34.2300  -11.6600  -11.9000 O.3       1 SER1        0.0000 
     11 OG         33.9800  -12.6500  -10.8000 O.3       1 SER1        0.0000 
     12 OG         32.7900  -12.6900   -9.0500 O.3       1 SER1        0.0000 
     13 OG         31.6000  -12.7200   -7.2900 O.3       1 SER1        0.0000 
     14 OG         34.1800  -11.1200   -9.3500 O.3       1 SER1        0.0000 
     15 OG         33.2400  -10.1500   -8.6900 O.3       1 SER1        0.0000 
     16 OG         39.0800  -14.4000  -11.2200 O.3       1 SER1        0.0000 
     17 OG         34.1300  -10.5700   -6.8100 O.3       1 SER1        0.0000 
     18 OG         39.2800  -12.8600   -9.7700 O.3       1 SER1        0.0000 
     19 OG         36.2100  -10.9600   -6.6900 O.3       1 SER1        0.0000 
     20 OG         35.0300  -11.0000   -4.9400 O.3       1 SER1        0.0000 
     21 N          37.9400  -14.9700  -12.0100 N.am      2 ALA2        0.0000 
     22 N          33.1900   -9.6100   -6.1500 N.am      2 ALA2        0.0000 
     23 N          33.8800  -11.5700   -5.7200 N.am      2 ALA2        0.0000 
     24 N          32.6900  -11.6000   -3.9600 N.am      2 ALA2        0.0000 
     25 O          32.4400  -12.6000   -2.8700 O.2       2 ALA2        0.0000 
     26 O          33.5900  -12.0200   -2.0900 O.2       2 ALA2        0.0000 
     27 O          33.3300  -13.0200   -0.9900 O.2       2 ALA2        0.0000 
     28 OD1        27.9700  -15.9800  -11.0900 O.co2     3 ASP3        0.0000 
     29 OD1        27.7200  -16.9700  -10.0000 O.co2     3 ASP3        0.0000 
     30 OD1        30.3000  -15.3700  -12.0600 O.co2     3 ASP3        0.0000 
     31 OD1        29.3600  -14.4100  -11.4000 O.co2     3 ASP3        0.0000 
     32 OD1        30.0500  -16.3700  -10.9700 O.co2     3 ASP3        0.0000 
     33 OD1        29.1100  -15.4000  -10.3100 O.co2     3 ASP3        0.0000 
     34 OD1        29.8000  -17.3600   -9.8700 O.co2     3 ASP3        0.0000 
     35 OD1        28.8600  -16.4000   -9.2100 O.co2     3 ASP3        0.0000 
     36 NZ         31.1900  -15.7900  -10.1800 N.4       4 LYS4        0.0000 
     37 NZ         30.9400  -16.7900   -9.0900 N.4       4 LYS4        0.0000 
     38 NZ         34.4600  -16.1500  -11.8200 N.4       4 LYS4        0.0000 
     39 NZ         33.2700  -16.1800  -10.0600 N.4       4 LYS4        0.0000 
     40 NZ         32.3300  -15.2200   -9.4000 N.4       4 LYS4        0.0000 
     41 NZ         32.0800  -16.2100   -8.3100 N.4       4 LYS4        0.0000 
     42 NZ         35.6000  -15.5800  -11.0300 N.4       4 LYS4        0.0000 
     43 NZ         32.9700  -16.6400   -6.4300 N.4       4 LYS4        0.0000 
     44 NZ         34.1200  -16.0600   -5.6400 N.4       4 LYS4        0.0000 
     45 NZ         34.0700  -15.5200   -3.1000 N.4       4 LYS4        0.0000 
     46 NZ         34.0200  -14.9800   -0.5600 N.4       4 LYS4        0.0000 
     47 CZ         31.8500  -11.7200   -8.3800 C.ar      5 PHE5        0.0000 
     48 CZ         37.2500  -13.0100  -12.4400 C.ar      5 PHE5        0.0000 
     49 CZ         36.3100  -12.0500  -11.7700 C.ar      5 PHE5        0.0000 
     50 CZ         36.0600  -13.0400  -10.6800 C.ar      5 PHE5        0.0000 
     51 CZ         35.1200  -12.0800  -10.0200 C.ar      5 PHE5        0.0000 
     52 CZ         32.9900  -11.1500   -7.6000 C.ar      5 PHE5        0.0000 
     53 CZ         31.8000  -11.1800   -5.8400 C.ar      5 PHE5        0.0000 
     54 CZ         40.2700  -14.3700  -12.9800 C.ar      5 PHE5        0.0000 
     55 CZ         39.3300  -13.4000  -12.3100 C.ar      5 PHE5        0.0000 
     56 CZ         38.3900  -12.4400  -11.6500 C.ar      5 PHE5        0.0000 
     57 CZ         38.1400  -13.4300  -10.5600 C.ar      5 PHE5        0.0000 
     58 CZ         37.2000  -12.4700   -9.9000 C.ar      5 PHE5        0.0000 
     59 CZ         35.3200  -10.5400   -8.5700 C.ar      5 PHE5        0.0000 
     60 CZ         34.3800   -9.5800   -7.9100 C.ar      5 PHE5        0.0000 
     61 CZ         38.8300  -15.3900  -10.1300 C.ar      5 PHE5        0.0000 
     62 CZ         36.0100  -12.5000   -8.1400 C.ar      5 PHE5        0.0000 
     63 CZ         35.0700  -11.5400   -7.4800 C.ar      5 PHE5        0.0000 
     64 CZ         34.8200  -12.5300   -6.3800 C.ar      5 PHE5        0.0000 
     65 CZ         34.5700  -13.5300   -5.2900 C.ar      5 PHE5        0.0000 
     66 CZ         38.0900  -12.8900   -8.0200 C.ar      5 PHE5        0.0000 
     67 CZ         37.1500  -11.9300   -7.3600 C.ar      5 PHE5        0.0000 
     68 CZ         36.9000  -12.9200   -6.2600 C.ar      5 PHE5        0.0000 
     69 CZ         34.7700  -11.9900   -3.8400 C.ar      5 PHE5        0.0000 
     70 CZ         34.5200  -12.9900   -2.7500 C.ar      5 PHE5        0.0000 
     71 CZ         34.2700  -13.9800   -1.6600 C.ar      5 PHE5        0.0000 
     72 CA         28.6100  -17.3900   -8.1200 C.3       6 GLY6        0.0000 
     73 CA         27.6700  -16.4300   -7.4600 C.3       6 GLY6        0.0000 
     74 CA         30.0000  -15.8200   -8.4300 C.3       6 GLY6        0.0000 
     75 CA         30.6900  -17.7800   -8.0000 C.3       6 GLY6        0.0000 
     76 CA         31.1400  -15.2500   -7.6400 C.3       6 GLY6        0.0000 
     77 CA         31.8300  -17.2100   -7.2100 C.3       6 GLY6        0.0000 
     78 CA         34.4100  -15.6100   -9.2800 C.3       6 GLY6        0.0000 
     79 CA         32.5400  -13.6800   -7.9500 C.3       6 GLY6        0.0000 
     80 CA         34.1600  -16.6000   -8.1800 C.3       6 GLY6        0.0000 
     81 CA         33.2200  -15.6400   -7.5200 C.3       6 GLY6        0.0000 
     82 CA         36.7500  -15.0000  -10.2500 C.3       6 GLY6        0.0000 
     83 CA         35.8100  -14.0400   -9.5900 C.3       6 GLY6        0.0000 
     84 CA         34.6200  -14.0700   -7.8300 C.3       6 GLY6        0.0000 
     85 CA         33.6800  -13.1100   -7.1700 C.3       6 GLY6        0.0000 
     86 CA         32.7400  -12.1400   -6.5100 C.3       6 GLY6        0.0000 
     87 CA         34.3700  -15.0700   -6.7400 C.3       6 GLY6        0.0000 
     88 CA         33.4300  -14.1000   -6.0700 C.3       6 GLY6        0.0000 
     89 CA         37.8900  -14.4300   -9.4600 C.3       6 GLY6        0.0000 
     90 CA         36.9500  -13.4700   -8.8000 C.3       6 GLY6        0.0000 
     91 CA         35.7600  -13.5000   -7.0500 C.3       6 GLY6        0.0000 
     92 CA         35.5100  -14.4900   -5.9500 C.3       6 GLY6        0.0000 
     93 CA         33.6300  -12.5700   -4.6300 C.3       6 GLY6        0.0000 
     94 CA         34.3200  -14.5300   -4.2000 C.3       6 GLY6        0.0000 
     95 CA         33.3800  -13.5600   -3.5300 C.3       6 GLY6        0.0000 
     96 CA         33.1300  -14.5600   -2.4400 C.3       6 GLY6        0.0000 
     97 CA         32.1900  -13.5900   -1.7800 C.3       6 GLY6        0.0000 
     98 CA         32.8800  -15.5500   -1.3500 C.3       6 GLY6        0.0000 
     99 DU         31.4400  -14.8000  -11.2800 H         7 CUB7        0.0000 
    100 DU         32.5800  -14.2200  -10.4900 H         7 CUB7        0.0000 
    101 DU         35.1700  -12.6200  -12.5600 H         7 CUB7        0.0000 
    102 DU         34.9200  -13.6200  -11.4600 H         7 CUB7        0.0000 
    103 DU         34.6600  -14.6100  -10.3700 H         7 CUB7        0.0000 
    104 DU         33.7300  -13.6500   -9.7100 H         7 CUB7        0.0000 
    105 DU         33.4800  -14.6500   -8.6100 H         7 CUB7        0.0000 
    106 DU         37.0000  -14.0100  -11.3400 H         7 CUB7        0.0000 
    107 DU         34.8700  -13.0800   -8.9200 H         7 CUB7        0.0000 
    108 DU         33.9300  -12.1100   -8.2600 H         7 CUB7        0.0000 
@<TRIPOS>BOND
@<TRIPOS>SUBSTRUCTURE
     1 SER1        1 GROUP   
     2 ALA2       21 GROUP   
     3 ASP3       28 GROUP   
     4 LYS4       36 GROUP   
     5 PHE5       47 GROUP   
     6 GLY6       72 GROUP   
     7 CUB7       99 GROUP   
@<TRIPOS>SET

