#    Name: 6cer_2_TDP_CAVITY_N1_4
#    Modification time : Fri May 22 19:25:33 2020

@<TRIPOS>MOLECULE
6cer_2_TDP_CAVITY_N1_4
   67     0     6     0     0
SMALL
NO_CHARGES


@<TRIPOS>ATOM
      1 OG         28.4700  -19.3400   25.0600 O.3       1 SER1        0.0000 
      2 OG         27.5300  -18.3700   25.7200 O.3       1 SER1        0.0000 
      3 OG         29.3600  -19.7600   26.9400 O.3       1 SER1        0.0000 
      4 OG         28.1700  -19.7900   28.7000 O.3       1 SER1        0.0000 
      5 OG         31.4400  -20.1500   27.0600 O.3       1 SER1        0.0000 
      6 OG         30.5000  -19.1800   27.7200 O.3       1 SER1        0.0000 
      7 OG         29.5600  -18.2200   28.3900 O.3       1 SER1        0.0000 
      8 OG         29.3100  -19.2200   29.4800 O.3       1 SER1        0.0000 
      9 O          31.1000  -18.2800   20.4600 O.2       2 ALA2        0.0000 
     10 N          31.9900  -18.7000   22.3300 N.am      2 ALA2        0.0000 
     11 N          31.7400  -19.6900   23.4300 N.am      2 ALA2        0.0000 
     12 NZ         30.4100  -16.3200   20.0300 N.4       3 LYS4        0.0000 
     13 NZ         26.8400  -16.4100   25.2900 N.4       3 LYS4        0.0000 
     14 NZ         26.5900  -17.4100   26.3900 N.4       3 LYS4        0.0000 
     15 NZ         30.3600  -15.7700   22.5700 N.4       3 LYS4        0.0000 
     16 NZ         27.9800  -15.8400   26.0800 N.4       3 LYS4        0.0000 
     17 NZ         27.7300  -16.8300   27.1700 N.4       3 LYS4        0.0000 
     18 NZ         27.4800  -17.8300   28.2700 N.4       3 LYS4        0.0000 
     19 NZ         26.5400  -16.8700   28.9300 N.4       3 LYS4        0.0000 
     20 NZ         28.8700  -16.2600   27.9600 N.4       3 LYS4        0.0000 
     21 NZ         27.9300  -15.3000   28.6200 N.4       3 LYS4        0.0000 
     22 NZ         27.6800  -16.2900   29.7100 N.4       3 LYS4        0.0000 
     23 CZ         31.3000  -16.7400   21.9000 C.ar      4 PHE5        0.0000 
     24 CZ         31.0500  -17.7300   23.0000 C.ar      4 PHE5        0.0000 
     25 CZ         31.4900  -20.6900   24.5200 C.ar      4 PHE5        0.0000 
     26 CZ         30.5500  -19.7300   25.1800 C.ar      4 PHE5        0.0000 
     27 CZ         30.3000  -20.7200   26.2800 C.ar      4 PHE5        0.0000 
     28 CZ         31.2500  -16.2000   24.4400 C.ar      4 PHE5        0.0000 
     29 CZ         32.8800  -19.1200   24.2100 C.ar      4 PHE5        0.0000 
     30 CZ         31.9400  -18.1600   24.8700 C.ar      4 PHE5        0.0000 
     31 CZ         32.6300  -20.1200   25.3100 C.ar      4 PHE5        0.0000 
     32 CZ         32.3900  -15.6200   25.2300 C.ar      4 PHE5        0.0000 
     33 CZ         33.0800  -17.5800   25.6600 C.ar      4 PHE5        0.0000 
     34 CZ         32.8300  -18.5800   26.7500 C.ar      4 PHE5        0.0000 
     35 CZ         31.8900  -17.6100   27.4200 C.ar      4 PHE5        0.0000 
     36 CZ         31.6400  -18.6100   28.5100 C.ar      4 PHE5        0.0000 
     37 CZ         33.5400  -15.0500   26.0100 C.ar      4 PHE5        0.0000 
     38 CA         25.7000  -16.9900   24.5100 C.3       5 GLY6        0.0000 
     39 CA         30.1600  -17.3100   21.1200 C.3       5 GLY6        0.0000 
     40 CA         29.2200  -16.3500   21.7800 C.3       5 GLY6        0.0000 
     41 CA         30.8400  -19.2700   21.5500 C.3       5 GLY6        0.0000 
     42 CA         29.9100  -18.3100   22.2100 C.3       5 GLY6        0.0000 
     43 CA         28.9700  -17.3400   22.8800 C.3       5 GLY6        0.0000 
     44 CA         28.0300  -16.3800   23.5400 C.3       5 GLY6        0.0000 
     45 CA         27.0900  -15.4200   24.2000 C.3       5 GLY6        0.0000 
     46 CA         29.6600  -19.3000   23.3100 C.3       5 GLY6        0.0000 
     47 CA         28.7200  -18.3400   23.9700 C.3       5 GLY6        0.0000 
     48 CA         27.7800  -17.3800   24.6300 C.3       5 GLY6        0.0000 
     49 CA         29.1700  -15.8100   24.3200 C.3       5 GLY6        0.0000 
     50 CA         28.2300  -14.8400   24.9900 C.3       5 GLY6        0.0000 
     51 CA         28.9200  -16.8000   25.4200 C.3       5 GLY6        0.0000 
     52 CA         31.0000  -17.1900   25.5400 C.3       5 GLY6        0.0000 
     53 CA         30.0600  -16.2300   26.2000 C.3       5 GLY6        0.0000 
     54 CA         32.1400  -16.6200   26.3200 C.3       5 GLY6        0.0000 
     55 CA         31.2100  -15.6500   26.9800 C.3       5 GLY6        0.0000 
     56 CA         30.9500  -16.6500   28.0800 C.3       5 GLY6        0.0000 
     57 DU         30.1100  -16.7700   23.6600 H         6 CUB7        0.0000 
     58 DU         30.8000  -18.7300   24.0900 H         6 CUB7        0.0000 
     59 DU         29.8600  -17.7700   24.7500 H         6 CUB7        0.0000 
     60 DU         29.6100  -18.7600   25.8500 H         6 CUB7        0.0000 
     61 DU         28.6700  -17.8000   26.5100 H         6 CUB7        0.0000 
     62 DU         28.4200  -18.7900   27.6000 H         6 CUB7        0.0000 
     63 DU         31.6900  -19.1500   25.9700 H         6 CUB7        0.0000 
     64 DU         30.7500  -18.1900   26.6300 H         6 CUB7        0.0000 
     65 DU         29.8100  -17.2200   27.2900 H         6 CUB7        0.0000 
     66 DU         28.6200  -17.2600   29.0500 H         6 CUB7        0.0000 
     67 DU         28.3700  -18.2500   30.1400 H         6 CUB7        0.0000 
@<TRIPOS>BOND
@<TRIPOS>SUBSTRUCTURE
     1 SER1        1 GROUP   
     2 ALA2        9 GROUP   
     3 LYS4       12 GROUP   
     4 PHE5       23 GROUP   
     5 GLY6       38 GROUP   
     6 CUB7       57 GROUP   
@<TRIPOS>SET

