#    Name: 6cer_2_TDP
#    Modification time : Fri May 22 19:25:32 2020

@<TRIPOS>MOLECULE
6cer_2_TDP
   26    27     1     0     0
SMALL
NO_CHARGES


@<TRIPOS>ATOM
      1 N1'        30.4080  -15.9540   20.2290 N.ar      1 TDP401      0.0000 
      2 C2'        31.1600  -17.0130   19.8410 C.ar      1 TDP401      0.0000 
      3 C2A        31.3040  -17.3120   18.3720 C.3       1 TDP401      0.0000 
      4 N3'        31.7860  -17.8070   20.7410 N.ar      1 TDP401      0.0000 
      5 C4'        31.6740  -17.5600   22.0610 C.ar      1 TDP401      0.0000 
      6 N4'        32.2960  -18.3500   22.9700 N.pl3     1 TDP401      0.0000 
      7 C5'        30.8540  -16.4050   22.4960 C.ar      1 TDP401      0.0000 
      8 C6'        30.2420  -15.6350   21.5190 C.ar      1 TDP401      0.0000 
      9 C35        30.6890  -16.0760   23.9620 C.3       1 TDP401      0.0000 
     10 N3         29.8740  -17.1060   24.6040 N.pl3     1 TDP401      0.0000 
     11 C2         30.3330  -18.3470   24.8680 C.2       1 TDP401      0.0000 
     12 S1         29.1880  -19.4170   25.6420 S.3       1 TDP401      0.0000 
     13 C5         28.0380  -18.1230   25.6050 C.2       1 TDP401      0.0000 
     14 C4         28.6000  -16.8990   24.9850 C.2       1 TDP401      0.0000 
     15 C4A        27.8500  -15.6050   24.8060 C.3       1 TDP401      0.0000 
     16 C5A        26.6880  -18.4520   26.1960 C.3       1 TDP401      0.0000 
     17 C5B        26.8760  -19.1620   27.5320 C.3       1 TDP401      0.0000 
     18 O5G        25.6710  -19.0780   28.2890 O.3       1 TDP401      0.0000 
     19 P1         24.9650  -20.4100   28.8540 P.3       1 TDP401      0.0000 
     20 O11        25.2460  -21.4800   27.6850 O.3       1 TDP401      0.0000 
     21 O12        23.4770  -20.1630   28.9210 O.co2     1 TDP401      0.0000 
     22 O13        25.7120  -20.8530   30.0890 O.co2     1 TDP401      0.0000 
     23 P2         24.0220  -22.2040   26.9280 P.3       1 TDP401      0.0000 
     24 O21        24.6940  -23.2400   26.0590 O.co2     1 TDP401      0.0000 
     25 O22        23.1890  -22.7760   28.0500 O.co2     1 TDP401      0.0000 
     26 O23        23.3550  -21.0860   26.1630 O.co2     1 TDP401      0.0000 
@<TRIPOS>BOND
     1    1    2 ar   
     2    1    8 ar   
     3    2    3 1    
     4    2    4 ar   
     5    4    5 ar   
     6    5    6 1    
     7    5    7 ar   
     8    7    8 ar   
     9    7    9 1    
    10    9   10 1    
    11   10   11 2    
    12   10   14 1    
    13   11   12 1    
    14   12   13 1    
    15   13   14 2    
    16   13   16 1    
    17   14   15 1    
    18   16   17 1    
    19   17   18 1    
    20   18   19 1    
    21   19   20 1    
    22   19   21 ar   
    23   19   22 ar   
    24   20   23 1    
    25   23   24 ar   
    26   23   25 ar   
    27   23   26 ar   
@<TRIPOS>SUBSTRUCTURE
     1 TDP401      1 GROUP   
@<TRIPOS>SET

