#    Name: 6cer_3_TDP
#    Modification time : Fri May 22 19:25:48 2020

@<TRIPOS>MOLECULE
6cer_3_TDP
   26    27     1     0     0
SMALL
NO_CHARGES


@<TRIPOS>ATOM
      1 N1'        34.0140  -15.2590   -2.4510 N.ar      1 TDP401      0.0000 
      2 C2'        33.5780  -14.1140   -1.8710 C.ar      1 TDP401      0.0000 
      3 C2A        33.1270  -14.1450   -0.4350 C.3       1 TDP401      0.0000 
      4 N3'        33.5380  -12.9440   -2.5510 N.ar      1 TDP401      0.0000 
      5 C4'        33.9360  -12.8900   -3.8380 C.ar      1 TDP401      0.0000 
      6 N4'        33.8990  -11.7230   -4.5260 N.pl3     1 TDP401      0.0000 
      7 C5'        34.4140  -14.1360   -4.4810 C.ar      1 TDP401      0.0000 
      8 C6'        34.4280  -15.2980   -3.7240 C.ar      1 TDP401      0.0000 
      9 C35        34.8730  -14.1400   -5.9210 C.3       1 TDP401      0.0000 
     10 N3         33.7100  -14.0750   -6.8040 N.pl3     1 TDP401      0.0000 
     11 C2         33.2360  -12.9170   -7.3100 C.2       1 TDP401      0.0000 
     12 S1         31.8360  -13.0720   -8.3440 S.3       1 TDP401      0.0000 
     13 C5         31.8980  -14.7830   -8.0780 C.2       1 TDP401      0.0000 
     14 C4         33.0190  -15.1650   -7.1850 C.2       1 TDP401      0.0000 
     15 C4A        33.3390  -16.5750   -6.7640 C.3       1 TDP401      0.0000 
     16 C5A        30.8260  -15.5780   -8.7840 C.3       1 TDP401      0.0000 
     17 C5B        31.1630  -15.6820  -10.2660 C.3       1 TDP401      0.0000 
     18 O5G        31.0350  -14.3990  -10.8750 O.3       1 TDP401      0.0000 
     19 P1         30.5740  -14.2650  -12.4110 P.3       1 TDP401      0.0000 
     20 O11        29.0590  -14.8070  -12.3730 O.3       1 TDP401      0.0000 
     21 O12        31.3980  -15.2250  -13.2370 O.co2     1 TDP401      0.0000 
     22 O13        30.5430  -12.7990  -12.7690 O.co2     1 TDP401      0.0000 
     23 P2         28.0580  -14.3520  -11.1960 P.3       1 TDP401      0.0000 
     24 O21        26.7520  -14.0940  -11.9080 O.co2     1 TDP401      0.0000 
     25 O22        28.0340  -15.5370  -10.2600 O.co2     1 TDP401      0.0000 
     26 O23        28.7090  -13.1170  -10.6210 O.co2     1 TDP401      0.0000 
@<TRIPOS>BOND
     1    1    2 ar   
     2    1    8 ar   
     3    2    3 1    
     4    2    4 ar   
     5    4    5 ar   
     6    5    6 1    
     7    5    7 ar   
     8    7    8 ar   
     9    7    9 1    
    10    9   10 1    
    11   10   11 2    
    12   10   14 1    
    13   11   12 1    
    14   12   13 1    
    15   13   14 2    
    16   13   16 1    
    17   14   15 1    
    18   16   17 1    
    19   17   18 1    
    20   18   19 1    
    21   19   20 1    
    22   19   21 ar   
    23   19   22 ar   
    24   20   23 1    
    25   23   24 ar   
    26   23   25 ar   
    27   23   26 ar   
@<TRIPOS>SUBSTRUCTURE
     1 TDP401      1 GROUP   
@<TRIPOS>SET

