#    Name: 6a2k_4_UMP
#    Modification time : Fri May 22 19:26:34 2020

@<TRIPOS>MOLECULE
6a2k_4_UMP
   20    21     1     0     1
SMALL
NO_CHARGES


@<TRIPOS>ATOM
      1 N1         15.5330   13.1410    8.8800 N.am      1 UMP703      0.0000 
      2 C2         16.4040   11.9780    8.9520 C.2       1 UMP703      0.0000 
      3 N3         17.2080   11.7200    7.8830 N.am      1 UMP703      0.0000 
      4 C4         17.2200   12.4950    6.7670 C.2       1 UMP703      0.0000 
      5 C5         16.3870   13.6040    6.6780 C.2       1 UMP703      0.0000 
      6 C6         15.5500   13.8890    7.7530 C.2       1 UMP703      0.0000 
      7 O2         16.4830   11.1800    9.9420 O.2       1 UMP703      0.0000 
      8 O4         17.9650   12.2500    5.7940 O.2       1 UMP703      0.0000 
      9 C1'        14.5420   13.6000    9.8950 C.3       1 UMP703      0.0000 
     10 C2'        15.0030   13.8900   11.3150 C.3       1 UMP703      0.0000 
     11 C3'        13.9080   14.8550   11.7980 C.3       1 UMP703      0.0000 
     12 C4'        13.5740   15.7010   10.5740 C.3       1 UMP703      0.0000 
     13 O3'        12.7440   14.1410   12.2930 O.3       1 UMP703      0.0000 
     14 O4'        13.8400   14.7980    9.4890 O.3       1 UMP703      0.0000 
     15 C5'        14.4580   16.9620   10.4010 C.3       1 UMP703      0.0000 
     16 O5'        13.8720   18.2560   10.6780 O.3       1 UMP703      0.0000 
     17 P          14.2160   19.1950   11.9770 P.3       1 UMP703      0.0000 
     18 OP1        12.8260   19.7050   12.2360 O.co2     1 UMP703      0.0000 
     19 OP2        14.7700   18.2190   12.9920 O.co2     1 UMP703      0.0000 
     20 OP3        15.1810   20.2730   11.5570 O.co2     1 UMP703      0.0000 
@<TRIPOS>BOND
     1    1    2 1    
     2    1    6 1    
     3    1    9 1    
     4    2    3 1    
     5    2    7 2    
     6    3    4 1    
     7    4    5 1    
     8    4    8 2    
     9    5    6 2    
    10    9   10 1    
    11    9   14 1    
    12   10   11 1    
    13   11   12 1    
    14   11   13 1    
    15   12   14 1    
    16   12   15 1    
    17   15   16 1    
    18   16   17 1    
    19   17   18 ar   
    20   17   19 ar   
    21   17   20 ar   
@<TRIPOS>SUBSTRUCTURE
     1 UMP703      1 GROUP   
@<TRIPOS>SET
ATOM$ORANGE STATIC     ATOMS   COLORGROUP SYSTEM 
18 2 2 4 4 5 5 6 6 9 9 10 10 11 11 12 12 15 \
15 

