#    Name: 6a2k_2_UMP
#    Modification time : Fri May 22 19:26:19 2020

@<TRIPOS>MOLECULE
6a2k_2_UMP
   20    21     1     0     1
SMALL
NO_CHARGES


@<TRIPOS>ATOM
      1 N1         44.7660   20.5000   19.8550 N.am      1 UMP703      0.0000 
      2 C2         43.8400   19.9100   20.8010 C.2       1 UMP703      0.0000 
      3 N3         43.0440   20.7600   21.5020 N.am      1 UMP703      0.0000 
      4 C4         43.1110   22.1080   21.3490 C.2       1 UMP703      0.0000 
      5 C5         44.0100   22.6850   20.4520 C.2       1 UMP703      0.0000 
      6 C6         44.8350   21.8450   19.7210 C.2       1 UMP703      0.0000 
      7 O2         43.7190   18.6560   21.0110 O.2       1 UMP703      0.0000 
      8 O4         42.3740   22.8760   22.0060 O.2       1 UMP703      0.0000 
      9 C1'        45.7210   19.7440   19.0220 C.3       1 UMP703      0.0000 
     10 C2'        45.1340   18.6150   18.1900 C.3       1 UMP703      0.0000 
     11 C3'        46.1770   18.4810   17.0930 C.3       1 UMP703      0.0000 
     12 C4'        46.6740   19.8980   16.8470 C.3       1 UMP703      0.0000 
     13 O3'        47.2390   17.6770   17.5990 O.3       1 UMP703      0.0000 
     14 O4'        46.4080   20.5910   18.0690 O.3       1 UMP703      0.0000 
     15 C5'        45.9450   20.5940   15.6850 C.3       1 UMP703      0.0000 
     16 O5'        46.5590   20.2320   14.4480 O.3       1 UMP703      0.0000 
     17 P          45.7840   19.6130   13.1960 P.3       1 UMP703      0.0000 
     18 OP1        46.8550   19.4120   12.1810 O.co2     1 UMP703      0.0000 
     19 OP2        45.2130   18.2970   13.6480 O.co2     1 UMP703      0.0000 
     20 OP3        44.8730   20.7490   12.8520 O.co2     1 UMP703      0.0000 
@<TRIPOS>BOND
     1    1    2 1    
     2    1    6 1    
     3    1    9 1    
     4    2    3 1    
     5    2    7 2    
     6    3    4 1    
     7    4    5 1    
     8    4    8 2    
     9    5    6 2    
    10    9   10 1    
    11    9   14 1    
    12   10   11 1    
    13   11   12 1    
    14   11   13 1    
    15   12   14 1    
    16   12   15 1    
    17   15   16 1    
    18   16   17 1    
    19   17   18 ar   
    20   17   19 ar   
    21   17   20 ar   
@<TRIPOS>SUBSTRUCTURE
     1 UMP703      1 GROUP   
@<TRIPOS>SET
ATOM$ORANGE STATIC     ATOMS   COLORGROUP SYSTEM 
18 2 2 4 4 5 5 6 6 9 9 10 10 11 11 12 12 15 \
15 

