#    Name: 6a2k_4_UMP_CAVITY_N1_4
#    Modification time : Fri May 22 19:26:36 2020

@<TRIPOS>MOLECULE
6a2k_4_UMP_CAVITY_N1_4
   97     0     7     0     0
SMALL
NO_CHARGES


@<TRIPOS>ATOM
      1 OG         10.2600   13.8700   10.6100 O.3       1 SER1        0.0000 
      2 OG         11.6300   14.0400   10.0300 O.3       1 SER1        0.0000 
      3 OG         14.3500   13.1500   12.3300 O.3       1 SER1        0.0000 
      4 OG         12.4600   14.0400   11.9800 O.3       1 SER1        0.0000 
      5 OG         13.8300   14.2100   11.4000 O.3       1 SER1        0.0000 
      6 OG         15.2000   14.3700   10.8200 O.3       1 SER1        0.0000 
      7 OG         11.9400   15.0900   11.0500 O.3       1 SER1        0.0000 
      8 OG         10.0400   15.9800   10.7000 O.3       1 SER1        0.0000 
      9 OG         11.4100   16.1500   10.1100 O.3       1 SER1        0.0000 
     10 OG         14.1400   15.2600   12.4200 O.3       1 SER1        0.0000 
     11 OG         14.9900   16.4800   10.9000 O.3       1 SER1        0.0000 
     12 OG         15.3000   17.5400   11.9200 O.3       1 SER1        0.0000 
     13 O          17.0300   11.5200    6.6000 O.2       2 ALA2        0.0000 
     14 O          16.5100   12.5700    5.6600 O.2       2 ALA2        0.0000 
     15 N          16.4800   11.3600    9.1300 N.am      2 ALA2        0.0000 
     16 O          17.3300   12.5800    7.6100 O.2       2 ALA2        0.0000 
     17 N          16.8100   13.6300    6.6800 N.am      2 ALA2        0.0000 
     18 N          16.2900   14.6800    5.7500 N.am      2 ALA2        0.0000 
     19 O          15.4200   12.2600   10.7300 O.2       2 ALA2        0.0000 
     20 N          16.7900   12.4200   10.1500 N.am      2 ALA2        0.0000 
     21 N          16.2700   13.4700    9.2200 N.am      2 ALA2        0.0000 
     22 N          14.3700   14.3600    8.8600 N.am      2 ALA2        0.0000 
     23 N          15.7500   14.5200    8.2800 N.am      2 ALA2        0.0000 
     24 N          15.2300   15.5800    7.3500 N.am      2 ALA2        0.0000 
     25 N          17.9700   15.9000    6.1800 N.am      2 ALA2        0.0000 
     26 N          16.0800   16.7900    5.8300 N.am      2 ALA2        0.0000 
     27 O          15.7200   13.3200   11.7500 O.2       2 ALA2        0.0000 
     28 N          16.5800   14.5300   10.2300 N.am      2 ALA2        0.0000 
     29 N          14.6800   15.4200    9.8800 N.am      2 ALA2        0.0000 
     30 N          14.1600   16.4700    8.9500 N.am      2 ALA2        0.0000 
     31 N          14.4700   17.5300    9.9700 N.am      2 ALA2        0.0000 
     32 OD1        13.6200   16.3100   11.4800 O.co2     3 ASP3        0.0000 
     33 OD1        10.3500   17.0400   11.7100 O.co2     3 ASP3        0.0000 
     34 OD1        11.7200   17.2000   11.1300 O.co2     3 ASP3        0.0000 
     35 OD1        13.9200   17.3700   12.5000 O.co2     3 ASP3        0.0000 
     36 OD1        12.0300   18.2600   12.1500 O.co2     3 ASP3        0.0000 
     37 OD1        13.4000   18.4200   11.5700 O.co2     3 ASP3        0.0000 
     38 OD1        14.7700   18.5900   10.9800 O.co2     3 ASP3        0.0000 
     39 OD1        11.5100   19.3100   11.2200 O.co2     3 ASP3        0.0000 
     40 OD1        12.8800   19.4700   10.6300 O.co2     3 ASP3        0.0000 
     41 OD1        14.2500   19.6400   10.0500 O.co2     3 ASP3        0.0000 
     42 OD1        10.9900   20.3600   10.2800 O.co2     3 ASP3        0.0000 
     43 OD1        13.7100   19.4800   12.5900 O.co2     3 ASP3        0.0000 
     44 NZ         12.9100   11.0300    8.3400 N.4       4 LYS4        0.0000 
     45 NZ         11.3200   12.9800    9.0100 N.4       4 LYS4        0.0000 
     46 CZ         17.8800   12.7400    5.0800 C.ar      5 PHE5        0.0000 
     47 CZ         18.7300   13.9500    3.5600 C.ar      5 PHE5        0.0000 
     48 CZ         16.8400   14.8400    3.2100 C.ar      5 PHE5        0.0000 
     49 CZ         18.1800   13.7900    6.1000 C.ar      5 PHE5        0.0000 
     50 CZ         17.6600   14.8400    5.1600 C.ar      5 PHE5        0.0000 
     51 CZ         19.0400   15.0100    4.5800 C.ar      5 PHE5        0.0000 
     52 CZ         17.1400   15.9000    4.2300 C.ar      5 PHE5        0.0000 
     53 CA         13.9700   10.1400    6.7400 C.3       6 GLY6        0.0000 
     54 CA         15.3500   10.3000    6.1600 C.3       6 GLY6        0.0000 
     55 CA         14.3000   12.4000    4.2900 C.3       6 GLY6        0.0000 
     56 CA         15.6800   12.5700    3.7100 C.3       6 GLY6        0.0000 
     57 CA         14.2800   11.2000    7.7600 C.3       6 GLY6        0.0000 
     58 CA         15.6500   11.3600    7.1800 C.3       6 GLY6        0.0000 
     59 CA         15.4600   14.6700    3.7900 C.3       6 GLY6        0.0000 
     60 CA         15.1100   11.2000    9.7100 C.3       6 GLY6        0.0000 
     61 CA         13.2200   12.0900    9.3600 C.3       6 GLY6        0.0000 
     62 CA         14.5900   12.2500    8.7800 C.3       6 GLY6        0.0000 
     63 CA         12.1500   12.9900   10.9600 C.3       6 GLY6        0.0000 
     64 CA         13.5200   13.1500   10.3800 C.3       6 GLY6        0.0000 
     65 CA         14.9000   13.3100    9.8000 C.3       6 GLY6        0.0000 
     66 CA         13.3300   16.4600    7.0000 C.3       6 GLY6        0.0000 
     67 CA         14.7000   16.6300    6.4100 C.3       6 GLY6        0.0000 
     68 CA         12.2700   17.3600    8.6000 C.3       6 GLY6        0.0000 
     69 CA         13.6400   17.5200    8.0100 C.3       6 GLY6        0.0000 
     70 CA         11.7400   18.4100    7.6600 C.3       6 GLY6        0.0000 
     71 CA         12.5700   18.4200    9.6100 C.3       6 GLY6        0.0000 
     72 CA         13.9500   18.5800    9.0300 C.3       6 GLY6        0.0000 
     73 CA         12.0500   19.4700    8.6800 C.3       6 GLY6        0.0000 
     74 DU         13.4500   11.1900    5.8100 H         7 CUB7        0.0000 
     75 DU         12.3900   12.0800    7.4100 H         7 CUB7        0.0000 
     76 DU         13.7600   12.2500    6.8300 H         7 CUB7        0.0000 
     77 DU         15.1300   12.4100    6.2400 H         7 CUB7        0.0000 
     78 DU         14.6100   13.4600    5.3100 H         7 CUB7        0.0000 
     79 DU         15.9800   13.6200    4.7300 H         7 CUB7        0.0000 
     80 DU         17.3600   13.7900    4.1400 H         7 CUB7        0.0000 
     81 DU         14.0900   14.5100    4.3800 H         7 CUB7        0.0000 
     82 DU         15.9600   12.4200    8.2000 H         7 CUB7        0.0000 
     83 DU         12.6900   13.1400    8.4300 H         7 CUB7        0.0000 
     84 DU         14.0700   13.3000    7.8500 H         7 CUB7        0.0000 
     85 DU         15.4400   13.4700    7.2600 H         7 CUB7        0.0000 
     86 DU         14.9200   14.5200    6.3300 H         7 CUB7        0.0000 
     87 DU         13.0200   15.4100    5.9800 H         7 CUB7        0.0000 
     88 DU         14.4000   15.5700    5.3900 H         7 CUB7        0.0000 
     89 DU         15.7700   15.7300    4.8100 H         7 CUB7        0.0000 
     90 DU         13.0000   14.2000    9.4500 H         7 CUB7        0.0000 
     91 DU         11.1100   15.0900    9.1000 H         7 CUB7        0.0000 
     92 DU         13.8500   15.4100    7.9300 H         7 CUB7        0.0000 
     93 DU         11.9600   16.3000    7.5800 H         7 CUB7        0.0000 
     94 DU         13.3100   15.2600   10.4700 H         7 CUB7        0.0000 
     95 DU         12.7900   16.3100    9.5300 H         7 CUB7        0.0000 
     96 DU         13.0900   17.3700   10.5500 H         7 CUB7        0.0000 
     97 DU         11.2000   18.2500   10.2000 H         7 CUB7        0.0000 
@<TRIPOS>BOND
@<TRIPOS>SUBSTRUCTURE
     1 SER1        1 GROUP   
     2 ALA2       13 GROUP   
     3 ASP3       32 GROUP   
     4 LYS4       44 GROUP   
     5 PHE5       46 GROUP   
     6 GLY6       53 GROUP   
     7 CUB7       74 GROUP   
@<TRIPOS>SET

