#    Name: 6d35_1_CLR
#    Modification time : Fri May 22 19:24:20 2020

@<TRIPOS>MOLECULE
6d35_1_CLR
   28    31     1     0     0
SMALL
NO_CHARGES


@<TRIPOS>ATOM
      1 C1          8.9430  -17.0670   52.4590 C.3       1 CLR1201     0.0000 
      2 C2          7.4400  -17.2810   52.4970 C.3       1 CLR1201     0.0000 
      3 C3          6.9930  -17.5190   53.9320 C.3       1 CLR1201     0.0000 
      4 C4          7.2450  -16.2560   54.7440 C.3       1 CLR1201     0.0000 
      5 C5          8.6950  -15.8640   54.6140 C.2       1 CLR1201     0.0000 
      6 C6          9.3570  -15.5510   55.7390 C.2       1 CLR1201     0.0000 
      7 C7         10.8280  -15.2220   55.7630 C.3       1 CLR1201     0.0000 
      8 C8         11.2570  -14.7300   54.3970 C.3       1 CLR1201     0.0000 
      9 C9         10.8430  -15.7340   53.3290 C.3       1 CLR1201     0.0000 
     10 C10         9.3250  -15.8140   53.2370 C.3       1 CLR1201     0.0000 
     11 C11        11.4570  -15.4260   51.9570 C.3       1 CLR1201     0.0000 
     12 C12        12.9690  -15.1890   52.0180 C.3       1 CLR1201     0.0000 
     13 C13        13.2610  -14.0970   53.0330 C.3       1 CLR1201     0.0000 
     14 C14        12.7600  -14.5550   54.3810 C.3       1 CLR1201     0.0000 
     15 C15        13.3500  -13.5670   55.3820 C.3       1 CLR1201     0.0000 
     16 C16        14.7060  -13.2010   54.7630 C.3       1 CLR1201     0.0000 
     17 C17        14.7290  -13.8460   53.3720 C.3       1 CLR1201     0.0000 
     18 C18        12.5300  -12.8170   52.6200 C.3       1 CLR1201     0.0000 
     19 C19         8.7860  -14.5860   52.5100 C.3       1 CLR1201     0.0000 
     20 C20        15.5450  -13.0800   52.3290 C.3       1 CLR1201     0.0000 
     21 C21        16.9260  -13.7020   52.2020 C.3       1 CLR1201     0.0000 
     22 C22        15.6210  -11.5690   52.5780 C.3       1 CLR1201     0.0000 
     23 C23        16.9230  -11.0400   53.1830 C.3       1 CLR1201     0.0000 
     24 C24        16.6050   -9.7070   53.8600 C.3       1 CLR1201     0.0000 
     25 C25        17.7870   -9.0360   54.5530 C.3       1 CLR1201     0.0000 
     26 C26        18.2050   -9.7830   55.8050 C.3       1 CLR1201     0.0000 
     27 C27        18.9500   -8.8170   53.6070 C.3       1 CLR1201     0.0000 
     28 O1          5.5950  -17.8280   53.9620 O.3       1 CLR1201     0.0000 
@<TRIPOS>BOND
     1    1    2 1    
     2    1   10 1    
     3    2    3 1    
     4    3    4 1    
     5    3   28 1    
     6    4    5 1    
     7    5    6 2    
     8    5   10 1    
     9    6    7 1    
    10    7    8 1    
    11    8    9 1    
    12    8   14 1    
    13    9   10 1    
    14    9   11 1    
    15   10   19 1    
    16   11   12 1    
    17   12   13 1    
    18   13   14 1    
    19   13   17 1    
    20   13   18 1    
    21   14   15 1    
    22   15   16 1    
    23   16   17 1    
    24   17   20 1    
    25   20   21 1    
    26   20   22 1    
    27   22   23 1    
    28   23   24 1    
    29   24   25 1    
    30   25   26 1    
    31   25   27 1    
@<TRIPOS>SUBSTRUCTURE
     1 CLR1201     1 GROUP   
@<TRIPOS>SET

