#    Name: 6qcv_1_CTP_CAVITY_N1_12
#    Modification time : Fri May 22 19:35:09 2020

@<TRIPOS>MOLECULE
6qcv_1_CTP_CAVITY_N1_12
  125     0     6     0     0
SMALL
NO_CHARGES


@<TRIPOS>ATOM
      1 OG        -54.7900   32.9400  -16.7400 O.3       1 SER1        0.0000 
      2 OG        -46.4500   37.9400  -17.0600 O.3       1 SER1        0.0000 
      3 OG        -45.8300   38.7600  -15.9800 O.3       1 SER1        0.0000 
      4 N         -55.9200   33.3600  -18.4800 N.am      2 ALA2        0.0000 
      5 O         -53.5200   33.0300  -17.5400 O.2       2 ALA2        0.0000 
      6 O         -54.0300   34.2800  -18.2000 O.2       2 ALA2        0.0000 
      7 O         -54.5300   35.5300  -18.8600 O.2       2 ALA2        0.0000 
      8 N         -52.8900   33.8500  -16.4500 N.am      2 ALA2        0.0000 
      9 N         -50.5000   33.5200  -15.5100 N.am      2 ALA2        0.0000 
     10 N         -52.2700   34.6800  -15.3700 N.am      2 ALA2        0.0000 
     11 N         -48.6000   34.4300  -15.2300 N.am      2 ALA2        0.0000 
     12 N         -49.1100   35.6800  -15.8900 N.am      2 ALA2        0.0000 
     13 O         -49.3600   33.1000  -13.7700 O.2       2 ALA2        0.0000 
     14 N         -49.8700   34.3500  -14.4300 N.am      2 ALA2        0.0000 
     15 O         -50.6300   33.0100  -12.9700 O.2       2 ALA2        0.0000 
     16 N         -48.2200   39.1000  -16.9200 N.am      2 ALA2        0.0000 
     17 O         -48.7400   33.9200  -12.6800 O.2       2 ALA2        0.0000 
     18 O         -50.0000   33.8300  -11.8800 O.2       2 ALA2        0.0000 
     19 O         -46.3300   40.0100  -16.6400 O.2       2 ALA2        0.0000 
     20 O         -49.3700   34.6600  -10.8000 O.2       2 ALA2        0.0000 
     21 O         -45.7000   40.8400  -15.5600 O.2       2 ALA2        0.0000 
     22 N         -45.0800   41.6600  -14.4700 N.am      2 ALA2        0.0000 
     23 N         -46.3400   41.5700  -13.6700 N.am      2 ALA2        0.0000 
     24 N         -44.4500   42.4900  -13.3900 N.am      2 ALA2        0.0000 
     25 N         -45.2100   41.1500  -11.9300 N.am      2 ALA2        0.0000 
     26 N         -46.4700   41.0600  -11.1300 N.am      2 ALA2        0.0000 
     27 N         -47.7400   40.9700  -10.3300 N.am      2 ALA2        0.0000 
     28 N         -49.5100   42.1300  -10.1900 N.am      2 ALA2        0.0000 
     29 N         -44.5800   41.9800  -10.8500 N.am      2 ALA2        0.0000 
     30 N         -48.3800   41.7100   -8.4500 N.am      2 ALA2        0.0000 
     31 OD1       -55.0400   36.7700  -19.5200 O.co2     3 ASP3        0.0000 
     32 OD1       -55.2900   34.1900  -17.4000 O.co2     3 ASP3        0.0000 
     33 OD1       -55.8000   35.4400  -18.0600 O.co2     3 ASP3        0.0000 
     34 OD1       -54.1600   33.7600  -15.6500 O.co2     3 ASP3        0.0000 
     35 OD1       -54.6600   35.0100  -16.3100 O.co2     3 ASP3        0.0000 
     36 OD1       -55.1700   36.2600  -16.9700 O.co2     3 ASP3        0.0000 
     37 OD1       -55.6700   37.5100  -17.6300 O.co2     3 ASP3        0.0000 
     38 OD1       -55.4200   33.6800  -14.8500 O.co2     3 ASP3        0.0000 
     39 OD1       -53.5300   34.5900  -14.5700 O.co2     3 ASP3        0.0000 
     40 OD1       -54.0400   35.8400  -15.2300 O.co2     3 ASP3        0.0000 
     41 OD1       -54.5400   37.0900  -15.8900 O.co2     3 ASP3        0.0000 
     42 OD1       -54.8000   34.5000  -13.7700 O.co2     3 ASP3        0.0000 
     43 OD1       -55.3000   35.7500  -14.4300 O.co2     3 ASP3        0.0000 
     44 OD1       -50.3700   35.5900  -15.0900 O.co2     3 ASP3        0.0000 
     45 OD1       -51.1300   34.2600  -13.6300 O.co2     3 ASP3        0.0000 
     46 OD1       -51.6400   35.5100  -14.2900 O.co2     3 ASP3        0.0000 
     47 OD1       -51.8900   32.9200  -12.1700 O.co2     3 ASP3        0.0000 
     48 OD1       -52.4000   34.1700  -12.8300 O.co2     3 ASP3        0.0000 
     49 OD1       -52.9000   35.4200  -13.4900 O.co2     3 ASP3        0.0000 
     50 OD1       -54.1700   35.3300  -12.6800 O.co2     3 ASP3        0.0000 
     51 OD1       -54.6700   36.5800  -13.3400 O.co2     3 ASP3        0.0000 
     52 OD1       -48.4800   36.5100  -14.8000 O.co2     3 ASP3        0.0000 
     53 OD1       -49.2400   35.1700  -13.3400 O.co2     3 ASP3        0.0000 
     54 OD1       -49.7500   36.4200  -14.0000 O.co2     3 ASP3        0.0000 
     55 OD1       -50.5100   35.0800  -12.5400 O.co2     3 ASP3        0.0000 
     56 OD1       -51.7700   34.9900  -11.7400 O.co2     3 ASP3        0.0000 
     57 OD1       -53.5400   36.1500  -11.6000 O.co2     3 ASP3        0.0000 
     58 OD1       -47.0900   38.6700  -15.1800 O.co2     3 ASP3        0.0000 
     59 OD1       -47.3500   36.0900  -13.0600 O.co2     3 ASP3        0.0000 
     60 OD1       -47.8500   37.3400  -13.7200 O.co2     3 ASP3        0.0000 
     61 OD1       -48.3600   38.5800  -14.3800 O.co2     3 ASP3        0.0000 
     62 OD1       -48.1100   34.7500  -11.6000 O.co2     3 ASP3        0.0000 
     63 OD1       -48.6100   36.0000  -12.2600 O.co2     3 ASP3        0.0000 
     64 OD1       -49.1200   37.2500  -12.9200 O.co2     3 ASP3        0.0000 
     65 OD1       -49.8800   35.9100  -11.4600 O.co2     3 ASP3        0.0000 
     66 OD1       -51.1400   35.8200  -10.6600 O.co2     3 ASP3        0.0000 
     67 OD1       -46.4600   39.5000  -14.1000 O.co2     3 ASP3        0.0000 
     68 OD1       -46.7200   36.9100  -11.9800 O.co2     3 ASP3        0.0000 
     69 OD1       -47.2200   38.1600  -12.6400 O.co2     3 ASP3        0.0000 
     70 OD1       -47.9900   36.8200  -11.1800 O.co2     3 ASP3        0.0000 
     71 OD1       -48.4900   38.0700  -11.8400 O.co2     3 ASP3        0.0000 
     72 OD1       -49.0000   39.3200  -12.5000 O.co2     3 ASP3        0.0000 
     73 OD1       -48.7500   35.4900   -9.7200 O.co2     3 ASP3        0.0000 
     74 OD1       -49.2500   36.7400  -10.3800 O.co2     3 ASP3        0.0000 
     75 OD1       -50.0100   35.4000   -8.9200 O.co2     3 ASP3        0.0000 
     76 OD1       -50.5200   36.6500   -9.5800 O.co2     3 ASP3        0.0000 
     77 OD1       -44.5700   40.4100  -13.8100 O.co2     3 ASP3        0.0000 
     78 OD1       -45.3300   39.0800  -12.3500 O.co2     3 ASP3        0.0000 
     79 OD1       -45.8400   40.3300  -13.0100 O.co2     3 ASP3        0.0000 
     80 OD1       -46.0900   37.7400  -10.8900 O.co2     3 ASP3        0.0000 
     81 OD1       -46.6000   38.9900  -11.5500 O.co2     3 ASP3        0.0000 
     82 OD1       -47.3600   37.6500  -10.0900 O.co2     3 ASP3        0.0000 
     83 OD1       -47.8600   38.9000  -10.7500 O.co2     3 ASP3        0.0000 
     84 OD1       -48.3700   40.1500  -11.4100 O.co2     3 ASP3        0.0000 
     85 OD1       -48.1200   36.3100   -8.6300 O.co2     3 ASP3        0.0000 
     86 OD1       -48.6200   37.5600   -9.2900 O.co2     3 ASP3        0.0000 
     87 OD1       -49.1300   38.8100   -9.9500 O.co2     3 ASP3        0.0000 
     88 OD1       -42.6800   41.3300  -13.5300 O.co2     3 ASP3        0.0000 
     89 OD1       -43.9400   41.2400  -12.7300 O.co2     3 ASP3        0.0000 
     90 OD1       -44.7000   39.9000  -11.2700 O.co2     3 ASP3        0.0000 
     91 OD1       -46.7300   38.4800   -9.0100 O.co2     3 ASP3        0.0000 
     92 OD1       -48.5000   39.6400   -8.8700 O.co2     3 ASP3        0.0000 
     93 OD1       -49.0100   40.8800   -9.5300 O.co2     3 ASP3        0.0000 
     94 OD1       -49.7700   39.5500   -8.0700 O.co2     3 ASP3        0.0000 
     95 OD1       -43.3200   42.0700  -11.6500 O.co2     3 ASP3        0.0000 
     96 NZ        -53.0300   33.3400  -13.9100 N.4       4 LYS4        0.0000 
     97 NZ        -54.2900   33.2500  -13.1100 N.4       4 LYS4        0.0000 
     98 NZ        -47.8400   35.7700  -16.6900 N.4       4 LYS4        0.0000 
     99 NZ        -53.6600   34.0800  -12.0300 N.4       4 LYS4        0.0000 
    100 NZ        -47.2100   36.6000  -15.6000 N.4       4 LYS4        0.0000 
    101 NZ        -47.9700   35.2600  -14.1400 N.4       4 LYS4        0.0000 
    102 CA        -55.1600   34.7000  -19.9400 C.3       5 GLY6        0.0000 
    103 CA        -53.4000   35.1000  -17.1100 C.3       5 GLY6        0.0000 
    104 CA        -53.9000   36.3500  -17.7700 C.3       5 GLY6        0.0000 
    105 CA        -53.6500   32.5200  -14.9900 C.3       5 GLY6        0.0000 
    106 CA        -51.7600   33.4300  -14.7100 C.3       5 GLY6        0.0000 
    107 CA        -52.7700   35.9300  -16.0300 C.3       5 GLY6        0.0000 
    108 CA        -48.3500   37.0200  -17.3500 C.3       5 GLY6        0.0000 
    109 CA        -47.7200   37.8500  -16.2600 C.3       5 GLY6        0.0000 
    110 CA        -47.4700   34.0100  -13.4800 C.3       5 GLY6        0.0000 
    111 CA        -48.9800   37.7600  -15.4600 C.3       5 GLY6        0.0000 
    112 CA        -47.7300   39.4100  -13.3000 C.3       5 GLY6        0.0000 
    113 CA        -47.1000   40.2400  -12.2100 C.3       5 GLY6        0.0000 
    114 CA        -47.6100   41.4900  -12.8700 C.3       5 GLY6        0.0000 
    115 CA        -48.8700   41.4000  -12.0700 C.3       5 GLY6        0.0000 
    116 CA        -50.2700   40.8000   -8.7300 C.3       5 GLY6        0.0000 
    117 CA        -45.8500   41.8900  -10.0500 C.3       5 GLY6        0.0000 
    118 CA        -49.6400   41.6200   -7.6400 C.3       5 GLY6        0.0000 
    119 CA        -50.9100   41.5300   -6.8400 C.3       5 GLY6        0.0000 
    120 DU        -45.9700   39.8100  -10.4700 H         6 CUB7        0.0000 
    121 DU        -47.2400   39.7200   -9.6700 H         6 CUB7        0.0000 
    122 DU        -48.0000   38.3900   -8.2100 H         6 CUB7        0.0000 
    123 DU        -46.6100   40.5500   -8.5900 H         6 CUB7        0.0000 
    124 DU        -47.8700   40.4600   -7.7900 H         6 CUB7        0.0000 
    125 DU        -49.1400   40.3700   -6.9800 H         6 CUB7        0.0000 
@<TRIPOS>BOND
@<TRIPOS>SUBSTRUCTURE
     1 SER1        1 GROUP   
     2 ALA2        4 GROUP   
     3 ASP3       31 GROUP   
     4 LYS4       96 GROUP   
     5 GLY6      102 GROUP   
     6 CUB7      120 GROUP   
@<TRIPOS>SET

