#    Name: 6qcv_1_CTP_CAVITY_N1_4
#    Modification time : Fri May 22 19:35:09 2020

@<TRIPOS>MOLECULE
6qcv_1_CTP_CAVITY_N1_4
   81     0     6     0     0
SMALL
NO_CHARGES


@<TRIPOS>ATOM
      1 OG        -54.7900   32.9400  -16.7400 O.3       1 SER1        0.0000 
      2 N         -55.9200   33.3600  -18.4800 N.am      2 ALA2        0.0000 
      3 O         -53.5200   33.0300  -17.5400 O.2       2 ALA2        0.0000 
      4 O         -54.0300   34.2800  -18.2000 O.2       2 ALA2        0.0000 
      5 O         -54.5300   35.5300  -18.8600 O.2       2 ALA2        0.0000 
      6 N         -52.8900   33.8500  -16.4500 N.am      2 ALA2        0.0000 
      7 N         -50.5000   33.5200  -15.5100 N.am      2 ALA2        0.0000 
      8 N         -52.2700   34.6800  -15.3700 N.am      2 ALA2        0.0000 
      9 N         -48.6000   34.4300  -15.2300 N.am      2 ALA2        0.0000 
     10 N         -49.1100   35.6800  -15.8900 N.am      2 ALA2        0.0000 
     11 O         -49.3600   33.1000  -13.7700 O.2       2 ALA2        0.0000 
     12 N         -49.8700   34.3500  -14.4300 N.am      2 ALA2        0.0000 
     13 O         -50.6300   33.0100  -12.9700 O.2       2 ALA2        0.0000 
     14 O         -48.7400   33.9200  -12.6800 O.2       2 ALA2        0.0000 
     15 O         -50.0000   33.8300  -11.8800 O.2       2 ALA2        0.0000 
     16 O         -49.3700   34.6600  -10.8000 O.2       2 ALA2        0.0000 
     17 OD1       -55.0400   36.7700  -19.5200 O.co2     3 ASP3        0.0000 
     18 OD1       -55.2900   34.1900  -17.4000 O.co2     3 ASP3        0.0000 
     19 OD1       -55.8000   35.4400  -18.0600 O.co2     3 ASP3        0.0000 
     20 OD1       -54.1600   33.7600  -15.6500 O.co2     3 ASP3        0.0000 
     21 OD1       -54.6600   35.0100  -16.3100 O.co2     3 ASP3        0.0000 
     22 OD1       -55.1700   36.2600  -16.9700 O.co2     3 ASP3        0.0000 
     23 OD1       -55.6700   37.5100  -17.6300 O.co2     3 ASP3        0.0000 
     24 OD1       -55.4200   33.6800  -14.8500 O.co2     3 ASP3        0.0000 
     25 OD1       -53.5300   34.5900  -14.5700 O.co2     3 ASP3        0.0000 
     26 OD1       -54.0400   35.8400  -15.2300 O.co2     3 ASP3        0.0000 
     27 OD1       -54.5400   37.0900  -15.8900 O.co2     3 ASP3        0.0000 
     28 OD1       -54.8000   34.5000  -13.7700 O.co2     3 ASP3        0.0000 
     29 OD1       -55.3000   35.7500  -14.4300 O.co2     3 ASP3        0.0000 
     30 OD1       -50.3700   35.5900  -15.0900 O.co2     3 ASP3        0.0000 
     31 OD1       -51.1300   34.2600  -13.6300 O.co2     3 ASP3        0.0000 
     32 OD1       -51.6400   35.5100  -14.2900 O.co2     3 ASP3        0.0000 
     33 OD1       -51.8900   32.9200  -12.1700 O.co2     3 ASP3        0.0000 
     34 OD1       -52.4000   34.1700  -12.8300 O.co2     3 ASP3        0.0000 
     35 OD1       -52.9000   35.4200  -13.4900 O.co2     3 ASP3        0.0000 
     36 OD1       -54.1700   35.3300  -12.6800 O.co2     3 ASP3        0.0000 
     37 OD1       -54.6700   36.5800  -13.3400 O.co2     3 ASP3        0.0000 
     38 OD1       -48.4800   36.5100  -14.8000 O.co2     3 ASP3        0.0000 
     39 OD1       -49.2400   35.1700  -13.3400 O.co2     3 ASP3        0.0000 
     40 OD1       -49.7500   36.4200  -14.0000 O.co2     3 ASP3        0.0000 
     41 OD1       -50.5100   35.0800  -12.5400 O.co2     3 ASP3        0.0000 
     42 OD1       -51.7700   34.9900  -11.7400 O.co2     3 ASP3        0.0000 
     43 OD1       -53.5400   36.1500  -11.6000 O.co2     3 ASP3        0.0000 
     44 OD1       -47.3500   36.0900  -13.0600 O.co2     3 ASP3        0.0000 
     45 OD1       -47.8500   37.3400  -13.7200 O.co2     3 ASP3        0.0000 
     46 OD1       -48.1100   34.7500  -11.6000 O.co2     3 ASP3        0.0000 
     47 OD1       -48.6100   36.0000  -12.2600 O.co2     3 ASP3        0.0000 
     48 OD1       -49.1200   37.2500  -12.9200 O.co2     3 ASP3        0.0000 
     49 OD1       -49.8800   35.9100  -11.4600 O.co2     3 ASP3        0.0000 
     50 OD1       -51.1400   35.8200  -10.6600 O.co2     3 ASP3        0.0000 
     51 OD1       -46.7200   36.9100  -11.9800 O.co2     3 ASP3        0.0000 
     52 OD1       -47.2200   38.1600  -12.6400 O.co2     3 ASP3        0.0000 
     53 OD1       -47.9900   36.8200  -11.1800 O.co2     3 ASP3        0.0000 
     54 OD1       -48.4900   38.0700  -11.8400 O.co2     3 ASP3        0.0000 
     55 OD1       -49.0000   39.3200  -12.5000 O.co2     3 ASP3        0.0000 
     56 OD1       -48.7500   35.4900   -9.7200 O.co2     3 ASP3        0.0000 
     57 OD1       -49.2500   36.7400  -10.3800 O.co2     3 ASP3        0.0000 
     58 OD1       -50.0100   35.4000   -8.9200 O.co2     3 ASP3        0.0000 
     59 OD1       -50.5200   36.6500   -9.5800 O.co2     3 ASP3        0.0000 
     60 OD1       -46.0900   37.7400  -10.8900 O.co2     3 ASP3        0.0000 
     61 OD1       -46.6000   38.9900  -11.5500 O.co2     3 ASP3        0.0000 
     62 OD1       -47.3600   37.6500  -10.0900 O.co2     3 ASP3        0.0000 
     63 OD1       -47.8600   38.9000  -10.7500 O.co2     3 ASP3        0.0000 
     64 OD1       -48.1200   36.3100   -8.6300 O.co2     3 ASP3        0.0000 
     65 OD1       -48.6200   37.5600   -9.2900 O.co2     3 ASP3        0.0000 
     66 OD1       -49.1300   38.8100   -9.9500 O.co2     3 ASP3        0.0000 
     67 OD1       -46.7300   38.4800   -9.0100 O.co2     3 ASP3        0.0000 
     68 OD1       -48.5000   39.6400   -8.8700 O.co2     3 ASP3        0.0000 
     69 NZ        -53.0300   33.3400  -13.9100 N.4       4 LYS4        0.0000 
     70 NZ        -54.2900   33.2500  -13.1100 N.4       4 LYS4        0.0000 
     71 NZ        -53.6600   34.0800  -12.0300 N.4       4 LYS4        0.0000 
     72 NZ        -47.9700   35.2600  -14.1400 N.4       4 LYS4        0.0000 
     73 CA        -55.1600   34.7000  -19.9400 C.3       5 GLY6        0.0000 
     74 CA        -53.4000   35.1000  -17.1100 C.3       5 GLY6        0.0000 
     75 CA        -53.9000   36.3500  -17.7700 C.3       5 GLY6        0.0000 
     76 CA        -53.6500   32.5200  -14.9900 C.3       5 GLY6        0.0000 
     77 CA        -51.7600   33.4300  -14.7100 C.3       5 GLY6        0.0000 
     78 CA        -52.7700   35.9300  -16.0300 C.3       5 GLY6        0.0000 
     79 CA        -47.4700   34.0100  -13.4800 C.3       5 GLY6        0.0000 
     80 DU        -47.2400   39.7200   -9.6700 H         6 CUB7        0.0000 
     81 DU        -48.0000   38.3900   -8.2100 H         6 CUB7        0.0000 
@<TRIPOS>BOND
@<TRIPOS>SUBSTRUCTURE
     1 SER1        1 GROUP   
     2 ALA2        2 GROUP   
     3 ASP3       17 GROUP   
     4 LYS4       69 GROUP   
     5 GLY6       73 GROUP   
     6 CUB7       80 GROUP   
@<TRIPOS>SET

