#    Name: 6qcv_1_CTP
#    Modification time : Fri May 22 19:35:08 2020

@<TRIPOS>MOLECULE
6qcv_1_CTP
   29    30     1     0     1
SMALL
NO_CHARGES


@<TRIPOS>ATOM
      1 N1        -55.1860   35.9520  -17.5800 N.am      1 CTP801      0.0000 
      2 C2        -55.1250   36.6750  -18.7750 C.2       1 CTP801      0.0000 
      3 N3        -55.2920   38.0200  -18.7450 N.2       1 CTP801      0.0000 
      4 C4        -55.5200   38.6510  -17.5860 C.2       1 CTP801      0.0000 
      5 C5        -55.5960   37.9320  -16.3620 C.2       1 CTP801      0.0000 
      6 C6        -55.4250   36.6010  -16.4030 C.2       1 CTP801      0.0000 
      7 O2        -54.9080   36.0620  -19.8310 O.2       1 CTP801      0.0000 
      8 N4        -55.6810   39.9660  -17.6130 N.pl3     1 CTP801      0.0000 
      9 C1'       -55.0000   34.4740  -17.6440 C.3       1 CTP801      0.0000 
     10 C2'       -53.5540   34.0570  -17.9300 C.3       1 CTP801      0.0000 
     11 O2'       -53.5570   32.8010  -18.5770 O.3       1 CTP801      0.0000 
     12 C3'       -52.9990   33.9890  -16.5060 C.3       1 CTP801      0.0000 
     13 C4'       -54.1700   33.3140  -15.7820 C.3       1 CTP801      0.0000 
     14 O4'       -55.3450   33.9040  -16.3990 O.3       1 CTP801      0.0000 
     15 O3'       -51.8150   33.2080  -16.4120 O.3       1 CTP801      0.0000 
     16 C5'       -54.2310   33.4810  -14.2820 C.3       1 CTP801      0.0000 
     17 O5'       -53.9720   34.8620  -13.9160 O.3       1 CTP801      0.0000 
     18 PA        -53.7210   35.2110  -12.3680 P.3       1 CTP801      0.0000 
     19 O1A       -54.1310   36.6230  -12.1040 O.co2     1 CTP801      0.0000 
     20 O2A       -54.3230   34.1450  -11.5120 O.co2     1 CTP801      0.0000 
     21 O3A       -52.1190   35.1110  -12.2800 O.3       1 CTP801      0.0000 
     22 PB        -51.0470   33.9220  -12.3930 P.3       1 CTP801      0.0000 
     23 O1B       -50.8040   33.6110  -13.8330 O.co2     1 CTP801      0.0000 
     24 O2B       -51.4490   32.8240  -11.4690 O.co2     1 CTP801      0.0000 
     25 O3B       -49.7440   34.6310  -11.7900 O.3       1 CTP801      0.0000 
     26 PG        -49.1430   34.7420  -10.2950 P.3       1 CTP801      0.0000 
     27 O1G       -48.0720   33.6850  -10.2030 O.co2     1 CTP801      0.0000 
     28 O2G       -50.2980   34.4820   -9.3610 O.co2     1 CTP801      0.0000 
     29 O3G       -48.5910   36.1430  -10.1650 O.co2     1 CTP801      0.0000 
@<TRIPOS>BOND
     1    1    2 am   
     2    1    6 1    
     3    1    9 1    
     4    2    3 1    
     5    2    7 2    
     6    3    4 2    
     7    4    5 1    
     8    4    8 1    
     9    5    6 2    
    10    9   10 1    
    11    9   14 1    
    12   10   11 1    
    13   10   12 1    
    14   12   13 1    
    15   12   15 1    
    16   13   14 1    
    17   13   16 1    
    18   16   17 1    
    19   17   18 1    
    20   18   19 ar   
    21   18   20 ar   
    22   18   21 1    
    23   21   22 1    
    24   22   23 ar   
    25   22   24 ar   
    26   22   25 1    
    27   25   26 1    
    28   26   27 ar   
    29   26   28 ar   
    30   26   29 ar   
@<TRIPOS>SUBSTRUCTURE
     1 CTP801      1 GROUP   
@<TRIPOS>SET
ATOM$ORANGE STATIC     ATOMS   COLORGROUP SYSTEM 
18 2 2 4 4 5 5 6 6 9 9 10 10 12 12 13 13 16 \
16 

