#    Name: 6jx2_3_NAP
#    Modification time : Fri May 22 19:35:29 2020

@<TRIPOS>MOLECULE
6jx2_3_NAP
   31    33     1     0     1
SMALL
NO_CHARGES


@<TRIPOS>ATOM
      1 PA         61.7240   10.2190   10.9810 P.3       1 NAP403      0.0000 
      2 O1A        60.3640   10.3240   11.6450 O.co2     1 NAP403      0.0000 
      3 O2A        62.9460   10.7510   11.6980 O.co2     1 NAP403      0.0000 
      4 O5B        62.0090    8.6560   10.7170 O.3       1 NAP403      0.0000 
      5 C5B        63.2800    8.2450   10.2250 C.3       1 NAP403      0.0000 
      6 C4B        63.2280    6.7890    9.7920 C.3       1 NAP403      0.0000 
      7 O4B        64.3700    6.5020    8.9850 O.3       1 NAP403      0.0000 
      8 C3B        63.2590    5.8180   10.9700 C.3       1 NAP403      0.0000 
      9 O3B        62.2580    4.8080   10.8060 O.3       1 NAP403      0.0000 
     10 C2B        64.6380    5.1980   10.9470 C.3       1 NAP403      0.0000 
     11 O2B        64.6250    3.8290   11.3820 O.3       1 NAP403      0.0000 
     12 C1B        65.0060    5.3210    9.4750 C.3       1 NAP403      0.0000 
     13 N9A        66.4690    5.3280    9.2350 N.pl3     1 NAP403      0.0000 
     14 C8A        67.3900    6.1190    9.8160 C.2       1 NAP403      0.0000 
     15 N7A        68.6250    5.8180    9.3400 N.2       1 NAP403      0.0000 
     16 C5A        68.5020    4.8170    8.4470 C.ar      1 NAP403      0.0000 
     17 C6A        69.4040    4.0170    7.5780 C.ar      1 NAP403      0.0000 
     18 N6A        70.7370    4.2470    7.5750 N.pl3     1 NAP403      0.0000 
     19 N1A        68.8510    3.0630    6.7840 N.ar      1 NAP403      0.0000 
     20 C2A        67.5180    2.8260    6.7720 C.ar      1 NAP403      0.0000 
     21 N3A        66.6480    3.5160    7.5340 N.ar      1 NAP403      0.0000 
     22 C4A        67.0690    4.5010    8.3770 C.ar      1 NAP403      0.0000 
     23 O3         61.6770   10.8480    9.4780 O.3       1 NAP403      0.0000 
     24 PN         60.3770   10.8520    8.5000 P.3       1 NAP403      0.0000 
     25 O1N        60.0360    9.4280    8.0930 O.3       1 NAP403      0.0000 
     26 O2N        59.2960   11.6740    9.1600 O.co2     1 NAP403      0.0000 
     27 O5D        60.8900   11.6660    7.1920 O.co2     1 NAP403      0.0000 
     28 P2B        65.6300    3.1870   12.4760 P.3       1 NAP403      0.0000 
     29 O1X        66.7750    4.1690   12.5540 O.co2     1 NAP403      0.0000 
     30 O2X        64.7880    3.0670   13.7300 O.co2     1 NAP403      0.0000 
     31 O3X        66.0650    1.8720   11.8820 O.co2     1 NAP403      0.0000 
@<TRIPOS>BOND
     1    1    2 ar   
     2    1    3 ar   
     3    1    4 1    
     4    1   23 1    
     5    4    5 1    
     6    5    6 1    
     7    6    7 1    
     8    6    8 1    
     9    7   12 1    
    10    8    9 1    
    11    8   10 1    
    12   10   11 1    
    13   10   12 1    
    14   11   28 1    
    15   12   13 1    
    16   13   14 1    
    17   13   22 1    
    18   14   15 2    
    19   15   16 1    
    20   16   17 ar   
    21   16   22 ar   
    22   17   18 1    
    23   17   19 ar   
    24   19   20 ar   
    25   20   21 ar   
    26   21   22 ar   
    27   23   24 1    
    28   24   25 1    
    29   24   26 ar   
    30   24   27 ar   
    31   28   29 ar   
    32   28   30 ar   
    33   28   31 ar   
@<TRIPOS>SUBSTRUCTURE
     1 NAP403      1 GROUP   
@<TRIPOS>SET
ATOM$ORANGE STATIC     ATOMS   COLORGROUP SYSTEM 
20 5 5 6 6 8 8 10 10 12 12 14 14 16 16 17 17 20 \
20 22 22 

