#    Name: 6jx2_1_NAP
#    Modification time : Fri May 22 19:35:21 2020

@<TRIPOS>MOLECULE
6jx2_1_NAP
   31    33     1     0     1
SMALL
NO_CHARGES


@<TRIPOS>ATOM
      1 PA         25.8620   -8.8880   -0.7410 P.3       1 NAP405      0.0000 
      2 O1A        26.0560   -7.5830    0.0310 O.co2     1 NAP405      0.0000 
      3 O2A        24.5230   -9.2440   -1.3520 O.co2     1 NAP405      0.0000 
      4 O5B        26.8850   -8.9230   -1.9840 O.3       1 NAP405      0.0000 
      5 C5B        26.9180  -10.0040   -2.9110 C.3       1 NAP405      0.0000 
      6 C4B        28.0410   -9.7770   -3.9150 C.3       1 NAP405      0.0000 
      7 O4B        28.1020  -10.9100   -4.7870 O.3       1 NAP405      0.0000 
      8 C3B        27.8310   -8.5430   -4.8030 C.3       1 NAP405      0.0000 
      9 O3B        28.9680   -7.6670   -4.8710 O.3       1 NAP405      0.0000 
     10 C2B        27.5730   -9.1100   -6.1780 C.3       1 NAP405      0.0000 
     11 O2B        28.0950   -8.2610   -7.2080 O.3       1 NAP405      0.0000 
     12 C1B        28.2820  -10.4550   -6.1280 C.3       1 NAP405      0.0000 
     13 N9A        27.7750  -11.4390   -7.1150 N.pl3     1 NAP405      0.0000 
     14 C8A        26.4870  -11.7820   -7.3280 C.2       1 NAP405      0.0000 
     15 N7A        26.4060  -12.7150   -8.3130 N.2       1 NAP405      0.0000 
     16 C5A        27.6550  -12.9930   -8.7410 C.ar      1 NAP405      0.0000 
     17 C6A        28.2810  -13.8900   -9.7600 C.ar      1 NAP405      0.0000 
     18 N6A        27.4950  -14.6970  -10.5210 N.pl3     1 NAP405      0.0000 
     19 N1A        29.6400  -13.8770   -9.8910 N.ar      1 NAP405      0.0000 
     20 C2A        30.4010  -13.0640   -9.1200 C.ar      1 NAP405      0.0000 
     21 N3A        29.9000  -12.2290   -8.1820 N.ar      1 NAP405      0.0000 
     22 C4A        28.5590  -12.1440   -7.9450 C.ar      1 NAP405      0.0000 
     23 O3         26.4460  -10.0740    0.2050 O.3       1 NAP405      0.0000 
     24 PN         25.5940  -11.2340    0.9600 P.3       1 NAP405      0.0000 
     25 O1N        24.9130  -10.6660    2.1890 O.3       1 NAP405      0.0000 
     26 O2N        24.7080  -11.9280   -0.0480 O.co2     1 NAP405      0.0000 
     27 O5D        26.7600  -12.2620    1.4230 O.co2     1 NAP405      0.0000 
     28 P2B        27.1780   -7.6270   -8.3770 P.3       1 NAP405      0.0000 
     29 O1X        25.8210   -8.2900   -8.3080 O.co2     1 NAP405      0.0000 
     30 O2X        27.1450   -6.1560   -8.0460 O.co2     1 NAP405      0.0000 
     31 O3X        27.9520   -7.9870   -9.6160 O.co2     1 NAP405      0.0000 
@<TRIPOS>BOND
     1    1    2 ar   
     2    1    3 ar   
     3    1    4 1    
     4    1   23 1    
     5    4    5 1    
     6    5    6 1    
     7    6    7 1    
     8    6    8 1    
     9    7   12 1    
    10    8    9 1    
    11    8   10 1    
    12   10   11 1    
    13   10   12 1    
    14   11   28 1    
    15   12   13 1    
    16   13   14 1    
    17   13   22 1    
    18   14   15 2    
    19   15   16 1    
    20   16   17 ar   
    21   16   22 ar   
    22   17   18 1    
    23   17   19 ar   
    24   19   20 ar   
    25   20   21 ar   
    26   21   22 ar   
    27   23   24 1    
    28   24   25 1    
    29   24   26 ar   
    30   24   27 ar   
    31   28   29 ar   
    32   28   30 ar   
    33   28   31 ar   
@<TRIPOS>SUBSTRUCTURE
     1 NAP405      1 GROUP   
@<TRIPOS>SET
ATOM$ORANGE STATIC     ATOMS   COLORGROUP SYSTEM 
20 5 5 6 6 8 8 10 10 12 12 14 14 16 16 17 17 20 \
20 22 22 

