#    Name: 6jx2_2_NAP
#    Modification time : Fri May 22 19:35:26 2020

@<TRIPOS>MOLECULE
6jx2_2_NAP
   48    52     1     0     1
SMALL
NO_CHARGES


@<TRIPOS>ATOM
      1 PA         32.2930   41.4800   25.3370 P.3       1 NAP403      0.0000 
      2 O1A        32.1230   40.4150   24.2820 O.co2     1 NAP403      0.0000 
      3 O2A        32.8840   42.8050   24.9420 O.co2     1 NAP403      0.0000 
      4 O5B        30.8150   41.8290   25.8860 O.3       1 NAP403      0.0000 
      5 C5B        30.5170   43.0600   26.5340 C.3       1 NAP403      0.0000 
      6 C4B        29.1160   42.9710   27.1210 C.3       1 NAP403      0.0000 
      7 O4B        28.8540   44.1310   27.9370 O.3       1 NAP403      0.0000 
      8 C3B        28.0510   42.9080   26.0280 C.3       1 NAP403      0.0000 
      9 O3B        27.0240   41.9750   26.4030 O.3       1 NAP403      0.0000 
     10 C2B        27.6040   44.3610   25.9550 C.3       1 NAP403      0.0000 
     11 O2B        26.2870   44.6020   25.4520 O.3       1 NAP403      0.0000 
     12 C1B        27.7210   44.8200   27.4070 C.3       1 NAP403      0.0000 
     13 N9A        27.8030   46.3050   27.5330 N.pl3     1 NAP403      0.0000 
     14 C8A        28.4420   47.1970   26.7340 C.2       1 NAP403      0.0000 
     15 N7A        28.2510   48.4680   27.1770 N.2       1 NAP403      0.0000 
     16 C5A        27.4770   48.3940   28.2770 C.ar      1 NAP403      0.0000 
     17 C6A        26.8830   49.3510   29.2520 C.ar      1 NAP403      0.0000 
     18 N6A        27.1120   50.6760   29.1230 N.pl3     1 NAP403      0.0000 
     19 N1A        26.1340   48.8560   30.2780 N.ar      1 NAP403      0.0000 
     20 C2A        25.9100   47.5270   30.4150 C.ar      1 NAP403      0.0000 
     21 N3A        26.4080   46.6070   29.5620 N.ar      1 NAP403      0.0000 
     22 C4A        27.1810   46.9690   28.5020 C.ar      1 NAP403      0.0000 
     23 O3         33.0040   40.7750   26.6360 O.3       1 NAP403      0.0000 
     24 PN         34.5030   41.1110   27.1270 P.3       1 NAP403      0.0000 
     25 O1N        35.4190   40.3090   26.2360 O.co2     1 NAP403      0.0000 
     26 O2N        34.6450   42.6160   27.1450 O.co2     1 NAP403      0.0000 
     27 O5D        34.6810   40.6260   28.6650 O.3       1 NAP403      0.0000 
     28 C5D        34.5200   41.4880   29.8160 C.3       1 NAP403      0.0000 
     29 C4D        35.7060   41.5020   30.7990 C.3       1 NAP403      0.0000 
     30 O4D        36.3530   40.2180   30.9040 O.3       1 NAP403      0.0000 
     31 C3D        36.8060   42.4960   30.4420 C.3       1 NAP403      0.0000 
     32 O3D        37.1980   43.2200   31.6220 O.3       1 NAP403      0.0000 
     33 C2D        37.9100   41.6160   29.8620 C.3       1 NAP403      0.0000 
     34 O2D        39.2310   42.1680   29.9300 O.3       1 NAP403      0.0000 
     35 C1D        37.7670   40.3170   30.6640 C.3       1 NAP403      0.0000 
     36 N1N        38.3160   39.1050   30.0070 N.pl3     1 NAP403      0.0000 
     37 C2N        38.0290   38.8380   28.7080 C.ar      1 NAP403      0.0000 
     38 C3N        38.5210   37.7080   28.0360 C.ar      1 NAP403      0.0000 
     39 C7N        38.1390   37.5080   26.5790 C.2       1 NAP403      0.0000 
     40 O7N        37.4500   38.3440   25.9920 O.2       1 NAP403      0.0000 
     41 N7N        38.5340   36.4260   25.9020 N.am      1 NAP403      0.0000 
     42 C4N        39.3390   36.8210   28.7650 C.ar      1 NAP403      0.0000 
     43 C5N        39.6270   37.1040   30.1090 C.ar      1 NAP403      0.0000 
     44 C6N        39.0970   38.2540   30.7090 C.ar      1 NAP403      0.0000 
     45 P2B        25.9750   44.9850   23.9120 P.3       1 NAP403      0.0000 
     46 O1X        27.0080   46.0220   23.4810 O.co2     1 NAP403      0.0000 
     47 O2X        26.1000   43.6660   23.1660 O.co2     1 NAP403      0.0000 
     48 O3X        24.5550   45.5170   24.0150 O.co2     1 NAP403      0.0000 
@<TRIPOS>BOND
     1    1    2 ar   
     2    1    3 ar   
     3    1    4 1    
     4    1   23 1    
     5    4    5 1    
     6    5    6 1    
     7    6    7 1    
     8    6    8 1    
     9    7   12 1    
    10    8    9 1    
    11    8   10 1    
    12   10   11 1    
    13   10   12 1    
    14   11   45 1    
    15   12   13 1    
    16   13   14 1    
    17   13   22 1    
    18   14   15 2    
    19   15   16 1    
    20   16   17 ar   
    21   16   22 ar   
    22   17   18 1    
    23   17   19 ar   
    24   19   20 ar   
    25   20   21 ar   
    26   21   22 ar   
    27   23   24 1    
    28   24   25 ar   
    29   24   26 ar   
    30   24   27 1    
    31   27   28 1    
    32   28   29 1    
    33   29   30 1    
    34   29   31 1    
    35   30   35 1    
    36   31   32 1    
    37   31   33 1    
    38   33   34 1    
    39   33   35 1    
    40   35   36 1    
    41   36   37 ar   
    42   36   44 ar   
    43   37   38 ar   
    44   38   39 1    
    45   38   42 ar   
    46   39   40 2    
    47   39   41 am   
    48   42   43 ar   
    49   43   44 ar   
    50   45   46 ar   
    51   45   47 ar   
    52   45   48 ar   
@<TRIPOS>SUBSTRUCTURE
     1 NAP403      1 GROUP   
@<TRIPOS>SET
ATOM$ORANGE STATIC     ATOMS   COLORGROUP SYSTEM 
42 5 5 6 6 8 8 10 10 12 12 14 14 16 16 17 17 20 \
20 22 22 28 28 29 29 31 31 33 33 35 35 37 37 38 38 39 \
39 42 42 43 43 44 44 

