#    Name: 6nin_6_SMA
#    Modification time : Fri May 22 19:36:51 2020

@<TRIPOS>MOLECULE
6nin_6_SMA
   79    80     1     0     0
SMALL
NO_CHARGES


@<TRIPOS>ATOM
      1 C2        -24.6960  -89.0320   27.1910 C.2       1 SMA1003     0.0000 
      2 C3        -24.5440  -90.0290   26.2130 C.2       1 SMA1003     0.0000 
      3 C3M       -25.3470  -90.0790   24.9270 C.3       1 SMA1003     0.0000 
      4 C4        -23.5730  -91.0570   26.4240 C.2       1 SMA1003     0.0000 
      5 C4A       -22.8150  -91.0880   27.6260 C.ar      1 SMA1003     0.0000 
      6 C5        -21.8790  -92.0900   27.9180 C.ar      1 SMA1003     0.0000 
      7 C5M       -22.1670  -94.3800   27.5610 C.3       1 SMA1003     0.0000 
      8 C6        -21.1760  -92.0580   29.1030 C.ar      1 SMA1003     0.0000 
      9 C7        -21.3960  -91.0450   30.0110 C.ar      1 SMA1003     0.0000 
     10 C7M       -20.4730  -92.2300   31.8690 C.3       1 SMA1003     0.0000 
     11 C8        -22.3060  -90.0540   29.7360 C.ar      1 SMA1003     0.0000 
     12 C8A       -23.0150  -90.0780   28.5580 C.ar      1 SMA1003     0.0000 
     13 C9        -25.7000  -87.9100   27.1190 C.3       1 SMA1003     0.0000 
     14 C10       -25.1620  -86.5480   26.6040 C.3       1 SMA1003     0.0000 
     15 C11       -26.0030  -85.3560   27.1390 C.3       1 SMA1003     0.0000 
     16 C12       -25.8280  -84.0760   26.2720 C.3       1 SMA1003     0.0000 
     17 C13       -24.3450  -83.5900   26.1140 C.3       1 SMA1003     0.0000 
     18 C14       -24.3580  -82.2200   25.3690 C.3       1 SMA1003     0.0000 
     19 C15       -22.9920  -81.8980   24.8070 C.2       1 SMA1003     0.0000 
     20 C16       -22.1160  -81.0590   25.4830 C.2       1 SMA1003     0.0000 
     21 C17       -20.7980  -80.7670   24.9350 C.2       1 SMA1003     0.0000 
     22 C18       -19.9210  -79.9320   25.6230 C.2       1 SMA1003     0.0000 
     23 C19       -18.5550  -79.5770   25.1290 C.2       1 SMA1003     0.0000 
     24 C20       -17.8090  -78.7150   25.9310 C.2       1 SMA1003     0.0000 
     25 C21       -16.4050  -78.2320   25.6600 C.3       1 SMA1003     0.0000 
     26 C22       -27.5170  -85.6420   27.2230 C.3       1 SMA1003     0.0000 
     27 C23       -27.5350  -83.5680   24.6220 C.3       1 SMA1003     0.0000 
     28 C24       -23.6430  -83.4560   27.4870 C.3       1 SMA1003     0.0000 
     29 C25       -25.4080  -80.0960   25.6940 C.3       1 SMA1003     0.0000 
     30 C26       -18.0480  -80.1380   23.8060 C.3       1 SMA1003     0.0000 
     31 O1        -23.9150  -89.0820   28.3230 O.3       1 SMA1003     0.0000 
     32 O4        -23.4280  -91.9100   25.5630 O.2       1 SMA1003     0.0000 
     33 O5        -21.6320  -93.1220   27.0480 O.3       1 SMA1003     0.0000 
     34 O7        -20.7150  -90.9740   31.2030 O.3       1 SMA1003     0.0000 
     35 O8        -22.5120  -89.0550   30.6530 O.3       1 SMA1003     0.0000 
     36 O12       -26.3690  -84.3490   24.9490 O.3       1 SMA1003     0.0000 
     37 O14       -24.7820  -81.2250   26.3340 O.3       1 SMA1003     0.0000 
     38 H1        -24.6990  -90.3540   24.1040 H         1 SMA1003     0.0000 
     39 H2        -25.7820  -89.1070   24.7320 H         1 SMA1003     0.0000 
     40 H3        -26.1380  -90.8130   25.0210 H         1 SMA1003     0.0000 
     41 H4        -21.4460  -94.8460   28.2040 H         1 SMA1003     0.0000 
     42 H5        -22.3900  -95.0400   26.7450 H         1 SMA1003     0.0000 
     43 H6        -23.0650  -94.1930   28.1170 H         1 SMA1003     0.0000 
     44 H7        -20.4670  -92.8280   29.3100 H         1 SMA1003     0.0000 
     45 H8        -20.2470  -92.0740   32.9160 H         1 SMA1003     0.0000 
     46 H9        -19.6380  -92.7500   31.4200 H         1 SMA1003     0.0000 
     47 H10       -21.3420  -92.8730   31.8070 H         1 SMA1003     0.0000 
     48 H11       -26.0980  -87.7630   28.1080 H         1 SMA1003     0.0000 
     49 H12       -26.4980  -88.2250   26.4690 H         1 SMA1003     0.0000 
     50 H13       -25.1810  -86.5690   25.5220 H         1 SMA1003     0.0000 
     51 H14       -24.1310  -86.4550   26.9210 H         1 SMA1003     0.0000 
     52 H15       -25.6120  -85.1630   28.1350 H         1 SMA1003     0.0000 
     53 H16       -26.3530  -83.2750   26.7840 H         1 SMA1003     0.0000 
     54 H17       -23.7700  -84.2910   25.5270 H         1 SMA1003     0.0000 
     55 H18       -25.0770  -82.2730   24.5610 H         1 SMA1003     0.0000 
     56 H19       -22.7090  -82.3360   23.8720 H         1 SMA1003     0.0000 
     57 H21       -22.4050  -80.6180   26.4190 H         1 SMA1003     0.0000 
     58 H22       -20.5130  -81.2030   23.9950 H         1 SMA1003     0.0000 
     59 H23       -20.2500  -79.5230   26.5640 H         1 SMA1003     0.0000 
     60 H25       -18.0250  -78.7090   26.9860 H         1 SMA1003     0.0000 
     61 H26       -16.4230  -77.4050   24.9540 H         1 SMA1003     0.0000 
     62 H27       -15.8070  -79.0370   25.2400 H         1 SMA1003     0.0000 
     63 H28       -15.9400  -77.8940   26.5830 H         1 SMA1003     0.0000 
     64 H29       -28.0570  -84.7110   27.3260 H         1 SMA1003     0.0000 
     65 H30       -27.7210  -86.2700   28.0780 H         1 SMA1003     0.0000 
     66 H31       -27.8420  -86.1460   26.3230 H         1 SMA1003     0.0000 
     67 H32       -27.7440  -83.7480   23.5770 H         1 SMA1003     0.0000 
     68 H33       -27.2800  -82.5370   24.8150 H         1 SMA1003     0.0000 
     69 H34       -28.3300  -83.9190   25.2630 H         1 SMA1003     0.0000 
     70 H35       -22.6780  -82.9730   27.3660 H         1 SMA1003     0.0000 
     71 H36       -23.4920  -84.4370   27.9260 H         1 SMA1003     0.0000 
     72 H37       -24.2520  -82.8600   28.1600 H         1 SMA1003     0.0000 
     73 H38       -25.6520  -79.3210   26.4080 H         1 SMA1003     0.0000 
     74 H39       -26.3270  -80.3810   25.1990 H         1 SMA1003     0.0000 
     75 H40       -24.7610  -79.6550   24.9470 H         1 SMA1003     0.0000 
     76 H41       -17.1340  -79.6330   23.5120 H         1 SMA1003     0.0000 
     77 H42       -18.7920  -79.9960   23.0300 H         1 SMA1003     0.0000 
     78 H43       -17.8430  -81.2000   23.9040 H         1 SMA1003     0.0000 
     79 H44       -22.6280  -89.4490   31.5280 H         1 SMA1003     0.0000 
@<TRIPOS>BOND
     1    1    2 2    
     2    1   13 1    
     3    1   31 1    
     4    2    3 1    
     5    2    4 1    
     6    3   38 1    
     7    3   39 1    
     8    3   40 1    
     9    4    5 1    
    10    4   32 2    
    11    5    6 ar   
    12    5   12 ar   
    13    6    8 ar   
    14    6   33 1    
    15    7   33 1    
    16    7   41 1    
    17    7   42 1    
    18    7   43 1    
    19    8    9 ar   
    20    8   44 1    
    21    9   11 ar   
    22    9   34 1    
    23   10   34 1    
    24   10   45 1    
    25   10   46 1    
    26   10   47 1    
    27   11   12 ar   
    28   11   35 1    
    29   12   31 1    
    30   13   14 1    
    31   13   48 1    
    32   13   49 1    
    33   14   15 1    
    34   14   50 1    
    35   14   51 1    
    36   15   16 1    
    37   15   26 1    
    38   15   52 1    
    39   16   17 1    
    40   16   36 1    
    41   16   53 1    
    42   17   18 1    
    43   17   28 1    
    44   17   54 1    
    45   18   19 1    
    46   18   37 1    
    47   18   55 1    
    48   19   20 2    
    49   19   56 1    
    50   20   21 1    
    51   20   57 1    
    52   21   22 2    
    53   21   58 1    
    54   22   23 1    
    55   22   59 1    
    56   23   24 2    
    57   23   30 1    
    58   24   25 1    
    59   24   60 1    
    60   25   61 1    
    61   25   62 1    
    62   25   63 1    
    63   26   66 1    
    64   26   64 1    
    65   26   65 1    
    66   27   36 1    
    67   27   67 1    
    68   27   68 1    
    69   27   69 1    
    70   28   70 1    
    71   28   71 1    
    72   28   72 1    
    73   29   37 1    
    74   29   73 1    
    75   29   74 1    
    76   29   75 1    
    77   30   76 1    
    78   30   77 1    
    79   30   78 1    
    80   35   79 1    
@<TRIPOS>SUBSTRUCTURE
     1 SMA1003     1 GROUP   
@<TRIPOS>SET

