#    Name: 6nin_4_SMA
#    Modification time : Fri May 22 19:36:33 2020

@<TRIPOS>MOLECULE
6nin_4_SMA
   79    80     1     0     0
SMALL
NO_CHARGES


@<TRIPOS>ATOM
      1 C2         24.2510  -19.2280   81.0290 C.2       1 SMA1003     0.0000 
      2 C3         24.6710  -20.3120   80.2380 C.2       1 SMA1003     0.0000 
      3 C3M        24.0830  -20.6540   78.8850 C.3       1 SMA1003     0.0000 
      4 C4         25.7220  -21.1510   80.7170 C.2       1 SMA1003     0.0000 
      5 C4A        26.2940  -20.9050   82.0030 C.ar      1 SMA1003     0.0000 
      6 C5         27.2990  -21.7030   82.5680 C.ar      1 SMA1003     0.0000 
      7 C5M        27.3790  -24.0440   82.5140 C.3       1 SMA1003     0.0000 
      8 C6         27.8120  -21.4030   83.8140 C.ar      1 SMA1003     0.0000 
      9 C7         27.3360  -20.3190   84.5290 C.ar      1 SMA1003     0.0000 
     10 C7M        28.1420  -21.1040   86.6460 C.3       1 SMA1003     0.0000 
     11 C8         26.3510  -19.5230   83.9840 C.ar      1 SMA1003     0.0000 
     12 C8A        25.8350  -19.8180   82.7410 C.ar      1 SMA1003     0.0000 
     13 C9         23.1310  -18.2790   80.6800 C.3       1 SMA1003     0.0000 
     14 C10        23.5550  -16.9300   80.0590 C.3       1 SMA1003     0.0000 
     15 C11        22.5120  -15.8250   80.3670 C.3       1 SMA1003     0.0000 
     16 C12        22.6950  -14.6140   79.4160 C.3       1 SMA1003     0.0000 
     17 C13        24.1310  -13.9790   79.4610 C.3       1 SMA1003     0.0000 
     18 C14        24.1680  -12.7120   78.5660 C.3       1 SMA1003     0.0000 
     19 C15        25.5940  -12.4210   78.1690 C.2       1 SMA1003     0.0000 
     20 C16        26.2760  -11.3210   78.6790 C.2       1 SMA1003     0.0000 
     21 C17        27.6550  -11.0660   78.2850 C.2       1 SMA1003     0.0000 
     22 C18        28.3320   -9.9590   78.7990 C.2       1 SMA1003     0.0000 
     23 C19        29.7400   -9.6110   78.4470 C.2       1 SMA1003     0.0000 
     24 C20        30.2670   -8.4560   79.0360 C.2       1 SMA1003     0.0000 
     25 C21        31.6670   -7.9130   78.8550 C.3       1 SMA1003     0.0000 
     26 C22        21.0360  -16.2690   80.2780 C.3       1 SMA1003     0.0000 
     27 C23        21.2370  -14.4520   77.5070 C.3       1 SMA1003     0.0000 
     28 C24        24.5310  -13.5830   80.9010 C.3       1 SMA1003     0.0000 
     29 C25        23.0530  -10.5980   78.5330 C.3       1 SMA1003     0.0000 
     30 C26        30.5120  -10.4980   77.4780 C.3       1 SMA1003     0.0000 
     31 O1         24.8570  -19.0090   82.2460 O.3       1 SMA1003     0.0000 
     32 O4         26.0880  -22.0800   80.0080 O.2       1 SMA1003     0.0000 
     33 O5         27.8030  -22.7900   81.9030 O.3       1 SMA1003     0.0000 
     34 O7         27.8320  -19.9940   85.7760 O.3       1 SMA1003     0.0000 
     35 O8         25.8760  -18.4480   84.6900 O.3       1 SMA1003     0.0000 
     36 O12        22.4060  -15.0760   78.0680 O.3       1 SMA1003     0.0000 
     37 O14        23.6010  -11.6420   79.3600 O.3       1 SMA1003     0.0000 
     38 H1         24.8810  -20.8770   78.1880 H         1 SMA1003     0.0000 
     39 H2         23.5080  -19.8150   78.5160 H         1 SMA1003     0.0000 
     40 H3         23.4370  -21.5180   78.9780 H         1 SMA1003     0.0000 
     41 H4         26.3760  -23.9480   82.8840 H         1 SMA1003     0.0000 
     42 H5         28.0320  -24.2910   83.3290 H         1 SMA1003     0.0000 
     43 H6         27.4110  -24.8320   81.7860 H         1 SMA1003     0.0000 
     44 H7         28.5770  -22.0270   84.2200 H         1 SMA1003     0.0000 
     45 H8         28.2040  -20.7800   87.6770 H         1 SMA1003     0.0000 
     46 H9         29.0900  -21.5510   86.3770 H         1 SMA1003     0.0000 
     47 H10        27.3800  -21.8690   86.5800 H         1 SMA1003     0.0000 
     48 H11        22.5800  -18.0760   81.5820 H         1 SMA1003     0.0000 
     49 H12        22.4820  -18.7810   79.9840 H         1 SMA1003     0.0000 
     50 H13        23.6610  -17.0680   78.9900 H         1 SMA1003     0.0000 
     51 H14        24.5250  -16.6620   80.4610 H         1 SMA1003     0.0000 
     52 H15        22.7080  -15.5260   81.3930 H         1 SMA1003     0.0000 
     53 H16        22.0190  -13.8250   79.7350 H         1 SMA1003     0.0000 
     54 H17        24.8490  -14.6910   79.0810 H         1 SMA1003     0.0000 
     55 H18        23.5610  -12.8600   77.6810 H         1 SMA1003     0.0000 
     56 H19        26.0800  -13.0890   77.4900 H         1 SMA1003     0.0000 
     57 H21        25.7900  -10.6530   79.3650 H         1 SMA1003     0.0000 
     58 H22        28.1410  -11.7350   77.5990 H         1 SMA1003     0.0000 
     59 H23        27.8030   -9.3230   79.4890 H         1 SMA1003     0.0000 
     60 H25        29.8530   -8.1520   79.9830 H         1 SMA1003     0.0000 
     61 H26        31.9550   -7.3230   79.7220 H         1 SMA1003     0.0000 
     62 H27        31.7130   -7.2810   77.9720 H         1 SMA1003     0.0000 
     63 H28        32.3740   -8.7300   78.7380 H         1 SMA1003     0.0000 
     64 H29        20.3970  -15.3980   80.2350 H         1 SMA1003     0.0000 
     65 H30        20.7810  -16.8560   81.1490 H         1 SMA1003     0.0000 
     66 H31        20.8890  -16.8650   79.3890 H         1 SMA1003     0.0000 
     67 H32        21.1850  -14.7690   76.4760 H         1 SMA1003     0.0000 
     68 H33        21.3820  -13.3860   77.6010 H         1 SMA1003     0.0000 
     69 H34        20.3940  -14.8020   78.0850 H         1 SMA1003     0.0000 
     70 H35        25.3390  -12.8580   80.8770 H         1 SMA1003     0.0000 
     71 H36        24.8620  -14.4590   81.4500 H         1 SMA1003     0.0000 
     72 H37        23.6820  -13.1450   81.4160 H         1 SMA1003     0.0000 
     73 H38        22.6980   -9.7670   79.1270 H         1 SMA1003     0.0000 
     74 H39        22.2180  -10.9550   77.9450 H         1 SMA1003     0.0000 
     75 H40        23.7910  -10.2100   77.8430 H         1 SMA1003     0.0000 
     76 H41        31.4560  -10.0330   77.2150 H         1 SMA1003     0.0000 
     77 H42        29.9350  -10.6530   76.5720 H         1 SMA1003     0.0000 
     78 H43        30.7130  -11.4620   77.9330 H         1 SMA1003     0.0000 
     79 H44        25.5260  -18.7560   85.5370 H         1 SMA1003     0.0000 
@<TRIPOS>BOND
     1    1    2 2    
     2    1   13 1    
     3    1   31 1    
     4    2    3 1    
     5    2    4 1    
     6    3   38 1    
     7    3   39 1    
     8    3   40 1    
     9    4    5 1    
    10    4   32 2    
    11    5    6 ar   
    12    5   12 ar   
    13    6    8 ar   
    14    6   33 1    
    15    7   33 1    
    16    7   41 1    
    17    7   42 1    
    18    7   43 1    
    19    8    9 ar   
    20    8   44 1    
    21    9   11 ar   
    22    9   34 1    
    23   10   34 1    
    24   10   45 1    
    25   10   46 1    
    26   10   47 1    
    27   11   12 ar   
    28   11   35 1    
    29   12   31 1    
    30   13   14 1    
    31   13   48 1    
    32   13   49 1    
    33   14   15 1    
    34   14   50 1    
    35   14   51 1    
    36   15   16 1    
    37   15   26 1    
    38   15   52 1    
    39   16   17 1    
    40   16   36 1    
    41   16   53 1    
    42   17   18 1    
    43   17   28 1    
    44   17   54 1    
    45   18   19 1    
    46   18   37 1    
    47   18   55 1    
    48   19   20 2    
    49   19   56 1    
    50   20   21 1    
    51   20   57 1    
    52   21   22 2    
    53   21   58 1    
    54   22   23 1    
    55   22   59 1    
    56   23   24 2    
    57   23   30 1    
    58   24   25 1    
    59   24   60 1    
    60   25   61 1    
    61   25   62 1    
    62   25   63 1    
    63   26   66 1    
    64   26   64 1    
    65   26   65 1    
    66   27   36 1    
    67   27   67 1    
    68   27   68 1    
    69   27   69 1    
    70   28   70 1    
    71   28   71 1    
    72   28   72 1    
    73   29   37 1    
    74   29   73 1    
    75   29   74 1    
    76   29   75 1    
    77   30   76 1    
    78   30   77 1    
    79   30   78 1    
    80   35   79 1    
@<TRIPOS>SUBSTRUCTURE
     1 SMA1003     1 GROUP   
@<TRIPOS>SET

