#    Name: 6nin_5_SMA
#    Modification time : Fri May 22 19:36:41 2020

@<TRIPOS>MOLECULE
6nin_5_SMA
   79    80     1     0     0
SMALL
NO_CHARGES


@<TRIPOS>ATOM
      1 C2          4.0130  -54.3070   45.8050 C.2       1 SMA1003     0.0000 
      2 C3          4.8330  -54.2110   46.9430 C.2       1 SMA1003     0.0000 
      3 C3M         4.6310  -53.2150   48.0650 C.3       1 SMA1003     0.0000 
      4 C4          5.9300  -55.1100   47.0940 C.2       1 SMA1003     0.0000 
      5 C4A         6.2180  -56.0580   46.0720 C.ar      1 SMA1003     0.0000 
      6 C5          7.3040  -56.9430   46.1270 C.ar      1 SMA1003     0.0000 
      7 C5M         9.4850  -56.4010   46.8280 C.3       1 SMA1003     0.0000 
      8 C6          7.5200  -57.8350   45.0990 C.ar      1 SMA1003     0.0000 
      9 C7          6.6760  -57.8690   44.0070 C.ar      1 SMA1003     0.0000 
     10 C7M         8.2410  -59.0090   42.5900 C.3       1 SMA1003     0.0000 
     11 C8          5.6000  -57.0060   43.9430 C.ar      1 SMA1003     0.0000 
     12 C8A         5.3800  -56.1060   44.9620 C.ar      1 SMA1003     0.0000 
     13 C9          2.8360  -53.4100   45.5110 C.3       1 SMA1003     0.0000 
     14 C10         1.4650  -54.0120   45.9170 C.3       1 SMA1003     0.0000 
     15 C11         0.3090  -53.4400   45.0570 C.3       1 SMA1003     0.0000 
     16 C12        -1.0800  -53.7040   45.7080 C.3       1 SMA1003     0.0000 
     17 C13        -1.3530  -55.2150   46.0500 C.3       1 SMA1003     0.0000 
     18 C14        -2.8050  -55.3530   46.5980 C.3       1 SMA1003     0.0000 
     19 C15        -2.9480  -56.6810   47.3110 C.2       1 SMA1003     0.0000 
     20 C16        -3.7200  -57.7090   46.7780 C.2       1 SMA1003     0.0000 
     21 C17        -3.8420  -58.9890   47.4670 C.2       1 SMA1003     0.0000 
     22 C18        -4.6210  -59.9970   46.9050 C.2       1 SMA1003     0.0000 
     23 C19        -4.8200  -61.3420   47.5260 C.2       1 SMA1003     0.0000 
     24 C20        -5.6500  -62.2220   46.8290 C.2       1 SMA1003     0.0000 
     25 C21        -5.9990  -63.6430   47.2090 C.3       1 SMA1003     0.0000 
     26 C22         0.4290  -51.9280   44.7710 C.3       1 SMA1003     0.0000 
     27 C23        -2.1920  -51.9030   46.8680 C.3       1 SMA1003     0.0000 
     28 C24        -1.1690  -56.1170   44.8050 C.3       1 SMA1003     0.0000 
     29 C25        -5.0080  -54.8020   45.8110 C.3       1 SMA1003     0.0000 
     30 C26        -4.1450  -61.6830   48.8490 C.3       1 SMA1003     0.0000 
     31 O1          4.3080  -55.2660   44.8600 O.3       1 SMA1003     0.0000 
     32 O4          6.6090  -55.0230   48.1070 O.2       1 SMA1003     0.0000 
     33 O5          8.1760  -56.9490   47.1870 O.3       1 SMA1003     0.0000 
     34 O7          6.8720  -58.7600   42.9730 O.3       1 SMA1003     0.0000 
     35 O8          4.7570  -57.0280   42.8590 O.3       1 SMA1003     0.0000 
     36 O12        -1.1690  -52.9160   46.9270 O.3       1 SMA1003     0.0000 
     37 O14        -3.6830  -55.2350   45.4490 O.3       1 SMA1003     0.0000 
     38 H1          4.5480  -53.7410   49.0080 H         1 SMA1003     0.0000 
     39 H2          3.7250  -52.6490   47.8890 H         1 SMA1003     0.0000 
     40 H3          5.4750  -52.5370   48.1050 H         1 SMA1003     0.0000 
     41 H4          9.3610  -55.5660   46.1670 H         1 SMA1003     0.0000 
     42 H5         10.0720  -57.1540   46.3370 H         1 SMA1003     0.0000 
     43 H6          9.9990  -56.0770   47.7120 H         1 SMA1003     0.0000 
     44 H7          8.3500  -58.5020   45.1650 H         1 SMA1003     0.0000 
     45 H8          8.2920  -59.4410   41.5990 H         1 SMA1003     0.0000 
     46 H9          8.7150  -59.6950   43.2790 H         1 SMA1003     0.0000 
     47 H10         8.8130  -58.0910   42.5850 H         1 SMA1003     0.0000 
     48 H11         2.8230  -53.2060   44.4540 H         1 SMA1003     0.0000 
     49 H12         2.9770  -52.4840   46.0400 H         1 SMA1003     0.0000 
     50 H13         1.3020  -53.7930   46.9650 H         1 SMA1003     0.0000 
     51 H14         1.5260  -55.0870   45.8040 H         1 SMA1003     0.0000 
     52 H15         0.3520  -53.9770   44.1130 H         1 SMA1003     0.0000 
     53 H16        -1.8350  -53.4190   44.9810 H         1 SMA1003     0.0000 
     54 H17        -0.6710  -55.5560   46.8150 H         1 SMA1003     0.0000 
     55 H18        -3.0280  -54.5500   47.2890 H         1 SMA1003     0.0000 
     56 H19        -2.4260  -56.8220   48.2340 H         1 SMA1003     0.0000 
     57 H21        -4.2350  -57.5660   45.8470 H         1 SMA1003     0.0000 
     58 H22        -3.3310  -59.1420   48.3990 H         1 SMA1003     0.0000 
     59 H23        -5.1080  -59.7900   45.9670 H         1 SMA1003     0.0000 
     60 H25        -5.7210  -62.0850   45.7630 H         1 SMA1003     0.0000 
     61 H26        -6.1010  -64.2550   46.3160 H         1 SMA1003     0.0000 
     62 H27        -6.9380  -63.6640   47.7570 H         1 SMA1003     0.0000 
     63 H28        -5.2180  -64.0660   47.8360 H         1 SMA1003     0.0000 
     64 H29        -0.5130  -51.5530   44.3980 H         1 SMA1003     0.0000 
     65 H30         1.2000  -51.7590   44.0320 H         1 SMA1003     0.0000 
     66 H31         0.6860  -51.4060   45.6820 H         1 SMA1003     0.0000 
     67 H32        -2.2490  -51.4650   47.8540 H         1 SMA1003     0.0000 
     68 H33        -3.1070  -52.4050   46.5910 H         1 SMA1003     0.0000 
     69 H34        -1.8750  -51.1890   46.1220 H         1 SMA1003     0.0000 
     70 H35        -1.5700  -57.1080   45.0000 H         1 SMA1003     0.0000 
     71 H36        -0.1140  -56.2070   44.5630 H         1 SMA1003     0.0000 
     72 H37        -1.6900  -55.6890   43.9540 H         1 SMA1003     0.0000 
     73 H38        -5.6700  -54.7930   44.9550 H         1 SMA1003     0.0000 
     74 H39        -5.0000  -53.8020   46.2230 H         1 SMA1003     0.0000 
     75 H40        -5.4490  -55.4540   46.5540 H         1 SMA1003     0.0000 
     76 H41        -4.5680  -62.5930   49.2620 H         1 SMA1003     0.0000 
     77 H42        -4.2890  -60.8770   49.5610 H         1 SMA1003     0.0000 
     78 H43        -3.0800  -61.8290   48.7000 H         1 SMA1003     0.0000 
     79 H44         5.2710  -56.8660   42.0560 H         1 SMA1003     0.0000 
@<TRIPOS>BOND
     1    1    2 2    
     2    1   13 1    
     3    1   31 1    
     4    2    3 1    
     5    2    4 1    
     6    3   38 1    
     7    3   39 1    
     8    3   40 1    
     9    4    5 1    
    10    4   32 2    
    11    5    6 ar   
    12    5   12 ar   
    13    6    8 ar   
    14    6   33 1    
    15    7   33 1    
    16    7   41 1    
    17    7   42 1    
    18    7   43 1    
    19    8    9 ar   
    20    8   44 1    
    21    9   11 ar   
    22    9   34 1    
    23   10   34 1    
    24   10   45 1    
    25   10   46 1    
    26   10   47 1    
    27   11   12 ar   
    28   11   35 1    
    29   12   31 1    
    30   13   14 1    
    31   13   48 1    
    32   13   49 1    
    33   14   15 1    
    34   14   50 1    
    35   14   51 1    
    36   15   16 1    
    37   15   26 1    
    38   15   52 1    
    39   16   17 1    
    40   16   36 1    
    41   16   53 1    
    42   17   18 1    
    43   17   28 1    
    44   17   54 1    
    45   18   19 1    
    46   18   37 1    
    47   18   55 1    
    48   19   20 2    
    49   19   56 1    
    50   20   21 1    
    51   20   57 1    
    52   21   22 2    
    53   21   58 1    
    54   22   23 1    
    55   22   59 1    
    56   23   24 2    
    57   23   30 1    
    58   24   25 1    
    59   24   60 1    
    60   25   61 1    
    61   25   62 1    
    62   25   63 1    
    63   26   66 1    
    64   26   64 1    
    65   26   65 1    
    66   27   36 1    
    67   27   67 1    
    68   27   68 1    
    69   27   69 1    
    70   28   70 1    
    71   28   71 1    
    72   28   72 1    
    73   29   37 1    
    74   29   73 1    
    75   29   74 1    
    76   29   75 1    
    77   30   76 1    
    78   30   77 1    
    79   30   78 1    
    80   35   79 1    
@<TRIPOS>SUBSTRUCTURE
     1 SMA1003     1 GROUP   
@<TRIPOS>SET

