#    Name: 6nin_3_SMA
#    Modification time : Fri May 22 19:36:24 2020

@<TRIPOS>MOLECULE
6nin_3_SMA
   79    80     1     0     0
SMALL
NO_CHARGES


@<TRIPOS>ATOM
      1 C2         46.2820   21.3490   97.1970 C.2       1 SMA1003     0.0000 
      2 C3         46.9720   21.7150   98.3670 C.2       1 SMA1003     0.0000 
      3 C3M        46.4890   22.7880   99.3260 C.3       1 SMA1003     0.0000 
      4 C4         48.1910   21.0360   98.6860 C.2       1 SMA1003     0.0000 
      5 C4A        48.7060   20.0460   97.8040 C.ar      1 SMA1003     0.0000 
      6 C5         49.9120   19.3770   98.0350 C.ar      1 SMA1003     0.0000 
      7 C5M        51.8950   20.3610   98.7880 C.3       1 SMA1003     0.0000 
      8 C6         50.3540   18.4220   97.1460 C.ar      1 SMA1003     0.0000 
      9 C7         49.6150   18.1240   96.0190 C.ar      1 SMA1003     0.0000 
     10 C7M        51.4410   17.1390   94.8410 C.3       1 SMA1003     0.0000 
     11 C8         48.4240   18.7710   95.7830 C.ar      1 SMA1003     0.0000 
     12 C8A        47.9800   19.7280   96.6640 C.ar      1 SMA1003     0.0000 
     13 C9         45.0090   22.0030   96.7180 C.3       1 SMA1003     0.0000 
     14 C10        43.6960   21.2540   97.0750 C.3       1 SMA1003     0.0000 
     15 C11        42.5620   21.5840   96.0680 C.3       1 SMA1003     0.0000 
     16 C12        41.1440   21.2160   96.6050 C.3       1 SMA1003     0.0000 
     17 C13        40.9850   19.7100   97.0150 C.3       1 SMA1003     0.0000 
     18 C14        39.5220   19.4550   97.4850 C.3       1 SMA1003     0.0000 
     19 C15        39.4690   18.2160   98.3430 C.2       1 SMA1003     0.0000 
     20 C16        38.9440   17.0230   97.8690 C.2       1 SMA1003     0.0000 
     21 C17        38.9270   15.8500   98.7300 C.2       1 SMA1003     0.0000 
     22 C18        38.4050   14.6550   98.2460 C.2       1 SMA1003     0.0000 
     23 C19        38.3380   13.3960   99.0440 C.2       1 SMA1003     0.0000 
     24 C20        37.7660   12.2980   98.4030 C.2       1 SMA1003     0.0000 
     25 C21        37.6020   10.9060   98.9700 C.3       1 SMA1003     0.0000 
     26 C22        42.5390   23.0680   95.6400 C.3       1 SMA1003     0.0000 
     27 C23        39.7290   22.9420   97.5350 C.3       1 SMA1003     0.0000 
     28 C24        41.3210   18.7720   95.8320 C.3       1 SMA1003     0.0000 
     29 C25        37.3500   19.6350   96.5150 C.3       1 SMA1003     0.0000 
     30 C26        38.8650   13.3660  100.4730 C.3       1 SMA1003     0.0000 
     31 O1         46.8020   20.3560   96.3940 O.3       1 SMA1003     0.0000 
     32 O4         48.7830   21.3370   99.7120 O.2       1 SMA1003     0.0000 
     33 O5         50.6750   19.6450   99.1430 O.3       1 SMA1003     0.0000 
     34 O7         50.0240   17.1770   95.1100 O.3       1 SMA1003     0.0000 
     35 O8         47.6920   18.4760   94.6610 O.3       1 SMA1003     0.0000 
     36 O12        40.8370   22.0490   97.7600 O.3       1 SMA1003     0.0000 
     37 O14        38.7340   19.3150   96.2800 O.3       1 SMA1003     0.0000 
     38 H1         46.6600   22.4680  100.3460 H         1 SMA1003     0.0000 
     39 H2         45.4300   22.9590   99.1760 H         1 SMA1003     0.0000 
     40 H3         47.0300   23.7090   99.1430 H         1 SMA1003     0.0000 
     41 H4         51.7210   20.9670   97.9190 H         1 SMA1003     0.0000 
     42 H5         52.6800   19.6610   98.5770 H         1 SMA1003     0.0000 
     43 H6         52.1960   20.9930   99.6020 H         1 SMA1003     0.0000 
     44 H7         51.2760   17.9220   97.3410 H         1 SMA1003     0.0000 
     45 H8         51.6440   16.6270   93.9100 H         1 SMA1003     0.0000 
     46 H9         51.9700   16.6210   95.6300 H         1 SMA1003     0.0000 
     47 H10        51.8460   18.1400   94.7670 H         1 SMA1003     0.0000 
     48 H11        45.0660   22.0930   95.6470 H         1 SMA1003     0.0000 
     49 H12        44.9630   22.9890   97.1460 H         1 SMA1003     0.0000 
     50 H13        43.4090   21.5410   98.0790 H         1 SMA1003     0.0000 
     51 H14        43.9060   20.1910   97.0760 H         1 SMA1003     0.0000 
     52 H15        42.7550   20.9550   95.2030 H         1 SMA1003     0.0000 
     53 H16        40.4510   21.3930   95.7880 H         1 SMA1003     0.0000 
     54 H17        41.6460   19.4780   97.8370 H         1 SMA1003     0.0000 
     55 H18        39.1610   20.3040   98.0530 H         1 SMA1003     0.0000 
     56 H19        39.8640   18.2710   99.3360 H         1 SMA1003     0.0000 
     57 H21        38.5490   16.9590   96.8720 H         1 SMA1003     0.0000 
     58 H22        39.3180   15.9170   99.7280 H         1 SMA1003     0.0000 
     59 H23        38.0290   14.6440   97.2370 H         1 SMA1003     0.0000 
     60 H25        37.8240   12.2710   97.3280 H         1 SMA1003     0.0000 
     61 H26        37.6380   10.1700   98.1710 H         1 SMA1003     0.0000 
     62 H27        36.6470   10.8210   99.4820 H         1 SMA1003     0.0000 
     63 H28        38.3980   10.6940   99.6780 H         1 SMA1003     0.0000 
     64 H29        41.5820   23.3030   95.1960 H         1 SMA1003     0.0000 
     65 H30        43.3220   23.2490   94.9180 H         1 SMA1003     0.0000 
     66 H31        42.6970   23.6970   96.5040 H         1 SMA1003     0.0000 
     67 H32        39.5150   23.4110   98.4840 H         1 SMA1003     0.0000 
     68 H33        38.9080   22.3330   97.1860 H         1 SMA1003     0.0000 
     69 H34        40.0540   23.6540   96.7910 H         1 SMA1003     0.0000 
     70 H35        40.9390   17.7750   96.0280 H         1 SMA1003     0.0000 
     71 H36        42.3970   18.7160   95.6960 H         1 SMA1003     0.0000 
     72 H37        40.8700   19.1480   94.9190 H         1 SMA1003     0.0000 
     73 H38        36.7440   19.4380   95.6410 H         1 SMA1003     0.0000 
     74 H39        37.2230   20.6790   96.7680 H         1 SMA1003     0.0000 
     75 H40        36.9410   19.0530   97.3300 H         1 SMA1003     0.0000 
     76 H41        38.5700   12.4420  100.9610 H         1 SMA1003     0.0000 
     77 H42        38.4640   14.2020  101.0370 H         1 SMA1003     0.0000 
     78 H43        39.9480   13.4310  100.4740 H         1 SMA1003     0.0000 
     79 H44        48.2960   18.3200   93.9220 H         1 SMA1003     0.0000 
@<TRIPOS>BOND
     1    1    2 2    
     2    1   13 1    
     3    1   31 1    
     4    2    3 1    
     5    2    4 1    
     6    3   38 1    
     7    3   39 1    
     8    3   40 1    
     9    4    5 1    
    10    4   32 2    
    11    5    6 ar   
    12    5   12 ar   
    13    6    8 ar   
    14    6   33 1    
    15    7   33 1    
    16    7   41 1    
    17    7   42 1    
    18    7   43 1    
    19    8    9 ar   
    20    8   44 1    
    21    9   11 ar   
    22    9   34 1    
    23   10   34 1    
    24   10   45 1    
    25   10   46 1    
    26   10   47 1    
    27   11   12 ar   
    28   11   35 1    
    29   12   31 1    
    30   13   14 1    
    31   13   48 1    
    32   13   49 1    
    33   14   15 1    
    34   14   50 1    
    35   14   51 1    
    36   15   16 1    
    37   15   26 1    
    38   15   52 1    
    39   16   17 1    
    40   16   36 1    
    41   16   53 1    
    42   17   18 1    
    43   17   28 1    
    44   17   54 1    
    45   18   19 1    
    46   18   37 1    
    47   18   55 1    
    48   19   20 2    
    49   19   56 1    
    50   20   21 1    
    51   20   57 1    
    52   21   22 2    
    53   21   58 1    
    54   22   23 1    
    55   22   59 1    
    56   23   24 2    
    57   23   30 1    
    58   24   25 1    
    59   24   60 1    
    60   25   61 1    
    61   25   62 1    
    62   25   63 1    
    63   26   66 1    
    64   26   64 1    
    65   26   65 1    
    66   27   36 1    
    67   27   67 1    
    68   27   68 1    
    69   27   69 1    
    70   28   70 1    
    71   28   71 1    
    72   28   72 1    
    73   29   37 1    
    74   29   73 1    
    75   29   74 1    
    76   29   75 1    
    77   30   76 1    
    78   30   77 1    
    79   30   78 1    
    80   35   79 1    
@<TRIPOS>SUBSTRUCTURE
     1 SMA1003     1 GROUP   
@<TRIPOS>SET

