#    Name: 6nin_2_SMA
#    Modification time : Fri May 22 19:36:15 2020

@<TRIPOS>MOLECULE
6nin_2_SMA
   79    80     1     0     0
SMALL
NO_CHARGES


@<TRIPOS>ATOM
      1 C2         64.5870   58.5810  131.0080 C.2       1 SMA1003     0.0000 
      2 C3         64.8590   57.5530  130.0950 C.2       1 SMA1003     0.0000 
      3 C3M        64.2020   57.4640  128.7320 C.3       1 SMA1003     0.0000 
      4 C4         65.8020   56.5430  130.4630 C.2       1 SMA1003     0.0000 
      5 C4A        66.4750   56.6090  131.7110 C.ar      1 SMA1003     0.0000 
      6 C5         67.4380   55.6750  132.1110 C.ar      1 SMA1003     0.0000 
      7 C5M        67.3000   53.3560  131.8350 C.3       1 SMA1003     0.0000 
      8 C6         68.0510   55.8020  133.3350 C.ar      1 SMA1003     0.0000 
      9 C7         67.7220   56.8430  134.1770 C.ar      1 SMA1003     0.0000 
     10 C7M        68.5880   55.7920  136.1390 C.3       1 SMA1003     0.0000 
     11 C8         66.7820   57.7700  133.7950 C.ar      1 SMA1003     0.0000 
     12 C8A        66.1610   57.6480  132.5740 C.ar      1 SMA1003     0.0000 
     13 C9         63.5840   59.6840  130.7730 C.3       1 SMA1003     0.0000 
     14 C10        64.1240   61.0160  130.1860 C.3       1 SMA1003     0.0000 
     15 C11        63.1590   62.1970  130.4890 C.3       1 SMA1003     0.0000 
     16 C12        63.3880   63.4030  129.5300 C.3       1 SMA1003     0.0000 
     17 C13        64.8560   63.9500  129.5380 C.3       1 SMA1003     0.0000 
     18 C14        64.8990   65.2460  128.6860 C.3       1 SMA1003     0.0000 
     19 C15        66.3060   65.5070  128.2010 C.2       1 SMA1003     0.0000 
     20 C16        67.0870   66.4990  128.7730 C.2       1 SMA1003     0.0000 
     21 C17        68.4380   66.7490  128.2950 C.2       1 SMA1003     0.0000 
     22 C18        69.1930   67.7560  128.8890 C.2       1 SMA1003     0.0000 
     23 C19        70.5810   68.1010  128.4730 C.2       1 SMA1003     0.0000 
     24 C20        71.1820   69.1480  129.1630 C.2       1 SMA1003     0.0000 
     25 C21        72.5940   69.6480  128.9830 C.3       1 SMA1003     0.0000 
     26 C22        61.6600   61.8310  130.4240 C.3       1 SMA1003     0.0000 
     27 C23        61.8950   63.6590  127.6350 C.3       1 SMA1003     0.0000 
     28 C24        65.3450   64.2730  130.9660 C.3       1 SMA1003     0.0000 
     29 C25        63.8170   67.3730  128.7930 C.3       1 SMA1003     0.0000 
     30 C26        71.2510   67.3370  127.3420 C.3       1 SMA1003     0.0000 
     31 O1         65.2260   58.5760  132.2260 O.3       1 SMA1003     0.0000 
     32 O4         65.9920   55.6090  129.7020 O.2       1 SMA1003     0.0000 
     33 O5         67.8070   54.6210  131.3150 O.3       1 SMA1003     0.0000 
     34 O7         68.3170   57.0030  135.4050 O.3       1 SMA1003     0.0000 
     35 O8         66.4590   58.8020  134.6440 O.3       1 SMA1003     0.0000 
     36 O12        63.0530   62.9900  128.1720 O.3       1 SMA1003     0.0000 
     37 O14        64.4020   66.2980  129.5510 O.3       1 SMA1003     0.0000 
     38 H1         64.9050   57.0570  128.0150 H         1 SMA1003     0.0000 
     39 H2         63.8950   58.4520  128.4110 H         1 SMA1003     0.0000 
     40 H3         63.3340   56.8190  128.7880 H         1 SMA1003     0.0000 
     41 H4         66.3340   53.5060  132.2790 H         1 SMA1003     0.0000 
     42 H5         67.9720   52.9730  132.5790 H         1 SMA1003     0.0000 
     43 H6         67.2140   52.6430  131.0380 H         1 SMA1003     0.0000 
     44 H7         68.7850   55.0820  133.6190 H         1 SMA1003     0.0000 
     45 H8         68.7320   56.0020  137.1910 H         1 SMA1003     0.0000 
     46 H9         69.4820   55.3080  135.7690 H         1 SMA1003     0.0000 
     47 H10        67.7660   55.0940  136.0470 H         1 SMA1003     0.0000 
     48 H11        63.1170   59.9030  131.7180 H         1 SMA1003     0.0000 
     49 H12        62.8360   59.3040  130.0990 H         1 SMA1003     0.0000 
     50 H13        64.2450   60.8880  129.1180 H         1 SMA1003     0.0000 
     51 H14        65.1000   61.2020  130.6160 H         1 SMA1003     0.0000 
     52 H15        63.4040   62.5040  131.5030 H         1 SMA1003     0.0000 
     53 H16        62.7500   64.2090  129.8800 H         1 SMA1003     0.0000 
     54 H17        65.5250   63.2170  129.1120 H         1 SMA1003     0.0000 
     55 H18        64.2470   65.1510  127.8270 H         1 SMA1003     0.0000 
     56 H19        66.6880   64.9160  127.3950 H         1 SMA1003     0.0000 
     57 H21        66.6970   67.0930  129.5790 H         1 SMA1003     0.0000 
     58 H22        68.8380   66.1580  127.4930 H         1 SMA1003     0.0000 
     59 H23        68.7450   68.3130  129.6940 H         1 SMA1003     0.0000 
     60 H25        70.8230   69.3540  130.1570 H         1 SMA1003     0.0000 
     61 H26        72.9920   69.9970  129.9320 H         1 SMA1003     0.0000 
     62 H27        72.6120   70.4710  128.2720 H         1 SMA1003     0.0000 
     63 H28        73.2300   68.8490  128.6100 H         1 SMA1003     0.0000 
     64 H29        61.0670   62.7340  130.3660 H         1 SMA1003     0.0000 
     65 H30        61.3820   61.2770  131.3090 H         1 SMA1003     0.0000 
     66 H31        61.4720   61.2240  129.5490 H         1 SMA1003     0.0000 
     67 H32        61.8370   63.3820  126.5920 H         1 SMA1003     0.0000 
     68 H33        62.0610   64.7170  127.7680 H         1 SMA1003     0.0000 
     69 H34        61.0450   63.3040  128.1990 H         1 SMA1003     0.0000 
     70 H35        66.2200   64.9160  130.9240 H         1 SMA1003     0.0000 
     71 H36        65.6070   63.3570  131.4870 H         1 SMA1003     0.0000 
     72 H37        64.5630   64.7820  131.5220 H         1 SMA1003     0.0000 
     73 H38        63.5350   68.2000  129.4300 H         1 SMA1003     0.0000 
     74 H39        62.9260   67.0500  128.2700 H         1 SMA1003     0.0000 
     75 H40        64.5060   67.7560  128.0520 H         1 SMA1003     0.0000 
     76 H41        72.1590   67.8460  127.0340 H         1 SMA1003     0.0000 
     77 H42        70.5840   67.2680  126.4900 H         1 SMA1003     0.0000 
     78 H43        71.5070   66.3340  127.6690 H         1 SMA1003     0.0000 
     79 H44        66.2250   58.4380  135.5090 H         1 SMA1003     0.0000 
@<TRIPOS>BOND
     1    1    2 2    
     2    1   13 1    
     3    1   31 1    
     4    2    3 1    
     5    2    4 1    
     6    3   38 1    
     7    3   39 1    
     8    3   40 1    
     9    4    5 1    
    10    4   32 2    
    11    5    6 ar   
    12    5   12 ar   
    13    6    8 ar   
    14    6   33 1    
    15    7   33 1    
    16    7   41 1    
    17    7   42 1    
    18    7   43 1    
    19    8    9 ar   
    20    8   44 1    
    21    9   11 ar   
    22    9   34 1    
    23   10   34 1    
    24   10   45 1    
    25   10   46 1    
    26   10   47 1    
    27   11   12 ar   
    28   11   35 1    
    29   12   31 1    
    30   13   14 1    
    31   13   48 1    
    32   13   49 1    
    33   14   15 1    
    34   14   50 1    
    35   14   51 1    
    36   15   16 1    
    37   15   26 1    
    38   15   52 1    
    39   16   17 1    
    40   16   36 1    
    41   16   53 1    
    42   17   18 1    
    43   17   28 1    
    44   17   54 1    
    45   18   19 1    
    46   18   37 1    
    47   18   55 1    
    48   19   20 2    
    49   19   56 1    
    50   20   21 1    
    51   20   57 1    
    52   21   22 2    
    53   21   58 1    
    54   22   23 1    
    55   22   59 1    
    56   23   24 2    
    57   23   30 1    
    58   24   25 1    
    59   24   60 1    
    60   25   61 1    
    61   25   62 1    
    62   25   63 1    
    63   26   66 1    
    64   26   64 1    
    65   26   65 1    
    66   27   36 1    
    67   27   67 1    
    68   27   68 1    
    69   27   69 1    
    70   28   70 1    
    71   28   71 1    
    72   28   72 1    
    73   29   37 1    
    74   29   73 1    
    75   29   74 1    
    76   29   75 1    
    77   30   76 1    
    78   30   77 1    
    79   30   78 1    
    80   35   79 1    
@<TRIPOS>SUBSTRUCTURE
     1 SMA1003     1 GROUP   
@<TRIPOS>SET

