#    Name: 6nin_1_SMA
#    Modification time : Fri May 22 19:36:06 2020

@<TRIPOS>MOLECULE
6nin_1_SMA
   79    80     1     0     0
SMALL
NO_CHARGES


@<TRIPOS>ATOM
      1 C2         90.2780   95.7000  148.8760 C.2       1 SMA1003     0.0000 
      2 C3         91.0340   95.9670  150.0410 C.2       1 SMA1003     0.0000 
      3 C3M        90.7020   97.0460  151.0590 C.3       1 SMA1003     0.0000 
      4 C4         92.1940   95.1710  150.3130 C.2       1 SMA1003     0.0000 
      5 C4A        92.6000   94.1670  149.3910 C.ar      1 SMA1003     0.0000 
      6 C5         93.7470   93.3870  149.5760 C.ar      1 SMA1003     0.0000 
      7 C5M        95.8280   94.1600  150.3210 C.3       1 SMA1003     0.0000 
      8 C6         94.0850   92.4270  148.6460 C.ar      1 SMA1003     0.0000 
      9 C7         93.3000   92.2340  147.5260 C.ar      1 SMA1003     0.0000 
     10 C7M        95.0020   91.1260  146.2760 C.3       1 SMA1003     0.0000 
     11 C8         92.1680   92.9890  147.3340 C.ar      1 SMA1003     0.0000 
     12 C8A        91.8240   93.9530  148.2560 C.ar      1 SMA1003     0.0000 
     13 C9         89.0470   96.4620  148.4370 C.3       1 SMA1003     0.0000 
     14 C10        87.6870   95.8090  148.8090 C.3       1 SMA1003     0.0000 
     15 C11        86.5520   96.2410  147.8360 C.3       1 SMA1003     0.0000 
     16 C12        85.1340   95.9790  148.4260 C.3       1 SMA1003     0.0000 
     17 C13        84.8750   94.4860  148.8300 C.3       1 SMA1003     0.0000 
     18 C14        83.4100   94.3410  149.3310 C.3       1 SMA1003     0.0000 
     19 C15        83.2630   93.0650  150.1250 C.2       1 SMA1003     0.0000 
     20 C16        82.5960   91.9630  149.6050 C.2       1 SMA1003     0.0000 
     21 C17        82.4780   90.7420  150.3880 C.2       1 SMA1003     0.0000 
     22 C18        81.8070   89.6510  149.8470 C.2       1 SMA1003     0.0000 
     23 C19        81.6220   88.3530  150.5610 C.2       1 SMA1003     0.0000 
     24 C20        80.9090   87.3710  149.8720 C.2       1 SMA1003     0.0000 
     25 C21        80.6080   85.9690  150.3490 C.3       1 SMA1003     0.0000 
     26 C22        86.6230   97.7250  147.4130 C.3       1 SMA1003     0.0000 
     27 C23        83.9390   97.8020  149.4600 C.3       1 SMA1003     0.0000 
     28 C24        85.1200   93.5350  147.6340 C.3       1 SMA1003     0.0000 
     29 C25        81.2410   94.7640  148.4100 C.3       1 SMA1003     0.0000 
     30 C26        82.1870   88.1600  151.9630 C.3       1 SMA1003     0.0000 
     31 O1         90.6940   94.6900  148.0340 O.3       1 SMA1003     0.0000 
     32 O4         92.8330   95.3850  151.3350 O.2       1 SMA1003     0.0000 
     33 O5         94.5540   93.5470  150.6760 O.3       1 SMA1003     0.0000 
     34 O7         93.6020   91.2850  146.5770 O.3       1 SMA1003     0.0000 
     35 O8         91.4010   92.7850  146.2140 O.3       1 SMA1003     0.0000 
     36 O12        84.9670   96.8060  149.6100 O.3       1 SMA1003     0.0000 
     37 O14        82.5890   94.3340  148.1400 O.3       1 SMA1003     0.0000 
     38 H1         90.4210   96.5850  151.9980 H         1 SMA1003     0.0000 
     39 H2         89.8800   97.6490  150.6950 H         1 SMA1003     0.0000 
     40 H3         91.5680   97.6770  151.2140 H         1 SMA1003     0.0000 
     41 H4         95.6900   94.8360  149.5000 H         1 SMA1003     0.0000 
     42 H5         96.5300   93.4000  150.0370 H         1 SMA1003     0.0000 
     43 H6         96.2170   94.7020  151.1610 H         1 SMA1003     0.0000 
     44 H7         94.9630   91.8390  148.8020 H         1 SMA1003     0.0000 
     45 H8         95.1370   90.6360  145.3210 H         1 SMA1003     0.0000 
     46 H9         95.4930   90.5280  147.0320 H         1 SMA1003     0.0000 
     47 H10        95.4980   92.0870  146.2330 H         1 SMA1003     0.0000 
     48 H11        89.0900   96.5700  147.3680 H         1 SMA1003     0.0000 
     49 H12        89.0870   97.4390  148.8850 H         1 SMA1003     0.0000 
     50 H13        87.4450   96.0970  149.8240 H         1 SMA1003     0.0000 
     51 H14        87.8160   94.7340  148.7860 H         1 SMA1003     0.0000 
     52 H15        86.6750   95.6120  146.9580 H         1 SMA1003     0.0000 
     53 H16        84.4180   96.2210  147.6460 H         1 SMA1003     0.0000 
     54 H17        85.5340   94.1960  149.6350 H         1 SMA1003     0.0000 
     55 H18        83.1420   95.1850  149.9540 H         1 SMA1003     0.0000 
     56 H19        83.6960   93.0220  151.1020 H         1 SMA1003     0.0000 
     57 H21        82.1640   92.0040  148.6230 H         1 SMA1003     0.0000 
     58 H22        82.9070   90.6950  151.3710 H         1 SMA1003     0.0000 
     59 H23        81.4010   89.7530  148.8540 H         1 SMA1003     0.0000 
     60 H25        80.9280   87.4150  148.7960 H         1 SMA1003     0.0000 
     61 H26        80.5880   85.2830  149.5060 H         1 SMA1003     0.0000 
     62 H27        79.6420   85.9410  150.8460 H         1 SMA1003     0.0000 
     63 H28        81.3720   85.6400  151.0500 H         1 SMA1003     0.0000 
     64 H29        85.6760   98.0260  146.9870 H         1 SMA1003     0.0000 
     65 H30        87.4040   97.8560  146.6780 H         1 SMA1003     0.0000 
     66 H31        86.8370   98.3390  148.2770 H         1 SMA1003     0.0000 
     67 H32        83.8380   98.2880  150.4190 H         1 SMA1003     0.0000 
     68 H33        83.0410   97.2760  149.1720 H         1 SMA1003     0.0000 
     69 H34        84.2780   98.4820  148.6920 H         1 SMA1003     0.0000 
     70 H35        84.7110   92.5520  147.8510 H         1 SMA1003     0.0000 
     71 H36        86.1850   93.4390  147.4460 H         1 SMA1003     0.0000 
     72 H37        84.6390   93.9270  146.7420 H         1 SMA1003     0.0000 
     73 H38        80.6160   94.6850  147.5300 H         1 SMA1003     0.0000 
     74 H39        81.2110   95.7950  148.7360 H         1 SMA1003     0.0000 
     75 H40        80.7820   94.1660  149.1860 H         1 SMA1003     0.0000 
     76 H41        81.7790   87.2600  152.4110 H         1 SMA1003     0.0000 
     77 H42        81.9310   89.0090  152.5890 H         1 SMA1003     0.0000 
     78 H43        83.2680   88.0710  151.9210 H         1 SMA1003     0.0000 
     79 H44        91.9580   92.8750  145.4290 H         1 SMA1003     0.0000 
@<TRIPOS>BOND
     1    1    2 2    
     2    1   13 1    
     3    1   31 1    
     4    2    3 1    
     5    2    4 1    
     6    3   38 1    
     7    3   39 1    
     8    3   40 1    
     9    4    5 1    
    10    4   32 2    
    11    5    6 ar   
    12    5   12 ar   
    13    6    8 ar   
    14    6   33 1    
    15    7   33 1    
    16    7   41 1    
    17    7   42 1    
    18    7   43 1    
    19    8    9 ar   
    20    8   44 1    
    21    9   11 ar   
    22    9   34 1    
    23   10   34 1    
    24   10   45 1    
    25   10   46 1    
    26   10   47 1    
    27   11   12 ar   
    28   11   35 1    
    29   12   31 1    
    30   13   14 1    
    31   13   48 1    
    32   13   49 1    
    33   14   15 1    
    34   14   50 1    
    35   14   51 1    
    36   15   16 1    
    37   15   26 1    
    38   15   52 1    
    39   16   17 1    
    40   16   36 1    
    41   16   53 1    
    42   17   18 1    
    43   17   28 1    
    44   17   54 1    
    45   18   19 1    
    46   18   37 1    
    47   18   55 1    
    48   19   20 2    
    49   19   56 1    
    50   20   21 1    
    51   20   57 1    
    52   21   22 2    
    53   21   58 1    
    54   22   23 1    
    55   22   59 1    
    56   23   24 2    
    57   23   30 1    
    58   24   25 1    
    59   24   60 1    
    60   25   61 1    
    61   25   62 1    
    62   25   63 1    
    63   26   66 1    
    64   26   64 1    
    65   26   65 1    
    66   27   36 1    
    67   27   67 1    
    68   27   68 1    
    69   27   69 1    
    70   28   70 1    
    71   28   71 1    
    72   28   72 1    
    73   29   37 1    
    74   29   73 1    
    75   29   74 1    
    76   29   75 1    
    77   30   76 1    
    78   30   77 1    
    79   30   78 1    
    80   35   79 1    
@<TRIPOS>SUBSTRUCTURE
     1 SMA1003     1 GROUP   
@<TRIPOS>SET

