#    Name: 6hz4_3_GNP_CAVITY_N1_4
#    Modification time : Fri May 22 19:36:20 2020

@<TRIPOS>MOLECULE
6hz4_3_GNP_CAVITY_N1_4
   91     0     7     0     0
SMALL
NO_CHARGES


@<TRIPOS>ATOM
      1 OG         56.5000  143.5300  111.0100 O.3       1 SER1        0.0000 
      2 OG         59.3500  137.6600  115.0000 O.3       1 SER1        0.0000 
      3 OG         56.7200  143.5400  113.1200 O.3       1 SER1        0.0000 
      4 OG         58.2600  140.6100  116.1700 O.3       1 SER1        0.0000 
      5 OG         57.2600  141.7300  116.2700 O.3       1 SER1        0.0000 
      6 OG         57.9400  142.4300  115.1300 O.3       1 SER1        0.0000 
      7 OG         58.6100  143.1300  113.9800 O.3       1 SER1        0.0000 
      8 OG         56.2700  142.8400  116.3700 O.3       1 SER1        0.0000 
      9 OG         56.9400  143.5500  115.2300 O.3       1 SER1        0.0000 
     10 O          56.2700  143.5200  108.9000 O.2       2 ALA2        0.0000 
     11 N          54.6000  143.9300  110.1400 N.am      2 ALA2        0.0000 
     12 N          52.9300  144.3400  111.3800 N.am      2 ALA2        0.0000 
     13 O          56.7900  137.3600  115.2700 O.2       2 ALA2        0.0000 
     14 O          57.4600  138.0700  114.1300 O.2       2 ALA2        0.0000 
     15 N          53.1500  144.3600  113.4900 N.am      2 ALA2        0.0000 
     16 O          60.0300  138.3600  113.8600 O.2       2 ALA2        0.0000 
     17 N          53.7000  142.5500  116.6400 N.am      2 ALA2        0.0000 
     18 N          54.3700  143.2500  115.5000 N.am      2 ALA2        0.0000 
     19 N          55.0500  143.9500  114.3600 N.am      2 ALA2        0.0000 
     20 N          55.7200  144.6500  113.2200 N.am      2 ALA2        0.0000 
     21 N          52.0300  142.9600  117.8800 N.am      2 ALA2        0.0000 
     22 N          52.7000  143.6600  116.7400 N.am      2 ALA2        0.0000 
     23 N          53.3800  144.3700  115.6000 N.am      2 ALA2        0.0000 
     24 N          54.7300  145.7700  113.3100 N.am      2 ALA2        0.0000 
     25 N          51.7100  144.7800  116.8400 N.am      2 ALA2        0.0000 
     26 N          52.3800  145.4800  115.7000 N.am      2 ALA2        0.0000 
     27 O          61.9200  137.9600  114.7300 O.2       2 ALA2        0.0000 
     28 O          60.9200  139.0800  114.8300 O.2       2 ALA2        0.0000 
     29 O          59.9300  140.1900  114.9300 O.2       2 ALA2        0.0000 
     30 O          58.9300  141.3100  115.0300 O.2       2 ALA2        0.0000 
     31 N          55.2700  143.9600  116.4700 N.am      2 ALA2        0.0000 
     32 O          62.8200  138.6700  115.7000 O.2       2 ALA2        0.0000 
     33 OD1        56.6900  139.1900  116.3400 O.co2     3 ASP3        0.0000 
     34 OD1        61.2400  137.2600  115.8700 O.co2     3 ASP3        0.0000 
     35 OD1        59.5700  137.6700  117.1100 O.co2     3 ASP3        0.0000 
     36 OD1        60.2500  138.3700  115.9700 O.co2     3 ASP3        0.0000 
     37 OD1        59.2500  139.4900  116.0700 O.co2     3 ASP3        0.0000 
     38 OD1        57.5800  139.9100  117.3100 O.co2     3 ASP3        0.0000 
     39 OD1        63.1400  136.8500  116.7400 O.co2     3 ASP3        0.0000 
     40 OD1        62.1400  137.9700  116.8400 O.co2     3 ASP3        0.0000 
     41 OD1        61.1500  139.0900  116.9400 O.co2     3 ASP3        0.0000 
     42 NZ         49.9100  143.3500  114.9000 N.4       4 LYS4        0.0000 
     43 NZ         50.8100  144.0700  115.8700 N.4       4 LYS4        0.0000 
     44 NZ         51.4800  144.7700  114.7300 N.4       4 LYS4        0.0000 
     45 NZ         52.1600  145.4700  113.5900 N.4       4 LYS4        0.0000 
     46 NZ         50.4900  145.8900  114.8300 N.4       4 LYS4        0.0000 
     47 NZ         55.6900  140.3100  116.4400 N.4       4 LYS4        0.0000 
     48 NZ         54.6900  141.4300  116.5400 N.4       4 LYS4        0.0000 
     49 NZ         53.0200  141.8400  117.7800 N.4       4 LYS4        0.0000 
     50 NZ         56.5900  141.0200  117.4100 N.4       4 LYS4        0.0000 
     51 CZ         52.2300  139.3000  115.7400 C.ar      5 PHE5        0.0000 
     52 CZ         55.6000  142.8100  110.0400 C.ar      5 PHE5        0.0000 
     53 CZ         51.2300  140.4200  115.8400 C.ar      5 PHE5        0.0000 
     54 CZ         53.9300  143.2300  111.2800 C.ar      5 PHE5        0.0000 
     55 CZ         50.9100  142.2400  114.8000 C.ar      5 PHE5        0.0000 
     56 CZ         52.2600  143.6400  112.5200 C.ar      5 PHE5        0.0000 
     57 CZ         54.7900  139.6000  115.4700 C.ar      5 PHE5        0.0000 
     58 CZ         53.1200  140.0100  116.7100 C.ar      5 PHE5        0.0000 
     59 CZ         55.1500  142.1200  113.2900 C.ar      5 PHE5        0.0000 
     60 CZ         55.8200  142.8200  112.1500 C.ar      5 PHE5        0.0000 
     61 CZ         52.1300  141.1300  116.8100 C.ar      5 PHE5        0.0000 
     62 CZ         52.8000  141.8300  115.6700 C.ar      5 PHE5        0.0000 
     63 CZ         53.4800  142.5400  114.5300 C.ar      5 PHE5        0.0000 
     64 CZ         54.1500  143.2400  113.3900 C.ar      5 PHE5        0.0000 
     65 CZ         55.5000  144.6400  111.1100 C.ar      5 PHE5        0.0000 
     66 CZ         51.8100  142.9500  115.7700 C.ar      5 PHE5        0.0000 
     67 CZ         52.4800  143.6500  114.6300 C.ar      5 PHE5        0.0000 
     68 CZ         53.8300  145.0600  112.3500 C.ar      5 PHE5        0.0000 
     69 CZ         56.3600  141.0100  115.3000 C.ar      5 PHE5        0.0000 
     70 CZ         55.3700  142.1300  115.4000 C.ar      5 PHE5        0.0000 
     71 CZ         51.3900  146.6000  115.8000 C.ar      5 PHE5        0.0000 
     72 CZ         57.6100  144.2500  114.0800 C.ar      5 PHE5        0.0000 
     73 CA         56.5900  141.7000  109.9400 C.3       6 GLY6        0.0000 
     74 CA         55.7900  138.4800  115.3700 C.3       6 GLY6        0.0000 
     75 CA         56.1400  141.0000  113.1900 C.3       6 GLY6        0.0000 
     76 CA         56.8200  141.7100  112.0500 C.3       6 GLY6        0.0000 
     77 CA         57.4900  142.4100  110.9100 C.3       6 GLY6        0.0000 
     78 CA         52.4500  139.3100  117.8500 C.3       6 GLY6        0.0000 
     79 CA         58.6800  136.9600  116.1400 C.3       6 GLY6        0.0000 
     80 CA         57.6800  138.0800  116.2400 C.3       6 GLY6        0.0000 
     81 CA         58.3600  138.7800  115.1000 C.3       6 GLY6        0.0000 
     82 CA         57.3600  139.9000  115.2000 C.3       6 GLY6        0.0000 
     83 CA         58.0300  140.6000  114.0600 C.3       6 GLY6        0.0000 
     84 CA         57.0400  141.7200  114.1600 C.3       6 GLY6        0.0000 
     85 CA         57.7100  142.4200  113.0200 C.3       6 GLY6        0.0000 
     86 CA         62.9100  136.8400  114.6300 C.3       6 GLY6        0.0000 
     87 CA         63.8100  137.5600  115.6000 C.3       6 GLY6        0.0000 
     88 DU         54.8300  143.9400  112.2500 H         7 CUB7        0.0000 
     89 DU         51.1300  142.2500  116.9100 H         7 CUB7        0.0000 
     90 DU         56.0400  142.8300  114.2600 H         7 CUB7        0.0000 
     91 DU         51.0300  144.0800  117.9800 H         7 CUB7        0.0000 
@<TRIPOS>BOND
@<TRIPOS>SUBSTRUCTURE
     1 SER1        1 GROUP   
     2 ALA2       10 GROUP   
     3 ASP3       33 GROUP   
     4 LYS4       42 GROUP   
     5 PHE5       51 GROUP   
     6 GLY6       73 GROUP   
     7 CUB7       88 GROUP   
@<TRIPOS>SET

