#    Name: 6hz4_4_GDP_CAVITY_N1_4
#    Modification time : Fri May 22 19:36:26 2020

@<TRIPOS>MOLECULE
6hz4_4_GDP_CAVITY_N1_4
  135     0     7     0     0
SMALL
NO_CHARGES


@<TRIPOS>ATOM
      1 OG         69.8100  136.1800  145.9000 O.3       1 SER1        0.0000 
      2 OG         70.4800  136.8800  144.7600 O.3       1 SER1        0.0000 
      3 OG         71.1600  137.5800  143.6200 O.3       1 SER1        0.0000 
      4 OG         70.1600  138.7000  143.7200 O.3       1 SER1        0.0000 
      5 OG         71.3800  137.5900  145.7300 O.3       1 SER1        0.0000 
      6 OG         69.7100  138.0100  146.9700 O.3       1 SER1        0.0000 
      7 OG         70.3800  138.7100  145.8300 O.3       1 SER1        0.0000 
      8 OG         71.0600  139.4100  144.6900 O.3       1 SER1        0.0000 
      9 OG         68.7100  139.1300  147.0700 O.3       1 SER1        0.0000 
     10 OG         71.5000  139.4300  148.9100 O.3       1 SER1        0.0000 
     11 OG         69.8300  139.8500  150.1500 O.3       1 SER1        0.0000 
     12 OG         70.5100  140.5500  149.0100 O.3       1 SER1        0.0000 
     13 OG         68.8400  140.9700  150.2500 O.3       1 SER1        0.0000 
     14 OG         71.7200  139.4400  151.0200 O.3       1 SER1        0.0000 
     15 OG         72.4000  140.1500  149.8800 O.3       1 SER1        0.0000 
     16 OG         70.0500  139.8600  152.2600 O.3       1 SER1        0.0000 
     17 OG         69.0600  140.9800  152.3600 O.3       1 SER1        0.0000 
     18 OG         68.7400  142.8000  151.3200 O.3       1 SER1        0.0000 
     19 OG         69.4100  143.5000  150.1700 O.3       1 SER1        0.0000 
     20 OG         69.0900  145.3200  149.1300 O.3       1 SER1        0.0000 
     21 OG         68.0900  146.4400  149.2300 O.3       1 SER1        0.0000 
     22 OG         69.6300  143.5100  152.2800 O.3       1 SER1        0.0000 
     23 OG         69.3100  145.3300  151.2400 O.3       1 SER1        0.0000 
     24 O          69.3900  139.8300  145.9300 O.2       2 ALA2        0.0000 
     25 O          72.9500  139.0100  145.5600 O.2       2 ALA2        0.0000 
     26 O          71.9500  140.1300  145.6600 O.2       2 ALA2        0.0000 
     27 O          70.9600  141.2400  145.7600 O.2       2 ALA2        0.0000 
     28 O          73.1700  139.0200  147.6700 O.2       2 ALA2        0.0000 
     29 O          72.1800  140.1400  147.7700 O.2       2 ALA2        0.0000 
     30 O          71.1800  141.2500  147.8700 O.2       2 ALA2        0.0000 
     31 O          75.7400  139.3200  147.4000 O.2       2 ALA2        0.0000 
     32 N          70.3800  138.0400  153.3000 N.am      2 ALA2        0.0000 
     33 N          71.0500  138.7400  152.1600 N.am      2 ALA2        0.0000 
     34 N          69.3800  139.1600  153.4000 N.am      2 ALA2        0.0000 
     35 N          68.3800  140.2700  153.5000 N.am      2 ALA2        0.0000 
     36 N          68.0600  142.0900  152.4600 N.am      2 ALA2        0.0000 
     37 N          67.0700  143.2100  152.5600 N.am      2 ALA2        0.0000 
     38 N          66.4200  146.8500  150.4700 N.am      2 ALA2        0.0000 
     39 O          67.1000  147.5500  149.3300 O.2       2 ALA2        0.0000 
     40 N          72.9400  138.3400  153.0300 N.am      2 ALA2        0.0000 
     41 N          68.6100  140.2800  155.6100 N.am      2 ALA2        0.0000 
     42 N          69.2800  140.9900  154.4700 N.am      2 ALA2        0.0000 
     43 N          69.9600  141.6900  153.3300 N.am      2 ALA2        0.0000 
     44 N          68.2800  142.1000  154.5700 N.am      2 ALA2        0.0000 
     45 N          68.9600  142.8100  153.4300 N.am      2 ALA2        0.0000 
     46 N          68.6400  144.6300  152.3800 N.am      2 ALA2        0.0000 
     47 N          66.2900  144.3400  154.7600 N.am      2 ALA2        0.0000 
     48 N          66.9700  145.0400  153.6200 N.am      2 ALA2        0.0000 
     49 N          67.6400  145.7400  152.4800 N.am      2 ALA2        0.0000 
     50 N          65.9700  146.1600  153.7200 N.am      2 ALA2        0.0000 
     51 N          66.6500  146.8600  152.5800 N.am      2 ALA2        0.0000 
     52 N          64.9800  147.2800  153.8200 N.am      2 ALA2        0.0000 
     53 N          73.5200  140.8700  152.9500 N.am      2 ALA2        0.0000 
     54 N          66.1900  146.1700  155.8300 N.am      2 ALA2        0.0000 
     55 OD1        72.3800  136.4800  145.6300 O.co2     3 ASP3        0.0000 
     56 OD1        73.0500  137.1800  144.4900 O.co2     3 ASP3        0.0000 
     57 OD1        70.7100  136.8900  146.8700 O.co2     3 ASP3        0.0000 
     58 OD1        72.7300  139.0000  143.4500 O.co2     3 ASP3        0.0000 
     59 OD1        69.0400  137.3100  148.1100 O.co2     3 ASP3        0.0000 
     60 OD1        73.2700  137.1900  146.6000 O.co2     3 ASP3        0.0000 
     61 OD1        70.9300  136.9000  148.9800 O.co2     3 ASP3        0.0000 
     62 NZ         71.4800  135.7600  144.6600 N.4       4 LYS4        0.0000 
     63 NZ         72.1500  136.4700  143.5200 N.4       4 LYS4        0.0000 
     64 NZ         71.7000  135.7700  146.7700 N.4       4 LYS4        0.0000 
     65 NZ         72.6000  136.4900  147.7400 N.4       4 LYS4        0.0000 
     66 NZ         71.6000  137.6000  147.8400 N.4       4 LYS4        0.0000 
     67 NZ         69.9300  138.0200  149.0800 N.4       4 LYS4        0.0000 
     68 NZ         68.9400  139.1400  149.1800 N.4       4 LYS4        0.0000 
     69 NZ         66.5900  138.8500  151.5600 N.4       4 LYS4        0.0000 
     70 NZ         67.2700  139.5500  150.4200 N.4       4 LYS4        0.0000 
     71 NZ         72.1500  135.7900  150.9900 N.4       4 LYS4        0.0000 
     72 NZ         72.8200  136.5000  149.8500 N.4       4 LYS4        0.0000 
     73 NZ         73.4900  137.2000  148.7100 N.4       4 LYS4        0.0000 
     74 NZ         70.1500  138.0300  151.1900 N.4       4 LYS4        0.0000 
     75 NZ         68.4800  138.4400  152.4300 N.4       4 LYS4        0.0000 
     76 NZ         69.1600  139.1500  151.2900 N.4       4 LYS4        0.0000 
     77 NZ         67.4900  139.5600  152.5300 N.4       4 LYS4        0.0000 
     78 NZ         68.1600  140.2600  151.3900 N.4       4 LYS4        0.0000 
     79 NZ         65.3000  145.4600  154.8600 N.4       4 LYS4        0.0000 
     80 CZ         65.6000  139.9700  151.6600 C.ar      5 PHE5        0.0000 
     81 CZ         66.4900  140.6800  152.6300 C.ar      5 PHE5        0.0000 
     82 CZ         65.5000  141.8000  152.7300 C.ar      5 PHE5        0.0000 
     83 CZ         66.1700  142.5000  151.5900 C.ar      5 PHE5        0.0000 
     84 CZ         66.5200  145.0200  149.4000 C.ar      5 PHE5        0.0000 
     85 CZ         65.5300  146.1400  149.5000 C.ar      5 PHE5        0.0000 
     86 CZ         72.0500  137.6200  152.0600 C.ar      5 PHE5        0.0000 
     87 CZ         67.7400  143.9100  151.4100 C.ar      5 PHE5        0.0000 
     88 CZ         66.0700  144.3300  152.6600 C.ar      5 PHE5        0.0000 
     89 CZ         66.7500  145.0300  151.5100 C.ar      5 PHE5        0.0000 
     90 CZ         67.4200  145.7300  150.3700 C.ar      5 PHE5        0.0000 
     91 CZ         64.4000  144.7400  153.9000 C.ar      5 PHE5        0.0000 
     92 CZ         65.0800  145.4500  152.7500 C.ar      5 PHE5        0.0000 
     93 CZ         65.7500  146.1500  151.6100 C.ar      5 PHE5        0.0000 
     94 CZ         68.3200  146.4500  151.3400 C.ar      5 PHE5        0.0000 
     95 CZ         67.3200  147.5600  151.4400 C.ar      5 PHE5        0.0000 
     96 CZ         68.5400  146.4600  153.4500 C.ar      5 PHE5        0.0000 
     97 CZ         65.5200  145.4700  156.9700 C.ar      5 PHE5        0.0000 
     98 CZ         66.8700  146.8700  154.6900 C.ar      5 PHE5        0.0000 
     99 CA         71.8300  138.2900  142.4800 C.3       6 GLY6        0.0000 
    100 CA         73.7200  137.8800  143.3500 C.3       6 GLY6        0.0000 
    101 CA         68.0400  138.4200  148.2100 C.3       6 GLY6        0.0000 
    102 CA         73.9500  137.8900  145.4600 C.3       6 GLY6        0.0000 
    103 CA         69.6100  139.8400  148.0400 C.3       6 GLY6        0.0000 
    104 CA         70.2800  140.5400  146.9000 C.3       6 GLY6        0.0000 
    105 CA         67.9400  140.2500  149.2800 C.3       6 GLY6        0.0000 
    106 CA         68.6100  140.9600  148.1400 C.3       6 GLY6        0.0000 
    107 CA         74.8400  138.6000  146.4300 C.3       6 GLY6        0.0000 
    108 CA         71.1500  136.9100  151.0900 C.3       6 GLY6        0.0000 
    109 CA         69.5100  141.6700  149.1100 C.3       6 GLY6        0.0000 
    110 CA         67.1700  141.3800  151.4900 C.3       6 GLY6        0.0000 
    111 CA         67.8400  142.0800  150.3500 C.3       6 GLY6        0.0000 
    112 CA         68.5100  142.7900  149.2100 C.3       6 GLY6        0.0000 
    113 CA         66.8400  143.2000  150.4500 C.3       6 GLY6        0.0000 
    114 CA         67.5200  143.9000  149.3100 C.3       6 GLY6        0.0000 
    115 CA         67.2000  145.7200  148.2600 C.3       6 GLY6        0.0000 
    116 CA         66.2000  146.8400  148.3600 C.3       6 GLY6        0.0000 
    117 CA         74.0700  139.7300  148.6400 C.3       6 GLY6        0.0000 
    118 CA         73.0700  140.8500  148.7400 C.3       6 GLY6        0.0000 
    119 CA         68.4200  144.6200  150.2700 C.3       6 GLY6        0.0000 
    120 CA         74.2900  139.7400  150.7500 C.3       6 GLY6        0.0000 
    121 CA         65.2000  147.2900  155.9300 C.3       6 GLY6        0.0000 
    122 DU         72.0500  138.3000  144.5900 H         7 CUB7        0.0000 
    123 DU         72.2800  138.3100  146.7000 H         7 CUB7        0.0000 
    124 DU         70.6100  138.7200  147.9400 H         7 CUB7        0.0000 
    125 DU         71.2800  139.4200  146.8000 H         7 CUB7        0.0000 
    126 DU         74.1700  137.9000  147.5700 H         7 CUB7        0.0000 
    127 DU         71.8200  137.6100  149.9500 H         7 CUB7        0.0000 
    128 DU         72.5000  138.3200  148.8100 H         7 CUB7        0.0000 
    129 DU         70.8300  138.7300  150.0500 H         7 CUB7        0.0000 
    130 DU         73.7200  137.2100  150.8200 H         7 CUB7        0.0000 
    131 DU         74.3900  137.9100  149.6800 H         7 CUB7        0.0000 
    132 DU         72.7200  138.3300  150.9200 H         7 CUB7        0.0000 
    133 DU         73.3900  139.0300  149.7800 H         7 CUB7        0.0000 
    134 DU         67.3900  141.3900  153.6000 H         7 CUB7        0.0000 
    135 DU         73.6200  139.0400  151.8900 H         7 CUB7        0.0000 
@<TRIPOS>BOND
@<TRIPOS>SUBSTRUCTURE
     1 SER1        1 GROUP   
     2 ALA2       24 GROUP   
     3 ASP3       55 GROUP   
     4 LYS4       62 GROUP   
     5 PHE5       80 GROUP   
     6 GLY6       99 GROUP   
     7 CUB7      122 GROUP   
@<TRIPOS>SET

