#    Name: 6hz4_6_GDP
#    Modification time : Fri May 22 19:36:38 2020

@<TRIPOS>MOLECULE
6hz4_6_GDP
   40    42     1     0     1
SMALL
NO_CHARGES


@<TRIPOS>ATOM
      1 PB        104.1520   91.5760  136.7910 P.3       1 GDP1001     0.0000 
      2 O1B       104.5460   91.6140  135.3660 O.co2     1 GDP1001     0.0000 
      3 O2B       104.5740   92.8380  137.4390 O.co2     1 GDP1001     0.0000 
      4 O3B       102.6850   91.4280  136.9130 O.co2     1 GDP1001     0.0000 
      5 O3A       104.8600   90.3110  137.4820 O.3       1 GDP1001     0.0000 
      6 PA        105.3600   90.3600  139.0040 P.3       1 GDP1001     0.0000 
      7 O1A       106.0480   91.6380  139.2820 O.co2     1 GDP1001     0.0000 
      8 O2A       104.1940   90.2000  139.8900 O.co2     1 GDP1001     0.0000 
      9 O5'       106.3690   89.1510  139.2630 O.3       1 GDP1001     0.0000 
     10 C5'       106.8380   88.3900  138.1600 C.3       1 GDP1001     0.0000 
     11 C4'       107.6340   87.1370  138.5700 C.3       1 GDP1001     0.0000 
     12 O4'       108.9260   87.5470  139.1740 O.3       1 GDP1001     0.0000 
     13 C3'       106.9200   86.3640  139.6730 C.3       1 GDP1001     0.0000 
     14 O3'       107.2100   84.9750  139.5700 O.3       1 GDP1001     0.0000 
     15 C2'       107.6160   86.9240  140.8910 C.3       1 GDP1001     0.0000 
     16 O2'       107.3800   86.1000  142.0230 O.3       1 GDP1001     0.0000 
     17 C1'       109.0440   86.8020  140.4100 C.3       1 GDP1001     0.0000 
     18 N9        109.9900   87.3880  141.3800 N.pl3     1 GDP1001     0.0000 
     19 C8        110.2890   88.6640  141.5780 C.2       1 GDP1001     0.0000 
     20 N7        111.1750   88.7370  142.5630 N.2       1 GDP1001     0.0000 
     21 C5        111.4130   87.5010  142.9820 C.2       1 GDP1001     0.0000 
     22 C6        112.2130   87.0410  143.9370 C.2       1 GDP1001     0.0000 
     23 O6        112.8850   87.8190  144.6080 O.2       1 GDP1001     0.0000 
     24 N1        112.2840   85.6630  144.1800 N.am      1 GDP1001     0.0000 
     25 C2        111.4970   84.8140  143.3970 C.2       1 GDP1001     0.0000 
     26 N2        111.5110   83.4980  143.5710 N.pl3     1 GDP1001     0.0000 
     27 N3        110.7150   85.3420  142.4520 N.2       1 GDP1001     0.0000 
     28 C4        110.6810   86.6670  142.2480 C.2       1 GDP1001     0.0000 
     29 H5'       107.4580   89.0320  137.5400 H         1 GDP1001     0.0000 
     30 H5''      105.9730   88.0540  137.5990 H         1 GDP1001     0.0000 
     31 H4'       107.7410   86.5060  137.6920 H         1 GDP1001     0.0000 
     32 H3'       105.8460   86.5060  139.6590 H         1 GDP1001     0.0000 
     33 HO3'      106.8240   84.6370  138.7170 H         1 GDP1001     0.0000 
     34 H2'       107.3720   87.9530  141.0440 H         1 GDP1001     0.0000 
     35 HO2'      107.6400   85.1670  141.7980 H         1 GDP1001     0.0000 
     36 H1'       109.3130   85.7760  140.2060 H         1 GDP1001     0.0000 
     37 H8        109.8890   89.5010  141.0210 H         1 GDP1001     0.0000 
     38 HN1       112.8800   85.2980  144.8960 H         1 GDP1001     0.0000 
     39 HN21      112.0900   83.0840  144.2730 H         1 GDP1001     0.0000 
     40 HN22      110.9340   82.9240  142.9890 H         1 GDP1001     0.0000 
@<TRIPOS>BOND
     1    1    2 ar   
     2    1    3 ar   
     3    1    4 ar   
     4    1    5 1    
     5    5    6 1    
     6    6    7 ar   
     7    6    8 ar   
     8    6    9 1    
     9    9   10 1    
    10   10   11 1    
    11   10   29 1    
    12   10   30 1    
    13   11   12 1    
    14   11   13 1    
    15   11   31 1    
    16   12   17 1    
    17   13   14 1    
    18   13   15 1    
    19   13   32 1    
    20   14   33 1    
    21   15   16 1    
    22   15   17 1    
    23   15   34 1    
    24   16   35 1    
    25   17   18 1    
    26   17   36 1    
    27   18   19 1    
    28   18   28 1    
    29   19   20 2    
    30   19   37 1    
    31   20   21 1    
    32   21   22 1    
    33   21   28 2    
    34   22   23 2    
    35   22   24 am   
    36   24   25 1    
    37   24   38 1    
    38   25   26 1    
    39   25   27 2    
    40   26   39 1    
    41   26   40 1    
    42   27   28 1    
@<TRIPOS>SUBSTRUCTURE
     1 GDP1001     1 GROUP   
@<TRIPOS>SET
ATOM$ORANGE STATIC     ATOMS   COLORGROUP SYSTEM 
20 10 10 11 11 13 13 15 15 17 17 19 19 21 21 22 22 25 \
25 28 28 

