#    Name: 6hz4_3_GNP
#    Modification time : Fri May 22 19:36:18 2020

@<TRIPOS>MOLECULE
6hz4_3_GNP
   45    47     1     0     1
SMALL
NO_CHARGES


@<TRIPOS>ATOM
      1 PG         63.3940  136.4580  116.5860 P.3       1 GNP1001     0.0000 
      2 O1G        64.3440  136.2850  115.4810 O.co2     1 GNP1001     0.0000 
      3 O2G        64.1410  136.6760  117.8360 O.co2     1 GNP1001     0.0000 
      4 O3G        62.4850  135.2980  116.6800 O.co2     1 GNP1001     0.0000 
      5 N3B        62.5950  137.6570  116.3140 N.3       1 GNP1001     0.0000 
      6 PB         62.1330  137.8660  114.9590 P.3       1 GNP1001     0.0000 
      7 O1B        63.2090  138.4640  114.1620 O.co2     1 GNP1001     0.0000 
      8 O2B        61.6890  136.5760  114.4190 O.co2     1 GNP1001     0.0000 
      9 O3A        60.9170  138.8580  115.0920 O.3       1 GNP1001     0.0000 
     10 PA         59.4480  138.2660  115.0520 P.3       1 GNP1001     0.0000 
     11 O1A        59.2170  137.6310  113.7500 O.co2     1 GNP1001     0.0000 
     12 O2A        59.3170  137.2480  116.1050 O.co2     1 GNP1001     0.0000 
     13 O5'        58.3680  139.3990  115.3010 O.3       1 GNP1001     0.0000 
     14 C5'        58.6400  140.0790  116.4880 C.3       1 GNP1001     0.0000 
     15 C4'        57.8030  141.3200  116.8650 C.3       1 GNP1001     0.0000 
     16 O4'        57.8850  142.4360  115.8780 O.3       1 GNP1001     0.0000 
     17 C3'        56.3420  141.0700  116.9820 C.3       1 GNP1001     0.0000 
     18 O3'        55.7970  142.0380  117.8570 O.3       1 GNP1001     0.0000 
     19 C2'        55.9010  141.3120  115.5940 C.3       1 GNP1001     0.0000 
     20 O2'        54.4890  141.4340  115.5230 O.3       1 GNP1001     0.0000 
     21 C1'        56.5400  142.6440  115.3540 C.3       1 GNP1001     0.0000 
     22 N9         56.4020  143.0210  113.9300 N.pl3     1 GNP1001     0.0000 
     23 C8         57.1760  142.8540  112.8720 C.2       1 GNP1001     0.0000 
     24 N7         56.5650  143.3670  111.8160 N.2       1 GNP1001     0.0000 
     25 C5         55.3940  143.8240  112.2180 C.2       1 GNP1001     0.0000 
     26 C6         54.4130  144.4120  111.5560 C.2       1 GNP1001     0.0000 
     27 O6         54.5170  144.6130  110.3520 O.2       1 GNP1001     0.0000 
     28 N1         53.2580  144.8090  112.2230 N.am      1 GNP1001     0.0000 
     29 C2         53.1640  144.5750  113.5930 C.2       1 GNP1001     0.0000 
     30 N2         52.0810  144.9230  114.2950 N.pl3     1 GNP1001     0.0000 
     31 N3         54.1940  143.9740  114.1970 N.2       1 GNP1001     0.0000 
     32 C4         55.2920  143.6110  113.5200 C.2       1 GNP1001     0.0000 
     33 HNB3       62.3960  138.3090  117.0270 H         1 GNP1001     0.0000 
     34 H5'2       59.6640  140.3720  116.4530 H         1 GNP1001     0.0000 
     35 H5'1       58.5240  139.3390  117.2560 H         1 GNP1001     0.0000 
     36 H4'        58.1640  141.6040  117.8330 H         1 GNP1001     0.0000 
     37 H3'        56.1270  140.0810  117.3550 H         1 GNP1001     0.0000 
     38 HO3'       54.8190  141.9090  117.9060 H         1 GNP1001     0.0000 
     39 H2'        56.3030  140.5770  114.9360 H         1 GNP1001     0.0000 
     40 HO2'       54.1960  142.1510  116.1390 H         1 GNP1001     0.0000 
     41 H1'        56.0550  143.3890  115.9440 H         1 GNP1001     0.0000 
     42 H8         58.1580  142.4190  112.8590 H         1 GNP1001     0.0000 
     43 HN1        52.5190  145.2530  111.7240 H         1 GNP1001     0.0000 
     44 HN21       51.3080  145.3530  113.8350 H         1 GNP1001     0.0000 
     45 HN22       52.0230  144.7470  115.2800 H         1 GNP1001     0.0000 
@<TRIPOS>BOND
     1    1    2 ar   
     2    1    3 ar   
     3    1    4 ar   
     4    1    5 1    
     5    5    6 1    
     6    5   33 1    
     7    6    7 ar   
     8    6    8 ar   
     9    6    9 1    
    10    9   10 1    
    11   10   11 ar   
    12   10   12 ar   
    13   10   13 1    
    14   13   14 1    
    15   14   15 1    
    16   14   34 1    
    17   14   35 1    
    18   15   16 1    
    19   15   17 1    
    20   15   36 1    
    21   16   21 1    
    22   17   18 1    
    23   17   19 1    
    24   17   37 1    
    25   18   38 1    
    26   19   20 1    
    27   19   21 1    
    28   19   39 1    
    29   20   40 1    
    30   21   22 1    
    31   21   41 1    
    32   22   23 1    
    33   22   32 1    
    34   23   24 2    
    35   23   42 1    
    36   24   25 1    
    37   25   26 1    
    38   25   32 2    
    39   26   27 2    
    40   26   28 am   
    41   28   29 1    
    42   28   43 1    
    43   29   30 1    
    44   29   31 2    
    45   30   44 1    
    46   30   45 1    
    47   31   32 1    
@<TRIPOS>SUBSTRUCTURE
     1 GNP1001     1 GROUP   
@<TRIPOS>SET
ATOM$ORANGE STATIC     ATOMS   COLORGROUP SYSTEM 
20 14 14 15 15 17 17 19 19 21 21 23 23 25 25 26 26 29 \
29 32 32 

