#    Name: 6hz4_1_GNP
#    Modification time : Fri May 22 19:36:06 2020

@<TRIPOS>MOLECULE
6hz4_1_GNP
   45    47     1     0     1
SMALL
NO_CHARGES


@<TRIPOS>ATOM
      1 PG         93.4540   96.7260  107.5880 P.3       1 GNP1001     0.0000 
      2 O1G        92.7470   97.9210  107.0930 O.co2     1 GNP1001     0.0000 
      3 O2G        94.6450   97.1540  108.3370 O.co2     1 GNP1001     0.0000 
      4 O3G        92.5950   95.9130  108.4680 O.co2     1 GNP1001     0.0000 
      5 N3B        93.8690   95.8580  106.3930 N.3       1 GNP1001     0.0000 
      6 PB         94.7680   94.6240  106.6440 P.3       1 GNP1001     0.0000 
      7 O1B        93.9800   93.5850  107.3310 O.co2     1 GNP1001     0.0000 
      8 O2B        95.9390   95.0180  107.4380 O.co2     1 GNP1001     0.0000 
      9 O3A        95.2410   94.1110  105.2130 O.3       1 GNP1001     0.0000 
     10 PA         94.7610   92.6570  104.8320 P.3       1 GNP1001     0.0000 
     11 O1A        93.3060   92.5440  105.0030 O.co2     1 GNP1001     0.0000 
     12 O2A        95.4370   91.7080  105.7250 O.co2     1 GNP1001     0.0000 
     13 O5'        95.1190   92.2910  103.3400 O.3       1 GNP1001     0.0000 
     14 C5'        94.2480   92.7250  102.3110 C.3       1 GNP1001     0.0000 
     15 C4'        94.5680   92.1170  100.9420 C.3       1 GNP1001     0.0000 
     16 O4'        96.0270   92.2300  100.8070 O.3       1 GNP1001     0.0000 
     17 C3'        94.2660   90.6270  100.8630 C.3       1 GNP1001     0.0000 
     18 O3'        93.9950   90.2440   99.5260 O.3       1 GNP1001     0.0000 
     19 C2'        95.5750   90.0730  101.2640 C.3       1 GNP1001     0.0000 
     20 O2'        95.6500   88.7050  100.8670 O.3       1 GNP1001     0.0000 
     21 C1'        96.4680   90.9250  100.4210 C.3       1 GNP1001     0.0000 
     22 N9         97.8550   90.6460  100.7490 N.pl3     1 GNP1001     0.0000 
     23 C8         98.6260   91.1830  101.6740 C.2       1 GNP1001     0.0000 
     24 N7         99.8120   90.5920  101.6160 N.2       1 GNP1001     0.0000 
     25 C5         99.7580   89.6770  100.6580 C.2       1 GNP1001     0.0000 
     26 C6        100.6580   88.8210  100.1990 C.2       1 GNP1001     0.0000 
     27 O6        101.7820   88.7760  100.6830 O.2       1 GNP1001     0.0000 
     28 N1        100.3240   87.9610   99.1600 N.am      1 GNP1001     0.0000 
     29 C2         99.0440   88.0240   98.6320 C.2       1 GNP1001     0.0000 
     30 N2         98.6540   87.2360   97.6480 N.pl3     1 GNP1001     0.0000 
     31 N3         98.1840   88.9030   99.1320 N.2       1 GNP1001     0.0000 
     32 C4         98.5450   89.7160  100.1260 C.2       1 GNP1001     0.0000 
     33 HNB3       93.5140   96.0610  105.4880 H         1 GNP1001     0.0000 
     34 H5'2       94.3510   93.7920  102.2550 H         1 GNP1001     0.0000 
     35 H5'1       93.2340   92.4660  102.5600 H         1 GNP1001     0.0000 
     36 H4'        93.9810   92.6240  100.1870 H         1 GNP1001     0.0000 
     37 H3'        93.4460   90.3220  101.4930 H         1 GNP1001     0.0000 
     38 HO3'       93.8940   89.2500   99.5180 H         1 GNP1001     0.0000 
     39 H2'        95.7730   90.2550  102.2900 H         1 GNP1001     0.0000 
     40 HO2'       94.9740   88.1790  101.3770 H         1 GNP1001     0.0000 
     41 H1'        96.2750   90.7710   99.3810 H         1 GNP1001     0.0000 
     42 H8         98.3370   91.9730  102.3420 H         1 GNP1001     0.0000 
     43 HN1       100.9920   87.3130   98.8070 H         1 GNP1001     0.0000 
     44 HN21       99.2820   86.5680   97.2610 H         1 GNP1001     0.0000 
     45 HN22       97.7220   87.3200   97.3000 H         1 GNP1001     0.0000 
@<TRIPOS>BOND
     1    1    2 ar   
     2    1    3 ar   
     3    1    4 ar   
     4    1    5 1    
     5    5    6 1    
     6    5   33 1    
     7    6    7 ar   
     8    6    8 ar   
     9    6    9 1    
    10    9   10 1    
    11   10   11 ar   
    12   10   12 ar   
    13   10   13 1    
    14   13   14 1    
    15   14   15 1    
    16   14   34 1    
    17   14   35 1    
    18   15   16 1    
    19   15   17 1    
    20   15   36 1    
    21   16   21 1    
    22   17   18 1    
    23   17   19 1    
    24   17   37 1    
    25   18   38 1    
    26   19   20 1    
    27   19   21 1    
    28   19   39 1    
    29   20   40 1    
    30   21   22 1    
    31   21   41 1    
    32   22   23 1    
    33   22   32 1    
    34   23   24 2    
    35   23   42 1    
    36   24   25 1    
    37   25   26 1    
    38   25   32 2    
    39   26   27 2    
    40   26   28 am   
    41   28   29 1    
    42   28   43 1    
    43   29   30 1    
    44   29   31 2    
    45   30   44 1    
    46   30   45 1    
    47   31   32 1    
@<TRIPOS>SUBSTRUCTURE
     1 GNP1001     1 GROUP   
@<TRIPOS>SET
ATOM$ORANGE STATIC     ATOMS   COLORGROUP SYSTEM 
20 14 14 15 15 17 17 19 19 21 21 23 23 25 25 26 26 29 \
29 32 32 

