#    Name: 6hz4_6_GDP_CAVITY_N1_6
#    Modification time : Fri May 22 19:36:39 2020

@<TRIPOS>MOLECULE
6hz4_6_GDP_CAVITY_N1_6
  134     0     7     0     0
SMALL
NO_CHARGES


@<TRIPOS>ATOM
      1 OG        106.3900   87.4900  131.6200 O.3       1 SER1        0.0000 
      2 OG        105.3900   88.6000  131.7200 O.3       1 SER1        0.0000 
      3 OG        106.0700   89.3100  130.5800 O.3       1 SER1        0.0000 
      4 OG        108.2800   87.0800  132.4900 O.3       1 SER1        0.0000 
      5 OG        107.2800   88.2000  132.5900 O.3       1 SER1        0.0000 
      6 OG        108.5000   87.0900  134.6000 O.3       1 SER1        0.0000 
      7 OG        107.5100   88.2100  134.7000 O.3       1 SER1        0.0000 
      8 OG        107.5400   92.5500  131.4800 O.3       1 SER1        0.0000 
      9 OG        107.0500   87.5200  137.9500 O.3       1 SER1        0.0000 
     10 OG        106.0600   88.6300  138.0500 O.3       1 SER1        0.0000 
     11 OG        107.4100   90.0400  135.7700 O.3       1 SER1        0.0000 
     12 OG        102.4000   91.2800  139.4900 O.3       1 SER1        0.0000 
     13 OG        101.4000   92.4000  139.5900 O.3       1 SER1        0.0000 
     14 N         104.1700   89.7100  129.7100 N.am      2 ALA2        0.0000 
     15 N         105.0700   90.4200  130.6800 N.am      2 ALA2        0.0000 
     16 N         105.7400   91.1300  129.5400 N.am      2 ALA2        0.0000 
     17 N         104.0700   91.5400  130.7800 N.am      2 ALA2        0.0000 
     18 N         104.7500   92.2400  129.6400 N.am      2 ALA2        0.0000 
     19 N         107.2500   83.8600  135.8200 N.am      2 ALA2        0.0000 
     20 N         107.9300   84.5600  134.6800 N.am      2 ALA2        0.0000 
     21 N         105.6400   92.9600  130.6100 N.am      2 ALA2        0.0000 
     22 N         109.5000   85.9700  134.5000 N.am      2 ALA2        0.0000 
     23 N         107.1500   85.6900  136.8900 N.am      2 ALA2        0.0000 
     24 O         106.4100   91.1600  135.8700 O.2       2 ALA2        0.0000 
     25 O         107.0800   91.8600  134.7300 O.2       2 ALA2        0.0000 
     26 O         107.7600   92.5600  133.5900 O.2       2 ALA2        0.0000 
     27 O         106.0900   92.9800  134.8300 O.2       2 ALA2        0.0000 
     28 O         104.6100   89.0600  141.4000 O.2       2 ALA2        0.0000 
     29 O         104.2900   90.8800  140.3600 O.2       2 ALA2        0.0000 
     30 O         104.9600   91.5800  139.2200 O.2       2 ALA2        0.0000 
     31 O         105.6400   92.2800  138.0800 O.2       2 ALA2        0.0000 
     32 O         103.2900   92.0000  140.4600 O.2       2 ALA2        0.0000 
     33 O         106.5300   93.0000  139.0500 O.2       2 ALA2        0.0000 
     34 OD1       102.9500   90.1500  135.1700 O.co2     3 ASP3        0.0000 
     35 OD1       104.3000   91.5500  132.8900 O.co2     3 ASP3        0.0000 
     36 OD1       104.9700   92.2500  131.7500 O.co2     3 ASP3        0.0000 
     37 OD1       103.4900   88.3400  138.3200 O.co2     3 ASP3        0.0000 
     38 OD1       102.5000   89.4500  138.4200 O.co2     3 ASP3        0.0000 
     39 OD1       103.1700   90.1600  137.2800 O.co2     3 ASP3        0.0000 
     40 OD1       103.8400   90.8600  136.1400 O.co2     3 ASP3        0.0000 
     41 OD1       104.5200   91.5600  135.0000 O.co2     3 ASP3        0.0000 
     42 OD1       105.1900   92.2600  133.8600 O.co2     3 ASP3        0.0000 
     43 OD1       105.8700   92.9700  132.7200 O.co2     3 ASP3        0.0000 
     44 OD1       101.5000   90.5700  138.5200 O.co2     3 ASP3        0.0000 
     45 OD1       102.1700   91.2700  137.3800 O.co2     3 ASP3        0.0000 
     46 OD1       102.8500   91.9800  136.2400 O.co2     3 ASP3        0.0000 
     47 OD1       105.4100   92.2700  135.9700 O.co2     3 ASP3        0.0000 
     48 OD1       103.7400   92.6900  137.2100 O.co2     3 ASP3        0.0000 
     49 OD1       102.7500   93.8100  137.3100 O.co2     3 ASP3        0.0000 
     50 OD1       103.9700   92.7000  139.3200 O.co2     3 ASP3        0.0000 
     51 OD1       104.6400   93.4000  138.1800 O.co2     3 ASP3        0.0000 
     52 NZ        102.5000   90.1300  130.9500 N.4       4 LYS4        0.0000 
     53 NZ        103.7200   89.0200  132.9600 N.4       4 LYS4        0.0000 
     54 NZ        104.4000   89.7200  131.8200 N.4       4 LYS4        0.0000 
     55 NZ        103.4000   90.8400  131.9200 N.4       4 LYS4        0.0000 
     56 NZ        106.2600   84.9700  135.9200 N.4       4 LYS4        0.0000 
     57 NZ        106.9300   85.6800  134.7800 N.4       4 LYS4        0.0000 
     58 NZ        107.6100   86.3800  133.6300 N.4       4 LYS4        0.0000 
     59 NZ        104.5900   85.3900  137.1600 N.4       4 LYS4        0.0000 
     60 NZ        106.6100   87.5000  133.7300 N.4       4 LYS4        0.0000 
     61 NZ        103.5900   86.5100  137.2600 N.4       4 LYS4        0.0000 
     62 NZ        105.6100   88.6100  133.8300 N.4       4 LYS4        0.0000 
     63 NZ        104.6200   89.7300  133.9300 N.4       4 LYS4        0.0000 
     64 NZ        103.6200   90.8500  134.0300 N.4       4 LYS4        0.0000 
     65 NZ        101.9500   91.2600  135.2700 N.4       4 LYS4        0.0000 
     66 NZ        105.4800   86.1000  138.1300 N.4       4 LYS4        0.0000 
     67 NZ        106.1600   86.8000  136.9800 N.4       4 LYS4        0.0000 
     68 NZ        106.8300   87.5100  135.8400 N.4       4 LYS4        0.0000 
     69 NZ        104.4900   87.2200  138.2200 N.4       4 LYS4        0.0000 
     70 NZ        105.1600   87.9200  137.0800 N.4       4 LYS4        0.0000 
     71 NZ        105.8400   88.6200  135.9400 N.4       4 LYS4        0.0000 
     72 NZ        106.5100   89.3300  134.8000 N.4       4 LYS4        0.0000 
     73 NZ        104.8400   89.7400  136.0400 N.4       4 LYS4        0.0000 
     74 NZ        101.1800   92.3900  137.4800 N.4       4 LYS4        0.0000 
     75 NZ        102.0700   93.1000  138.4500 N.4       4 LYS4        0.0000 
     76 CZ        103.5000   89.0100  130.8500 C.ar      5 PHE5        0.0000 
     77 CZ        103.9100   84.6900  138.3000 C.ar      5 PHE5        0.0000 
     78 CZ        107.9600   88.9000  131.4500 C.ar      5 PHE5        0.0000 
     79 CZ        106.9600   90.0200  131.5500 C.ar      5 PHE5        0.0000 
     80 CZ        107.6400   90.7200  130.4100 C.ar      5 PHE5        0.0000 
     81 CZ        109.1800   87.7900  133.4600 C.ar      5 PHE5        0.0000 
     82 CZ        103.4600   83.9900  141.5500 C.ar      5 PHE5        0.0000 
     83 CZ        104.1300   84.7000  140.4100 C.ar      5 PHE5        0.0000 
     84 CZ        108.1800   88.9100  133.5600 C.ar      5 PHE5        0.0000 
     85 CZ        102.4600   85.1100  141.6500 C.ar      5 PHE5        0.0000 
     86 CZ        103.1400   85.8100  140.5100 C.ar      5 PHE5        0.0000 
     87 CZ        107.1800   90.0300  133.6600 C.ar      5 PHE5        0.0000 
     88 CZ        107.8600   90.7300  132.5200 C.ar      5 PHE5        0.0000 
     89 CZ        106.8600   91.8500  132.6200 C.ar      5 PHE5        0.0000 
     90 CZ        109.0800   89.6200  134.5300 C.ar      5 PHE5        0.0000 
     91 CA        107.0300   83.8500  133.7100 C.3       6 GLY6        0.0000 
     92 CA        108.6000   85.2600  133.5400 C.3       6 GLY6        0.0000 
     93 CA        104.6500   94.0700  130.7100 C.3       6 GLY6        0.0000 
     94 CA        110.1700   86.6800  133.3600 C.3       6 GLY6        0.0000 
     95 CA        102.1400   86.9300  140.6100 C.3       6 GLY6        0.0000 
     96 CA        102.8200   87.6300  139.4700 C.3       6 GLY6        0.0000 
     97 CA        101.1500   88.0500  140.7100 C.3       6 GLY6        0.0000 
     98 CA        101.8200   88.7500  139.5600 C.3       6 GLY6        0.0000 
     99 CA        106.5400   93.6700  131.5800 C.3       6 GLY6        0.0000 
    100 CA        105.5500   94.7900  131.6800 C.3       6 GLY6        0.0000 
    101 CA        108.0800   90.7400  134.6300 C.3       6 GLY6        0.0000 
    102 CA        103.0400   87.6400  141.5700 C.3       6 GLY6        0.0000 
    103 CA        103.7100   88.3500  140.4300 C.3       6 GLY6        0.0000 
    104 CA        103.3900   90.1700  139.3900 C.3       6 GLY6        0.0000 
    105 CA        106.7600   93.6800  133.6900 C.3       6 GLY6        0.0000 
    106 CA        107.4400   94.3800  132.5500 C.3       6 GLY6        0.0000 
    107 CA        105.9300   86.1200  142.3400 C.3       6 GLY6        0.0000 
    108 CA        104.9300   87.2400  142.4400 C.3       6 GLY6        0.0000 
    109 CA        105.6100   87.9400  141.3000 C.3       6 GLY6        0.0000 
    110 CA        106.2800   88.6400  140.1600 C.3       6 GLY6        0.0000 
    111 CA        106.9500   89.3500  139.0200 C.3       6 GLY6        0.0000 
    112 CA        105.2800   89.7600  140.2600 C.3       6 GLY6        0.0000 
    113 CA        105.9600   90.4600  139.1200 C.3       6 GLY6        0.0000 
    114 CA        106.6300   91.1700  137.9800 C.3       6 GLY6        0.0000 
    115 CA        105.3200   94.1000  137.0400 C.3       6 GLY6        0.0000 
    116 DU        106.2900   89.3200  132.6900 H         7 CUB7        0.0000 
    117 DU        105.2900   90.4300  132.7900 H         7 CUB7        0.0000 
    118 DU        105.9700   91.1400  131.6500 H         7 CUB7        0.0000 
    119 DU        106.6400   91.8400  130.5100 H         7 CUB7        0.0000 
    120 DU        104.8100   85.4000  139.2700 H         7 CUB7        0.0000 
    121 DU        103.8100   86.5200  139.3700 H         7 CUB7        0.0000 
    122 DU        105.5100   90.4400  134.9000 H         7 CUB7        0.0000 
    123 DU        106.1900   91.1500  133.7600 H         7 CUB7        0.0000 
    124 DU        105.7100   86.1100  140.2400 H         7 CUB7        0.0000 
    125 DU        106.3800   86.8100  139.0900 H         7 CUB7        0.0000 
    126 DU        104.0400   86.5300  141.4800 H         7 CUB7        0.0000 
    127 DU        104.7100   87.2300  140.3300 H         7 CUB7        0.0000 
    128 DU        105.3800   87.9300  139.1900 H         7 CUB7        0.0000 
    129 DU        104.3900   89.0500  139.2900 H         7 CUB7        0.0000 
    130 DU        105.0600   89.7500  138.1500 H         7 CUB7        0.0000 
    131 DU        105.7400   90.4500  137.0100 H         7 CUB7        0.0000 
    132 DU        104.0700   90.8700  138.2500 H         7 CUB7        0.0000 
    133 DU        104.7400   91.5700  137.1100 H         7 CUB7        0.0000 
    134 DU        103.0700   91.9900  138.3500 H         7 CUB7        0.0000 
@<TRIPOS>BOND
@<TRIPOS>SUBSTRUCTURE
     1 SER1        1 GROUP   
     2 ALA2       14 GROUP   
     3 ASP3       34 GROUP   
     4 LYS4       52 GROUP   
     5 PHE5       76 GROUP   
     6 GLY6       91 GROUP   
     7 CUB7      116 GROUP   
@<TRIPOS>SET

