#    Name: 6hz4_2_GNP_CAVITY_N1_12
#    Modification time : Fri May 22 19:36:13 2020

@<TRIPOS>MOLECULE
6hz4_2_GNP_CAVITY_N1_12
   75     0     7     0     0
SMALL
NO_CHARGES


@<TRIPOS>ATOM
      1 OG         73.0400  116.0100   88.0700 O.3       1 SER1        0.0000 
      2 OG         72.0500  117.1300   88.1700 O.3       1 SER1        0.0000 
      3 OG         72.9400  117.8400   89.1400 O.3       1 SER1        0.0000 
      4 OG         70.6000  117.5500   91.5200 O.3       1 SER1        0.0000 
      5 OG         72.1400  114.6300   94.5700 O.3       1 SER1        0.0000 
      6 OG         74.0300  114.2200   95.4400 O.3       1 SER1        0.0000 
      7 OG         73.0300  115.3400   95.5400 O.3       1 SER1        0.0000 
      8 N          68.3600  116.1100   85.3600 N.am      2 ALA2        0.0000 
      9 N          66.6900  116.5200   86.6000 N.am      2 ALA2        0.0000 
     10 N          67.3600  117.2200   85.4600 N.am      2 ALA2        0.0000 
     11 N          71.9200  115.2900   84.9900 N.am      2 ALA2        0.0000 
     12 N          68.5800  116.1200   87.4700 N.am      2 ALA2        0.0000 
     13 N          69.2600  116.8200   86.3300 N.am      2 ALA2        0.0000 
     14 N          66.9100  116.5300   88.7100 N.am      2 ALA2        0.0000 
     15 N          67.5900  117.2300   87.5700 N.am      2 ALA2        0.0000 
     16 O          73.8200  114.8800   85.8600 O.2       2 ALA2        0.0000 
     17 N          69.4800  116.8300   88.4400 N.am      2 ALA2        0.0000 
     18 N          70.1500  117.5300   87.3000 N.am      2 ALA2        0.0000 
     19 N          67.8100  117.2400   89.6800 N.am      2 ALA2        0.0000 
     20 N          70.3800  117.5400   89.4100 N.am      2 ALA2        0.0000 
     21 N          68.7100  117.9600   90.6500 N.am      2 ALA2        0.0000 
     22 N          69.3800  118.6600   89.5100 N.am      2 ALA2        0.0000 
     23 O          71.5900  116.4400   91.4200 O.2       2 ALA2        0.0000 
     24 O          72.8100  115.3300   93.4300 O.2       2 ALA2        0.0000 
     25 O          73.7100  116.0400   94.4000 O.2       2 ALA2        0.0000 
     26 O          72.7100  117.1600   94.5000 O.2       2 ALA2        0.0000 
     27 O          73.9300  116.0500   96.5100 O.2       2 ALA2        0.0000 
     28 OD1        70.0200  115.0200   91.5900 O.co2     3 ASP3        0.0000 
     29 OD1        70.9200  115.7300   92.5600 O.co2     3 ASP3        0.0000 
     30 OD1        69.9200  116.8500   92.6600 O.co2     3 ASP3        0.0000 
     31 OD1        71.1400  115.7400   94.6700 O.co2     3 ASP3        0.0000 
     32 OD1        71.8200  116.4500   93.5300 O.co2     3 ASP3        0.0000 
     33 OD1        74.9300  114.9300   96.4100 O.co2     3 ASP3        0.0000 
     34 OD1        73.2600  115.3500   97.6500 O.co2     3 ASP3        0.0000 
     35 NZ         66.7900  114.6900   85.5300 N.4       4 LYS4        0.0000 
     36 NZ         66.4700  116.5100   84.4900 N.4       4 LYS4        0.0000 
     37 NZ         65.3400  115.1200   88.8800 N.4       4 LYS4        0.0000 
     38 NZ         67.2300  114.7100   89.7500 N.4       4 LYS4        0.0000 
     39 NZ         66.2400  115.8300   89.8500 N.4       4 LYS4        0.0000 
     40 NZ         68.1300  115.4200   90.7200 N.4       4 LYS4        0.0000 
     41 NZ         69.0300  116.1400   91.6900 N.4       4 LYS4        0.0000 
     42 NZ         68.0300  117.2500   91.7900 N.4       4 LYS4        0.0000 
     43 NZ         75.1500  114.9400   98.5200 N.4       4 LYS4        0.0000 
     44 NZ         74.1500  116.0600   98.6200 N.4       4 LYS4        0.0000 
     45 CZ         67.1400  117.2100   83.3500 C.ar      5 PHE5        0.0000 
     46 CZ         69.3600  114.9900   85.2600 C.ar      5 PHE5        0.0000 
     47 CZ         66.3400  114.0000   88.7800 C.ar      5 PHE5        0.0000 
     48 CZ         67.0100  114.7000   87.6400 C.ar      5 PHE5        0.0000 
     49 CZ         67.6900  115.4000   86.5000 C.ar      5 PHE5        0.0000 
     50 CZ         69.0300  116.8100   84.2200 C.ar      5 PHE5        0.0000 
     51 CZ         68.2300  113.5900   89.6500 C.ar      5 PHE5        0.0000 
     52 CZ         70.2500  115.7000   86.2300 C.ar      5 PHE5        0.0000 
     53 CZ         70.9300  116.4000   85.0900 C.ar      5 PHE5        0.0000 
     54 CZ         67.9100  115.4100   88.6100 C.ar      5 PHE5        0.0000 
     55 CZ         69.9300  117.5200   85.1900 C.ar      5 PHE5        0.0000 
     56 CZ         73.1400  114.1800   87.0000 C.ar      5 PHE5        0.0000 
     57 CZ         72.1500  115.3000   87.1000 C.ar      5 PHE5        0.0000 
     58 CZ         72.8200  116.0000   85.9600 C.ar      5 PHE5        0.0000 
     59 CZ         69.8000  115.0100   89.4800 C.ar      5 PHE5        0.0000 
     60 CZ         70.4700  115.7100   88.3400 C.ar      5 PHE5        0.0000 
     61 CZ         71.1500  116.4100   87.2000 C.ar      5 PHE5        0.0000 
     62 CZ         71.8200  117.1200   86.0600 C.ar      5 PHE5        0.0000 
     63 CZ         70.8300  118.2300   86.1600 C.ar      5 PHE5        0.0000 
     64 CA         69.1300  114.3100   90.6200 C.3       6 GLY6        0.0000 
     65 CA         72.3700  115.3100   89.2100 C.3       6 GLY6        0.0000 
     66 CA         70.7000  115.7200   90.4500 C.3       6 GLY6        0.0000 
     67 CA         71.3700  116.4300   89.3100 C.3       6 GLY6        0.0000 
     68 CA         71.0500  118.2500   88.2700 C.3       6 GLY6        0.0000 
     69 CA         71.9100  114.6200   92.4600 C.3       6 GLY6        0.0000 
     70 CA         71.2700  118.2600   90.3800 C.3       6 GLY6        0.0000 
     71 CA         72.4900  117.1500   92.3900 C.3       6 GLY6        0.0000 
     72 CA         74.8300  116.7600   97.4800 C.3       6 GLY6        0.0000 
     73 DU         66.0200  115.8200   87.7400 H         7 CUB7        0.0000 
     74 DU         68.8000  116.1300   89.5800 H         7 CUB7        0.0000 
     75 DU         69.7000  116.8400   90.5500 H         7 CUB7        0.0000 
@<TRIPOS>BOND
@<TRIPOS>SUBSTRUCTURE
     1 SER1        1 GROUP   
     2 ALA2        8 GROUP   
     3 ASP3       28 GROUP   
     4 LYS4       35 GROUP   
     5 PHE5       45 GROUP   
     6 GLY6       64 GROUP   
     7 CUB7       73 GROUP   
@<TRIPOS>SET

