#    Name: 6hz4_1_GNP_CAVITY_N1_12
#    Modification time : Fri May 22 19:36:07 2020

@<TRIPOS>MOLECULE
6hz4_1_GNP_CAVITY_N1_12
  101     0     7     0     0
SMALL
NO_CHARGES


@<TRIPOS>ATOM
      1 OG         95.6100   90.7900   99.6800 O.3       1 SER1        0.0000 
      2 OG         94.6100   91.9100   99.7800 O.3       1 SER1        0.0000 
      3 OG         96.5100   91.5000  100.6500 O.3       1 SER1        0.0000 
      4 OG         97.1800   92.2000   99.5100 O.3       1 SER1        0.0000 
      5 OG         94.8400   91.9200  101.8900 O.3       1 SER1        0.0000 
      6 OG        100.0700   90.6800  100.2800 O.3       1 SER1        0.0000 
      7 OG         98.4000   91.1000  101.5200 O.3       1 SER1        0.0000 
      8 OG         99.0700   91.8000  100.3800 O.3       1 SER1        0.0000 
      9 OG         97.4000   92.2100  101.6200 O.3       1 SER1        0.0000 
     10 OG         98.0800   92.9200  100.4800 O.3       1 SER1        0.0000 
     11 OG         95.7300   92.6300  102.8600 O.3       1 SER1        0.0000 
     12 OG        101.2900   89.5800  102.2900 O.3       1 SER1        0.0000 
     13 OG        100.2900   90.6900  102.3900 O.3       1 SER1        0.0000 
     14 OG         99.2900   91.8100  102.4900 O.3       1 SER1        0.0000 
     15 N          94.5900   88.2400   95.5300 N.am      2 ALA2        0.0000 
     16 N          96.4800   87.8300   96.4000 N.am      2 ALA2        0.0000 
     17 N          94.8100   88.2500   97.6400 N.am      2 ALA2        0.0000 
     18 N          95.4900   88.9500   96.5000 N.am      2 ALA2        0.0000 
     19 N          94.4900   90.0700   96.6000 N.am      2 ALA2        0.0000 
     20 N          97.3800   88.5400   97.3700 N.am      2 ALA2        0.0000 
     21 N          95.7100   88.9600   98.6100 N.am      2 ALA2        0.0000 
     22 N          95.3900   90.7800   97.5700 N.am      2 ALA2        0.0000 
     23 N          98.2700   89.2600   98.3400 N.am      2 ALA2        0.0000 
     24 N          96.6000   89.6700   99.5800 N.am      2 ALA2        0.0000 
     25 N          97.2800   90.3700   98.4400 N.am      2 ALA2        0.0000 
     26 N          96.2800   91.4900   98.5400 N.am      2 ALA2        0.0000 
     27 N          98.1800   91.0900   99.4100 N.am      2 ALA2        0.0000 
     28 O          95.2800   91.9400  106.1100 O.2       2 ALA2        0.0000 
     29 O          96.6300   93.3400  103.8300 O.2       2 ALA2        0.0000 
     30 O          94.9600   93.7600  105.0700 O.2       2 ALA2        0.0000 
     31 O          95.8500   94.4700  106.0400 O.2       2 ALA2        0.0000 
     32 O          94.8600   95.5900  106.1400 O.2       2 ALA2        0.0000 
     33 OD1        93.5900   88.6800  103.1000 O.co2     3 ASP3        0.0000 
     34 OD1        94.2600   89.3800  101.9600 O.co2     3 ASP3        0.0000 
     35 OD1        94.1600   91.2100  103.0300 O.co2     3 ASP3        0.0000 
     36 OD1        95.0600   91.9300  104.0000 O.co2     3 ASP3        0.0000 
     37 OD1        93.3900   92.3400  105.2400 O.co2     3 ASP3        0.0000 
     38 OD1        94.0600   93.0400  104.1000 O.co2     3 ASP3        0.0000 
     39 OD1        94.7400   93.7500  102.9600 O.co2     3 ASP3        0.0000 
     40 OD1        94.2800   93.0500  106.2100 O.co2     3 ASP3        0.0000 
     41 OD1        93.2900   94.1700  106.3100 O.co2     3 ASP3        0.0000 
     42 OD1        93.9600   94.8700  105.1700 O.co2     3 ASP3        0.0000 
     43 OD1        95.1800   93.7700  107.1800 O.co2     3 ASP3        0.0000 
     44 OD1        94.1800   94.8900  107.2800 O.co2     3 ASP3        0.0000 
     45 OD1        93.1900   96.0000  107.3800 O.co2     3 ASP3        0.0000 
     46 OD1        93.8600   96.7000  106.2300 O.co2     3 ASP3        0.0000 
     47 OD1        93.4100   96.0100  109.4900 O.co2     3 ASP3        0.0000 
     48 OD1        94.0800   96.7200  108.3400 O.co2     3 ASP3        0.0000 
     49 NZ         92.9200   88.6500   96.7700 N.4       4 LYS4        0.0000 
     50 NZ         93.5900   89.3500   95.6300 N.4       4 LYS4        0.0000 
     51 NZ         98.4700   85.6000   96.2000 N.4       4 LYS4        0.0000 
     52 NZ         96.8000   86.0100   97.4400 N.4       4 LYS4        0.0000 
     53 NZ         93.8200   89.3600   97.7400 N.4       4 LYS4        0.0000 
     54 NZ         92.8200   90.4800   97.8400 N.4       4 LYS4        0.0000 
     55 NZ         98.3700   87.4300   97.2700 N.4       4 LYS4        0.0000 
     56 NZ         93.3600   88.6700  100.9900 N.4       4 LYS4        0.0000 
     57 NZ         94.0400   89.3700   99.8500 N.4       4 LYS4        0.0000 
     58 NZ         94.7100   90.0800   98.7100 N.4       4 LYS4        0.0000 
     59 NZ         93.7200   91.1900   98.8100 N.4       4 LYS4        0.0000 
     60 NZ         99.2700   88.1400   98.2400 N.4       4 LYS4        0.0000 
     61 NZ         94.9300   90.0900  100.8200 N.4       4 LYS4        0.0000 
     62 NZ         93.9400   91.2000  100.9200 N.4       4 LYS4        0.0000 
     63 CZ         95.4600   84.6100   99.7300 C.ar      5 PHE5        0.0000 
     64 CZ         96.1300   85.3100   98.5900 C.ar      5 PHE5        0.0000 
     65 CZ         97.4800   86.7100   96.3000 C.ar      5 PHE5        0.0000 
     66 CZ         94.4600   85.7200   99.8300 C.ar      5 PHE5        0.0000 
     67 CZ         95.1300   86.4300   98.6900 C.ar      5 PHE5        0.0000 
     68 CZ         93.4600   86.8400   99.9300 C.ar      5 PHE5        0.0000 
     69 CZ         97.7000   86.7200   98.4100 C.ar      5 PHE5        0.0000 
     70 CZ         96.0300   87.1400   99.6500 C.ar      5 PHE5        0.0000 
     71 CZ         96.7000   87.8400   98.5100 C.ar      5 PHE5        0.0000 
     72 CZ         94.3600   87.5500  100.8900 C.ar      5 PHE5        0.0000 
     73 CZ         95.0300   88.2600   99.7500 C.ar      5 PHE5        0.0000 
     74 CZ         97.6000   88.5500   99.4800 C.ar      5 PHE5        0.0000 
     75 CZ         95.2600   88.2700  101.8600 C.ar      5 PHE5        0.0000 
     76 CZ         95.9300   88.9700  100.7200 C.ar      5 PHE5        0.0000 
     77 CZ        100.1700   88.8500   99.2100 C.ar      5 PHE5        0.0000 
     78 CZ         98.5000   89.2700  100.4500 C.ar      5 PHE5        0.0000 
     79 CZ         99.1700   89.9700   99.3100 C.ar      5 PHE5        0.0000 
     80 CZ         99.8500   90.6700   98.1700 C.ar      5 PHE5        0.0000 
     81 CZ         96.8300   89.6800  101.6900 C.ar      5 PHE5        0.0000 
     82 CZ         97.5000   90.3800  100.5500 C.ar      5 PHE5        0.0000 
     83 CZ        100.3900   88.8600  101.3200 C.ar      5 PHE5        0.0000 
     84 CZ        101.0600   89.5700  100.1800 C.ar      5 PHE5        0.0000 
     85 CZ         99.3900   89.9800  101.4200 C.ar      5 PHE5        0.0000 
     86 CA         92.2500   87.9500   97.9200 C.3       6 GLY6        0.0000 
     87 CA         91.9200   89.7700   96.8700 C.3       6 GLY6        0.0000 
     88 CA         92.4700   87.9600  100.0300 C.3       6 GLY6        0.0000 
     89 CA         93.1400   88.6600   98.8800 C.3       6 GLY6        0.0000 
     90 CA         98.8500   91.7900   98.2700 C.3       6 GLY6        0.0000 
     91 CA         95.1600   90.1000  102.9300 C.3       6 GLY6        0.0000 
     92 CA         95.8300   90.8000  101.7900 C.3       6 GLY6        0.0000 
     93 CA         97.7200   90.4000  102.6600 C.3       6 GLY6        0.0000 
     94 CA         96.0500   90.8100  103.9000 C.3       6 GLY6        0.0000 
     95 CA         96.7300   91.5100  102.7600 C.3       6 GLY6        0.0000 
     96 CA         95.9500   92.6400  104.9700 C.3       6 GLY6        0.0000 
     97 CA         95.6300   94.4600  103.9300 C.3       6 GLY6        0.0000 
     98 CA         94.4100   94.9000  109.3900 C.3       6 GLY6        0.0000 
     99 DU         93.9200   87.5300   96.6800 H         7 CUB7        0.0000 
    100 DU         95.8100   87.1300   97.5400 H         7 CUB7        0.0000 
    101 DU         94.1400   87.5400   98.7800 H         7 CUB7        0.0000 
@<TRIPOS>BOND
@<TRIPOS>SUBSTRUCTURE
     1 SER1        1 GROUP   
     2 ALA2       15 GROUP   
     3 ASP3       33 GROUP   
     4 LYS4       49 GROUP   
     5 PHE5       63 GROUP   
     6 GLY6       86 GROUP   
     7 CUB7       99 GROUP   
@<TRIPOS>SET

