#    Name: 6hz4_4_GDP
#    Modification time : Fri May 22 19:36:25 2020

@<TRIPOS>MOLECULE
6hz4_4_GDP
   40    42     1     0     1
SMALL
NO_CHARGES


@<TRIPOS>ATOM
      1 PB         71.3530  140.0900  145.7810 P.3       1 GDP1001     0.0000 
      2 O1B        72.7380  140.1130  145.2690 O.co2     1 GDP1001     0.0000 
      3 O2B        70.7070  138.8460  145.3270 O.co2     1 GDP1001     0.0000 
      4 O3B        70.5820  141.2420  145.2920 O.co2     1 GDP1001     0.0000 
      5 O3A        71.3910  140.1670  147.3590 O.3       1 GDP1001     0.0000 
      6 PA         70.3490  139.3380  148.2110 P.3       1 GDP1001     0.0000 
      7 O1A        69.1360  139.0700  147.4180 O.co2     1 GDP1001     0.0000 
      8 O2A        70.9690  138.0560  148.6060 O.co2     1 GDP1001     0.0000 
      9 O5'        69.9390  140.1990  149.4860 O.3       1 GDP1001     0.0000 
     10 C5'        70.5160  139.8760  150.7380 C.3       1 GDP1001     0.0000 
     11 C4'        69.8760  140.5510  151.9700 C.3       1 GDP1001     0.0000 
     12 O4'        69.9810  142.0160  151.7620 O.3       1 GDP1001     0.0000 
     13 C3'        68.3850  140.2870  152.1090 C.3       1 GDP1001     0.0000 
     14 O3'        68.0130  140.3770  153.4810 O.3       1 GDP1001     0.0000 
     15 C2'        67.8480  141.4580  151.3460 C.3       1 GDP1001     0.0000 
     16 O2'        66.4770  141.6640  151.5970 O.3       1 GDP1001     0.0000 
     17 C1'        68.6670  142.5620  151.9830 C.3       1 GDP1001     0.0000 
     18 N9         68.4690  143.8480  151.2720 N.pl3     1 GDP1001     0.0000 
     19 C8         68.9880  143.9540  150.0650 C.2       1 GDP1001     0.0000 
     20 N7         68.7110  145.1480  149.5760 N.2       1 GDP1001     0.0000 
     21 C5         67.9950  145.7850  150.4760 C.2       1 GDP1001     0.0000 
     22 C6         67.4810  146.9980  150.4300 C.2       1 GDP1001     0.0000 
     23 O6         67.6550  147.7100  149.4460 O.2       1 GDP1001     0.0000 
     24 N1         66.7680  147.4740  151.5130 N.am      1 GDP1001     0.0000 
     25 C2         66.6070  146.6440  152.6040 C.2       1 GDP1001     0.0000 
     26 N2         65.9200  147.1000  153.6310 N.pl3     1 GDP1001     0.0000 
     27 N3         67.1410  145.4160  152.6000 N.2       1 GDP1001     0.0000 
     28 C4         67.8400  144.9930  151.5370 C.2       1 GDP1001     0.0000 
     29 H5'        71.5560  140.1620  150.6780 H         1 GDP1001     0.0000 
     30 H5''       70.4330  138.8070  150.8780 H         1 GDP1001     0.0000 
     31 H4'        70.3750  140.1750  152.8430 H         1 GDP1001     0.0000 
     32 H3'        68.0860  139.3250  151.7120 H         1 GDP1001     0.0000 
     33 HO3'       67.0250  140.2800  153.5580 H         1 GDP1001     0.0000 
     34 H2'        68.0830  141.3570  150.3210 H         1 GDP1001     0.0000 
     35 HO2'       66.3230  141.7590  152.5690 H         1 GDP1001     0.0000 
     36 H1'        68.4560  142.6480  153.0380 H         1 GDP1001     0.0000 
     37 H8         69.5640  143.1760  149.5800 H         1 GDP1001     0.0000 
     38 HN1        66.3700  148.3910  151.5120 H         1 GDP1001     0.0000 
     39 HN21       65.5630  148.0280  153.5550 H         1 GDP1001     0.0000 
     40 HN22       65.7710  146.5430  154.4460 H         1 GDP1001     0.0000 
@<TRIPOS>BOND
     1    1    2 ar   
     2    1    3 ar   
     3    1    4 ar   
     4    1    5 1    
     5    5    6 1    
     6    6    7 ar   
     7    6    8 ar   
     8    6    9 1    
     9    9   10 1    
    10   10   11 1    
    11   10   29 1    
    12   10   30 1    
    13   11   12 1    
    14   11   13 1    
    15   11   31 1    
    16   12   17 1    
    17   13   14 1    
    18   13   15 1    
    19   13   32 1    
    20   14   33 1    
    21   15   16 1    
    22   15   17 1    
    23   15   34 1    
    24   16   35 1    
    25   17   18 1    
    26   17   36 1    
    27   18   19 1    
    28   18   28 1    
    29   19   20 2    
    30   19   37 1    
    31   20   21 1    
    32   21   22 1    
    33   21   28 2    
    34   22   23 2    
    35   22   24 am   
    36   24   25 1    
    37   24   38 1    
    38   25   26 1    
    39   25   27 2    
    40   26   39 1    
    41   26   40 1    
    42   27   28 1    
@<TRIPOS>SUBSTRUCTURE
     1 GDP1001     1 GROUP   
@<TRIPOS>SET
ATOM$ORANGE STATIC     ATOMS   COLORGROUP SYSTEM 
20 10 10 11 11 13 13 15 15 17 17 19 19 21 21 22 22 25 \
25 28 28 

