#    Name: 6hz4_5_GDP
#    Modification time : Fri May 22 19:36:32 2020

@<TRIPOS>MOLECULE
6hz4_5_GDP
   40    42     1     0     1
SMALL
NO_CHARGES


@<TRIPOS>ATOM
      1 PB         93.2710  114.9390  156.4770 P.3       1 GDP1001     0.0000 
      2 O1B        93.5620  113.7180  155.6950 O.co2     1 GDP1001     0.0000 
      3 O2B        94.0690  116.0710  155.9620 O.co2     1 GDP1001     0.0000 
      4 O3B        91.8350  115.2730  156.3850 O.co2     1 GDP1001     0.0000 
      5 O3A        93.6530  114.6730  157.9990 O.3       1 GDP1001     0.0000 
      6 PA         93.5510  115.8870  159.0200 P.3       1 GDP1001     0.0000 
      7 O1A        94.3090  117.0390  158.4900 O.co2     1 GDP1001     0.0000 
      8 O2A        92.1410  116.2750  159.2030 O.co2     1 GDP1001     0.0000 
      9 O5'        94.1780  115.4450  160.4210 O.3       1 GDP1001     0.0000 
     10 C5'        93.4080  114.6630  161.3250 C.3       1 GDP1001     0.0000 
     11 C4'        94.3730  113.9550  162.2890 C.3       1 GDP1001     0.0000 
     12 O4'        95.2300  114.9540  162.9650 O.3       1 GDP1001     0.0000 
     13 C3'        93.7010  113.2270  163.4410 C.3       1 GDP1001     0.0000 
     14 O3'        94.6330  112.2930  164.0210 O.3       1 GDP1001     0.0000 
     15 C2'        93.4380  114.3780  164.3640 C.3       1 GDP1001     0.0000 
     16 O2'        93.0360  113.9310  165.6580 O.3       1 GDP1001     0.0000 
     17 C1'        94.8220  115.0060  164.3810 C.3       1 GDP1001     0.0000 
     18 N9         94.7690  116.3520  164.9750 N.pl3     1 GDP1001     0.0000 
     19 C8         94.7170  117.5580  164.4380 C.2       1 GDP1001     0.0000 
     20 N7         94.6600  118.4460  165.4270 N.2       1 GDP1001     0.0000 
     21 C5         94.6650  117.7790  166.5760 C.2       1 GDP1001     0.0000 
     22 C6         94.6210  118.1820  167.8410 C.2       1 GDP1001     0.0000 
     23 O6         94.5660  119.3780  168.1160 O.2       1 GDP1001     0.0000 
     24 N1         94.6420  117.2340  168.8700 N.am      1 GDP1001     0.0000 
     25 C2         94.7080  115.8830  168.5320 C.2       1 GDP1001     0.0000 
     26 N2         94.7310  114.9210  169.4500 N.pl3     1 GDP1001     0.0000 
     27 N3         94.7450  115.5530  167.2430 N.2       1 GDP1001     0.0000 
     28 C4         94.7280  116.4850  166.2880 C.2       1 GDP1001     0.0000 
     29 H5'        92.8570  113.9150  160.7620 H         1 GDP1001     0.0000 
     30 H5''       92.7040  115.3090  161.7980 H         1 GDP1001     0.0000 
     31 H4'        94.9190  113.2560  161.6710 H         1 GDP1001     0.0000 
     32 H3'        92.7980  112.7080  163.1440 H         1 GDP1001     0.0000 
     33 HO3'       95.5770  112.5980  163.9220 H         1 GDP1001     0.0000 
     34 H2'        92.7270  115.0610  163.9680 H         1 GDP1001     0.0000 
     35 HO2'       93.7240  113.3010  166.0120 H         1 GDP1001     0.0000 
     36 H1'        95.5040  114.3950  164.9550 H         1 GDP1001     0.0000 
     37 H8         94.7360  117.7730  163.3810 H         1 GDP1001     0.0000 
     38 HN1        94.6100  117.5190  169.8270 H         1 GDP1001     0.0000 
     39 HN21       94.6960  115.1440  170.4220 H         1 GDP1001     0.0000 
     40 HN22       94.7880  113.9660  169.1570 H         1 GDP1001     0.0000 
@<TRIPOS>BOND
     1    1    2 ar   
     2    1    3 ar   
     3    1    4 ar   
     4    1    5 1    
     5    5    6 1    
     6    6    7 ar   
     7    6    8 ar   
     8    6    9 1    
     9    9   10 1    
    10   10   11 1    
    11   10   29 1    
    12   10   30 1    
    13   11   12 1    
    14   11   13 1    
    15   11   31 1    
    16   12   17 1    
    17   13   14 1    
    18   13   15 1    
    19   13   32 1    
    20   14   33 1    
    21   15   16 1    
    22   15   17 1    
    23   15   34 1    
    24   16   35 1    
    25   17   18 1    
    26   17   36 1    
    27   18   19 1    
    28   18   28 1    
    29   19   20 2    
    30   19   37 1    
    31   20   21 1    
    32   21   22 1    
    33   21   28 2    
    34   22   23 2    
    35   22   24 am   
    36   24   25 1    
    37   24   38 1    
    38   25   26 1    
    39   25   27 2    
    40   26   39 1    
    41   26   40 1    
    42   27   28 1    
@<TRIPOS>SUBSTRUCTURE
     1 GDP1001     1 GROUP   
@<TRIPOS>SET
ATOM$ORANGE STATIC     ATOMS   COLORGROUP SYSTEM 
20 10 10 11 11 13 13 15 15 17 17 19 19 21 21 22 22 25 \
25 28 28 

