#    Name: 6hz4_2_GNP
#    Modification time : Fri May 22 19:36:12 2020

@<TRIPOS>MOLECULE
6hz4_2_GNP
   45    47     1     0     1
SMALL
NO_CHARGES


@<TRIPOS>ATOM
      1 PG         73.8790  116.4740   98.0420 P.3       1 GNP1001     0.0000 
      2 O1G        75.3430  116.5700   98.0870 O.co2     1 GNP1001     0.0000 
      3 O2G        73.2850  117.6750   98.6600 O.co2     1 GNP1001     0.0000 
      4 O3G        73.4870  115.2540   98.7690 O.co2     1 GNP1001     0.0000 
      5 N3B        73.3350  116.3270   96.6020 N.3       1 GNP1001     0.0000 
      6 PB         73.9770  115.4520   95.6310 P.3       1 GNP1001     0.0000 
      7 O1B        75.4410  115.5290   95.7110 O.co2     1 GNP1001     0.0000 
      8 O2B        73.4790  114.0910   95.8920 O.co2     1 GNP1001     0.0000 
      9 O3A        73.4700  115.9550   94.2150 O.3       1 GNP1001     0.0000 
     10 PA         72.1880  115.2010   93.6780 P.3       1 GNP1001     0.0000 
     11 O1A        72.5340  113.8470   93.2260 O.co2     1 GNP1001     0.0000 
     12 O2A        71.2420  115.0620   94.7930 O.co2     1 GNP1001     0.0000 
     13 O5'        71.5350  115.9810   92.4680 O.3       1 GNP1001     0.0000 
     14 C5'        70.7010  117.0680   92.7760 C.3       1 GNP1001     0.0000 
     15 C4'        69.8120  117.6330   91.6520 C.3       1 GNP1001     0.0000 
     16 O4'        70.5850  117.9240   90.4400 O.3       1 GNP1001     0.0000 
     17 C3'        68.7470  116.6620   91.2100 C.3       1 GNP1001     0.0000 
     18 O3'        67.6690  117.3700   90.6200 O.3       1 GNP1001     0.0000 
     19 C2'        69.4690  115.9000   90.1800 C.3       1 GNP1001     0.0000 
     20 O2'        68.5920  115.0890   89.3920 O.3       1 GNP1001     0.0000 
     21 C1'        70.0330  117.0740   89.3990 C.3       1 GNP1001     0.0000 
     22 N9         70.9770  116.5870   88.3910 N.pl3     1 GNP1001     0.0000 
     23 C8         72.2780  116.3770   88.4520 C.2       1 GNP1001     0.0000 
     24 N7         72.6840  115.9200   87.2800 N.2       1 GNP1001     0.0000 
     25 C5         71.6200  115.8420   86.4980 C.2       1 GNP1001     0.0000 
     26 C6         71.4880  115.4550   85.2430 C.2       1 GNP1001     0.0000 
     27 O6         72.4680  115.0730   84.6140 O.2       1 GNP1001     0.0000 
     28 N1         70.2350  115.4750   84.6360 N.am      1 GNP1001     0.0000 
     29 C2         69.1510  115.9090   85.3700 C.2       1 GNP1001     0.0000 
     30 N2         67.9430  115.9300   84.8350 N.pl3     1 GNP1001     0.0000 
     31 N3         69.3450  116.2860   86.6330 N.2       1 GNP1001     0.0000 
     32 C4         70.5650  116.2530   87.1830 C.2       1 GNP1001     0.0000 
     33 HNB3       72.5050  116.7820   96.3320 H         1 GNP1001     0.0000 
     34 H5'2       71.3620  117.8460   93.1150 H         1 GNP1001     0.0000 
     35 H5'1       70.0480  116.7700   93.5750 H         1 GNP1001     0.0000 
     36 H4'        69.3230  118.4930   92.0720 H         1 GNP1001     0.0000 
     37 H3'        68.3850  116.0650   92.0260 H         1 GNP1001     0.0000 
     38 HO3'       67.0020  116.7110   90.2890 H         1 GNP1001     0.0000 
     39 H2'        70.2500  115.3300   90.6060 H         1 GNP1001     0.0000 
     40 HO2'       67.8830  115.6500   88.9950 H         1 GNP1001     0.0000 
     41 H1'        69.2670  117.6340   88.9000 H         1 GNP1001     0.0000 
     42 H8         72.9150  116.5490   89.2960 H         1 GNP1001     0.0000 
     43 HN1        70.1150  115.1820   83.6920 H         1 GNP1001     0.0000 
     44 HN21       67.8270  115.6110   83.8990 H         1 GNP1001     0.0000 
     45 HN22       67.1550  116.2480   85.3600 H         1 GNP1001     0.0000 
@<TRIPOS>BOND
     1    1    2 ar   
     2    1    3 ar   
     3    1    4 ar   
     4    1    5 1    
     5    5    6 1    
     6    5   33 1    
     7    6    7 ar   
     8    6    8 ar   
     9    6    9 1    
    10    9   10 1    
    11   10   11 ar   
    12   10   12 ar   
    13   10   13 1    
    14   13   14 1    
    15   14   15 1    
    16   14   34 1    
    17   14   35 1    
    18   15   16 1    
    19   15   17 1    
    20   15   36 1    
    21   16   21 1    
    22   17   18 1    
    23   17   19 1    
    24   17   37 1    
    25   18   38 1    
    26   19   20 1    
    27   19   21 1    
    28   19   39 1    
    29   20   40 1    
    30   21   22 1    
    31   21   41 1    
    32   22   23 1    
    33   22   32 1    
    34   23   24 2    
    35   23   42 1    
    36   24   25 1    
    37   25   26 1    
    38   25   32 2    
    39   26   27 2    
    40   26   28 am   
    41   28   29 1    
    42   28   43 1    
    43   29   30 1    
    44   29   31 2    
    45   30   44 1    
    46   30   45 1    
    47   31   32 1    
@<TRIPOS>SUBSTRUCTURE
     1 GNP1001     1 GROUP   
@<TRIPOS>SET
ATOM$ORANGE STATIC     ATOMS   COLORGROUP SYSTEM 
20 14 14 15 15 17 17 19 19 21 21 23 23 25 25 26 26 29 \
29 32 32 

