#    Name: 6hz4_5_GDP_CAVITY_N1_4
#    Modification time : Fri May 22 19:36:33 2020

@<TRIPOS>MOLECULE
6hz4_5_GDP_CAVITY_N1_4
  150     0     7     0     0
SMALL
NO_CHARGES


@<TRIPOS>ATOM
      1 OG         90.9600  115.7200  157.6400 O.3       1 SER1        0.0000 
      2 OG         95.1700  111.2700  159.3500 O.3       1 SER1        0.0000 
      3 OG         96.0600  111.9800  160.3200 O.3       1 SER1        0.0000 
      4 OG         96.7400  112.6800  159.1800 O.3       1 SER1        0.0000 
      5 OG         97.4100  113.3800  158.0400 O.3       1 SER1        0.0000 
      6 OG         95.0700  113.1000  160.4200 O.3       1 SER1        0.0000 
      7 OG         95.7400  113.8000  159.2800 O.3       1 SER1        0.0000 
      8 OG         94.0700  114.2100  160.5200 O.3       1 SER1        0.0000 
      9 OG         94.7400  114.9200  159.3800 O.3       1 SER1        0.0000 
     10 OG         95.2900  113.1100  162.5300 O.3       1 SER1        0.0000 
     11 OG         94.2900  114.2200  162.6300 O.3       1 SER1        0.0000 
     12 OG         95.1900  114.9400  163.6000 O.3       1 SER1        0.0000 
     13 OG         96.0900  115.6500  164.5700 O.3       1 SER1        0.0000 
     14 OG         94.9900  118.6000  165.7300 O.3       1 SER1        0.0000 
     15 OG         93.9900  119.7100  165.8300 O.3       1 SER1        0.0000 
     16 N          96.2900  112.6600  154.9600 N.am      2 ALA2        0.0000 
     17 N          96.9700  113.3600  153.8200 N.am      2 ALA2        0.0000 
     18 N          95.3000  113.7800  155.0600 N.am      2 ALA2        0.0000 
     19 O          94.3000  114.8900  155.1600 O.2       2 ALA2        0.0000 
     20 O          95.5200  113.7900  157.1700 O.2       2 ALA2        0.0000 
     21 O          96.1900  114.4900  156.0300 O.2       2 ALA2        0.0000 
     22 O          94.5200  114.9000  157.2700 O.2       2 ALA2        0.0000 
     23 O          94.2000  116.7200  156.2300 O.2       2 ALA2        0.0000 
     24 O          89.8300  114.3300  162.0300 O.2       2 ALA2        0.0000 
     25 O          91.1800  115.7300  159.7500 O.2       2 ALA2        0.0000 
     26 O          91.8600  116.4400  158.6100 O.2       2 ALA2        0.0000 
     27 N          95.3900  111.2800  161.4600 N.am      2 ALA2        0.0000 
     28 O          93.7500  116.0300  159.4800 O.2       2 ALA2        0.0000 
     29 O          94.4200  116.7300  158.3400 O.2       2 ALA2        0.0000 
     30 O          91.4000  115.7400  161.8600 O.2       2 ALA2        0.0000 
     31 N          95.6100  111.2900  163.5700 N.am      2 ALA2        0.0000 
     32 N          96.2800  111.9900  162.4300 N.am      2 ALA2        0.0000 
     33 N          94.6100  112.4000  163.6700 N.am      2 ALA2        0.0000 
     34 N          95.5100  113.1200  164.6400 N.am      2 ALA2        0.0000 
     35 N          92.2000  118.2900  163.9000 N.am      2 ALA2        0.0000 
     36 N          94.7400  114.2400  166.8500 N.am      2 ALA2        0.0000 
     37 N          95.4100  114.9500  165.7100 N.am      2 ALA2        0.0000 
     38 N          93.7700  119.7000  163.7200 N.am      2 ALA2        0.0000 
     39 N          94.9600  114.2500  168.9600 N.am      2 ALA2        0.0000 
     40 N          95.6300  114.9600  167.8200 N.am      2 ALA2        0.0000 
     41 N          96.3100  115.6600  166.6800 N.am      2 ALA2        0.0000 
     42 N          93.6700  121.5300  164.7900 N.am      2 ALA2        0.0000 
     43 N          96.1800  113.1500  170.9700 N.am      2 ALA2        0.0000 
     44 N          95.8600  114.9700  169.9300 N.am      2 ALA2        0.0000 
     45 N          96.5300  115.6700  168.7900 N.am      2 ALA2        0.0000 
     46 N          93.8600  117.2000  170.1300 N.am      2 ALA2        0.0000 
     47 N          94.5400  117.9000  168.9900 N.am      2 ALA2        0.0000 
     48 OD1        92.7300  113.4800  155.3300 O.co2     3 ASP3        0.0000 
     49 OD1        93.4000  114.1800  154.1900 O.co2     3 ASP3        0.0000 
     50 OD1        92.4100  115.3000  154.2900 O.co2     3 ASP3        0.0000 
     51 OD1        93.0800  116.0000  153.1500 O.co2     3 ASP3        0.0000 
     52 OD1        91.4100  116.4200  154.3900 O.co2     3 ASP3        0.0000 
     53 OD1        92.2800  112.7900  158.5800 O.co2     3 ASP3        0.0000 
     54 OD1        91.9600  114.6100  157.5400 O.co2     3 ASP3        0.0000 
     55 OD1        92.6300  115.3100  156.4000 O.co2     3 ASP3        0.0000 
     56 OD1        93.3000  116.0100  155.2600 O.co2     3 ASP3        0.0000 
     57 OD1        91.6300  116.4300  156.5000 O.co2     3 ASP3        0.0000 
     58 OD1        93.1700  113.5000  159.5500 O.co2     3 ASP3        0.0000 
     59 OD1        92.1800  114.6200  159.6500 O.co2     3 ASP3        0.0000 
     60 OD1        92.5300  117.1400  157.4700 O.co2     3 ASP3        0.0000 
     61 NZ         94.9400  111.2500  157.2400 N.4       4 LYS4        0.0000 
     62 NZ         95.6200  111.9600  156.1000 N.4       4 LYS4        0.0000 
     63 NZ         93.2700  111.6700  158.4800 N.4       4 LYS4        0.0000 
     64 NZ         93.9500  112.3700  157.3400 N.4       4 LYS4        0.0000 
     65 NZ         94.6200  113.0700  156.2000 N.4       4 LYS4        0.0000 
     66 NZ         92.9500  113.4900  157.4400 N.4       4 LYS4        0.0000 
     67 NZ         93.6300  114.1900  156.3000 N.4       4 LYS4        0.0000 
     68 NZ         93.5000  111.6800  160.5900 N.4       4 LYS4        0.0000 
     69 NZ         92.5000  112.8000  160.6900 N.4       4 LYS4        0.0000 
     70 NZ         90.8300  113.2100  161.9300 N.4       4 LYS4        0.0000 
     71 NZ         91.5000  113.9100  160.7900 N.4       4 LYS4        0.0000 
     72 NZ         94.7100  110.5700  162.6000 N.4       4 LYS4        0.0000 
     73 NZ         93.7200  111.6900  162.7000 N.4       4 LYS4        0.0000 
     74 NZ         94.3900  112.3900  161.5600 N.4       4 LYS4        0.0000 
     75 NZ         92.7200  112.8100  162.8000 N.4       4 LYS4        0.0000 
     76 NZ         93.4000  113.5100  161.6600 N.4       4 LYS4        0.0000 
     77 NZ         91.0500  113.2200  164.0400 N.4       4 LYS4        0.0000 
     78 NZ         91.7300  113.9200  162.9000 N.4       4 LYS4        0.0000 
     79 NZ         92.9400  112.8200  164.9100 N.4       4 LYS4        0.0000 
     80 NZ         93.6200  113.5200  163.7700 N.4       4 LYS4        0.0000 
     81 NZ         92.5100  115.8000  172.4100 N.4       4 LYS4        0.0000 
     82 CZ         95.7100  109.4600  162.5000 C.ar      5 PHE5        0.0000 
     83 CZ         96.3800  110.1600  161.3600 C.ar      5 PHE5        0.0000 
     84 CZ         91.2700  113.2300  166.1500 C.ar      5 PHE5        0.0000 
     85 CZ         91.9500  113.9400  165.0100 C.ar      5 PHE5        0.0000 
     86 CZ         92.8400  114.6500  165.9800 C.ar      5 PHE5        0.0000 
     87 CZ         93.0700  114.6600  168.0900 C.ar      5 PHE5        0.0000 
     88 CZ         93.7400  115.3600  166.9500 C.ar      5 PHE5        0.0000 
     89 CZ         95.7600  117.4700  163.5300 C.ar      5 PHE5        0.0000 
     90 CZ         93.4200  117.1800  165.9100 C.ar      5 PHE5        0.0000 
     91 CZ         93.1000  119.0000  164.8700 C.ar      5 PHE5        0.0000 
     92 CZ         93.2900  114.6700  170.2000 C.ar      5 PHE5        0.0000 
     93 CZ         93.9600  115.3700  169.0600 C.ar      5 PHE5        0.0000 
     94 CZ         95.3100  116.7800  166.7800 C.ar      5 PHE5        0.0000 
     95 CZ         95.9900  117.4800  165.6400 C.ar      5 PHE5        0.0000 
     96 CZ         92.2900  115.7900  170.3000 C.ar      5 PHE5        0.0000 
     97 CZ         92.9700  116.4900  169.1600 C.ar      5 PHE5        0.0000 
     98 CZ         93.6400  117.1900  168.0200 C.ar      5 PHE5        0.0000 
     99 CZ         94.3200  117.8900  166.8800 C.ar      5 PHE5        0.0000 
    100 CZ         93.3200  119.0100  166.9700 C.ar      5 PHE5        0.0000 
    101 CZ         95.1800  114.2600  171.0700 C.ar      5 PHE5        0.0000 
    102 CZ         97.8800  117.0700  166.5000 C.ar      5 PHE5        0.0000 
    103 CZ         95.5300  116.7900  168.8900 C.ar      5 PHE5        0.0000 
    104 CZ         95.2100  118.6100  167.8400 C.ar      5 PHE5        0.0000 
    105 CZ         94.8900  120.4300  166.8000 C.ar      5 PHE5        0.0000 
    106 CZ         96.0800  114.9800  172.0400 C.ar      5 PHE5        0.0000 
    107 CZ         95.0800  116.0900  172.1400 C.ar      5 PHE5        0.0000 
    108 CA         94.4000  113.0600  154.0900 C.3       6 GLY6        0.0000 
    109 CA         94.0800  114.8800  153.0500 C.3       6 GLY6        0.0000 
    110 CA         95.9700  114.4800  153.9200 C.3       6 GLY6        0.0000 
    111 CA         94.9700  115.6000  154.0200 C.3       6 GLY6        0.0000 
    112 CA         93.9800  116.7100  154.1200 C.3       6 GLY6        0.0000 
    113 CA         94.4900  110.5600  160.4900 C.3       6 GLY6        0.0000 
    114 CA         96.8700  115.1900  154.8900 C.3       6 GLY6        0.0000 
    115 CA         90.5100  115.0300  160.8900 C.3       6 GLY6        0.0000 
    116 CA         96.4100  114.5000  158.1400 C.3       6 GLY6        0.0000 
    117 CA         95.4200  115.6200  158.2400 C.3       6 GLY6        0.0000 
    118 CA         92.4000  114.6300  161.7600 C.3       6 GLY6        0.0000 
    119 CA         93.0700  115.3300  160.6200 C.3       6 GLY6        0.0000 
    120 CA         92.6200  114.6400  163.8700 C.3       6 GLY6        0.0000 
    121 CA         93.3000  115.3400  162.7300 C.3       6 GLY6        0.0000 
    122 CA         93.9700  116.0400  161.5900 C.3       6 GLY6        0.0000 
    123 CA         92.3000  116.4600  162.8300 C.3       6 GLY6        0.0000 
    124 CA         93.5200  115.3500  164.8400 C.3       6 GLY6        0.0000 
    125 CA         94.1900  116.0500  163.7000 C.3       6 GLY6        0.0000 
    126 CA         94.8700  116.7600  162.5600 C.3       6 GLY6        0.0000 
    127 CA         93.2000  117.1700  163.8000 C.3       6 GLY6        0.0000 
    128 CA         94.0900  117.8800  164.7700 C.3       6 GLY6        0.0000 
    129 CA         94.7700  118.5900  163.6200 C.3       6 GLY6        0.0000 
    130 CA         92.1000  120.1200  164.9600 C.3       6 GLY6        0.0000 
    131 CA         92.7800  120.8200  163.8200 C.3       6 GLY6        0.0000 
    132 CA         96.9800  116.3600  165.5400 C.3       6 GLY6        0.0000 
    133 CA         93.0000  120.8300  165.9300 C.3       6 GLY6        0.0000 
    134 CA         97.2000  116.3700  167.6500 C.3       6 GLY6        0.0000 
    135 CA         93.1900  116.5000  171.2700 C.3       6 GLY6        0.0000 
    136 CA         94.0900  117.2100  172.2400 C.3       6 GLY6        0.0000 
    137 DU         95.8400  111.9700  158.2100 H         7 CUB7        0.0000 
    138 DU         96.5100  112.6700  157.0700 H         7 CUB7        0.0000 
    139 DU         97.1900  113.3700  155.9300 H         7 CUB7        0.0000 
    140 DU         94.1700  112.3800  159.4500 H         7 CUB7        0.0000 
    141 DU         94.8400  113.0800  158.3100 H         7 CUB7        0.0000 
    142 DU         93.8500  114.2000  158.4100 H         7 CUB7        0.0000 
    143 DU         92.8500  115.3200  158.5100 H         7 CUB7        0.0000 
    144 DU         93.8400  113.5300  165.8800 H         7 CUB7        0.0000 
    145 DU         94.5100  114.2300  164.7400 H         7 CUB7        0.0000 
    146 DU         94.4100  116.0600  165.8100 H         7 CUB7        0.0000 
    147 DU         95.0900  116.7700  164.6700 H         7 CUB7        0.0000 
    148 DU         94.6400  116.0700  167.9200 H         7 CUB7        0.0000 
    149 DU         94.1800  115.3800  171.1700 H         7 CUB7        0.0000 
    150 DU         94.8600  116.0800  170.0300 H         7 CUB7        0.0000 
@<TRIPOS>BOND
@<TRIPOS>SUBSTRUCTURE
     1 SER1        1 GROUP   
     2 ALA2       16 GROUP   
     3 ASP3       48 GROUP   
     4 LYS4       61 GROUP   
     5 PHE5       82 GROUP   
     6 GLY6      108 GROUP   
     7 CUB7      137 GROUP   
@<TRIPOS>SET

