#    Name: 6fu2_1_ATP
#    Modification time : Fri May 22 19:25:45 2020

@<TRIPOS>MOLECULE
6fu2_1_ATP
   31    33     1     0     1
SMALL
NO_CHARGES


@<TRIPOS>ATOM
      1 PG        -20.9120   -5.8680   25.0710 P.3       1 ATP302      0.0000 
      2 O1G       -21.8840   -5.6180   23.9390 O.co2     1 ATP302      0.0000 
      3 O2G       -20.6880   -4.6440   25.9270 O.co2     1 ATP302      0.0000 
      4 O3G       -19.6180   -6.4790   24.5890 O.co2     1 ATP302      0.0000 
      5 PB        -20.9520   -7.8950   27.1990 P.3       1 ATP302      0.0000 
      6 O1B       -21.9940   -8.7600   27.8380 O.co2     1 ATP302      0.0000 
      7 O2B       -20.0930   -7.0190   28.0530 O.co2     1 ATP302      0.0000 
      8 O3B       -21.5870   -6.9750   26.0490 O.3       1 ATP302      0.0000 
      9 PA        -18.4910   -9.2800   26.3910 P.3       1 ATP302      0.0000 
     10 O1A       -17.7710   -8.7760   25.1840 O.co2     1 ATP302      0.0000 
     11 O2A       -17.9530   -8.9220   27.7350 O.co2     1 ATP302      0.0000 
     12 O3A       -20.0230   -8.8340   26.2980 O.3       1 ATP302      0.0000 
     13 O5'       -18.6730  -10.8710   26.2960 O.3       1 ATP302      0.0000 
     14 C5'       -18.7060  -11.5070   24.9900 C.3       1 ATP302      0.0000 
     15 C4'       -19.5680  -12.7450   25.0420 C.3       1 ATP302      0.0000 
     16 O4'       -19.1870  -13.5610   26.1760 O.3       1 ATP302      0.0000 
     17 C3'       -21.0660  -12.5020   25.2340 C.3       1 ATP302      0.0000 
     18 O3'       -21.6840  -12.2610   23.9760 O.3       1 ATP302      0.0000 
     19 C2'       -21.5300  -13.8120   25.8770 C.3       1 ATP302      0.0000 
     20 O2'       -21.8480  -14.8050   24.9260 O.3       1 ATP302      0.0000 
     21 C1'       -20.3150  -14.2160   26.7140 C.3       1 ATP302      0.0000 
     22 N9        -20.4090  -13.8640   28.1380 N.pl3     1 ATP302      0.0000 
     23 C8        -21.0250  -12.7670   28.6910 C.2       1 ATP302      0.0000 
     24 N7        -20.9250  -12.7400   29.9990 N.2       1 ATP302      0.0000 
     25 C5        -20.1980  -13.8770   30.3240 C.ar      1 ATP302      0.0000 
     26 C6        -19.7570  -14.4070   31.5530 C.ar      1 ATP302      0.0000 
     27 N6        -19.9970  -13.8330   32.7270 N.pl3     1 ATP302      0.0000 
     28 N1        -19.0420  -15.5600   31.5200 N.ar      1 ATP302      0.0000 
     29 C2        -18.8070  -16.1320   30.3290 C.ar      1 ATP302      0.0000 
     30 N3        -19.1750  -15.7260   29.1130 N.ar      1 ATP302      0.0000 
     31 C4        -19.8740  -14.5770   29.1810 C.ar      1 ATP302      0.0000 
@<TRIPOS>BOND
     1    1    2 ar   
     2    1    3 ar   
     3    1    4 ar   
     4    1    8 1    
     5    5    6 ar   
     6    5    7 ar   
     7    5    8 1    
     8    5   12 1    
     9    9   10 ar   
    10    9   11 ar   
    11    9   12 1    
    12    9   13 1    
    13   13   14 1    
    14   14   15 1    
    15   15   16 1    
    16   15   17 1    
    17   16   21 1    
    18   17   18 1    
    19   17   19 1    
    20   19   20 1    
    21   19   21 1    
    22   21   22 1    
    23   22   23 1    
    24   22   31 1    
    25   23   24 2    
    26   24   25 1    
    27   25   26 ar   
    28   25   31 ar   
    29   26   27 1    
    30   26   28 ar   
    31   28   29 ar   
    32   29   30 ar   
    33   30   31 ar   
@<TRIPOS>SUBSTRUCTURE
     1 ATP302      1 GROUP   
@<TRIPOS>SET
ATOM$ORANGE STATIC     ATOMS   COLORGROUP SYSTEM 
20 14 14 15 15 17 17 19 19 21 21 23 23 25 25 26 26 29 \
29 31 31 

