#    Name: 6fu2_2_ATP
#    Modification time : Fri May 22 19:25:53 2020

@<TRIPOS>MOLECULE
6fu2_2_ATP
   31    33     1     0     1
SMALL
NO_CHARGES


@<TRIPOS>ATOM
      1 PG        -20.7820    2.8550   25.4550 P.3       1 ATP302      0.0000 
      2 O1G       -21.3930    1.7940   24.5720 O.co2     1 ATP302      0.0000 
      3 O2G       -19.5650    2.3650   26.2130 O.co2     1 ATP302      0.0000 
      4 O3G       -21.7990    3.5170   26.3540 O.co2     1 ATP302      0.0000 
      5 PB        -19.3900    5.3400   24.6950 P.3       1 ATP302      0.0000 
      6 O1B       -20.0650    6.5030   24.0490 O.co2     1 ATP302      0.0000 
      7 O2B       -17.9590    5.0470   24.3750 O.co2     1 ATP302      0.0000 
      8 O3B       -20.2540    4.0120   24.4580 O.3       1 ATP302      0.0000 
      9 PA        -18.7570    6.4710   27.2840 P.3       1 ATP302      0.0000 
     10 O1A       -17.2950    6.2670   27.0690 O.co2     1 ATP302      0.0000 
     11 O2A       -19.3020    6.2590   28.6560 O.co2     1 ATP302      0.0000 
     12 O3A       -19.5480    5.5180   26.2750 O.3       1 ATP302      0.0000 
     13 O5'       -19.1820    7.9210   26.7370 O.3       1 ATP302      0.0000 
     14 C5'       -20.2340    8.6620   27.4110 C.3       1 ATP302      0.0000 
     15 C4'       -20.3030   10.0650   26.8620 C.3       1 ATP302      0.0000 
     16 O4'       -18.9880   10.6670   26.9340 O.3       1 ATP302      0.0000 
     17 C3'       -20.7030   10.1990   25.3900 C.3       1 ATP302      0.0000 
     18 O3'       -22.1160   10.2400   25.2530 O.3       1 ATP302      0.0000 
     19 C2'       -20.0660   11.5370   25.0050 C.3       1 ATP302      0.0000 
     20 O2'       -20.9000   12.6300   25.3180 O.3       1 ATP302      0.0000 
     21 C1'       -18.8000   11.5660   25.8620 C.3       1 ATP302      0.0000 
     22 N9        -17.5760   11.1760   25.1550 N.pl3     1 ATP302      0.0000 
     23 C8        -17.3860   10.0670   24.3670 C.2       1 ATP302      0.0000 
     24 N7        -16.1690   10.0010   23.8800 N.2       1 ATP302      0.0000 
     25 C5        -15.5220   11.1230   24.3780 C.ar      1 ATP302      0.0000 
     26 C6        -14.2100   11.6170   24.2260 C.ar      1 ATP302      0.0000 
     27 N6        -13.2770   11.0160   23.4930 N.pl3     1 ATP302      0.0000 
     28 N1        -13.8960   12.7680   24.8700 N.ar      1 ATP302      0.0000 
     29 C2        -14.8430   13.3700   25.6040 C.ar      1 ATP302      0.0000 
     30 N3        -16.1060   13.0020   25.8120 N.ar      1 ATP302      0.0000 
     31 C4        -16.3840   11.8550   25.1670 C.ar      1 ATP302      0.0000 
@<TRIPOS>BOND
     1    1    2 ar   
     2    1    3 ar   
     3    1    4 ar   
     4    1    8 1    
     5    5    6 ar   
     6    5    7 ar   
     7    5    8 1    
     8    5   12 1    
     9    9   10 ar   
    10    9   11 ar   
    11    9   12 1    
    12    9   13 1    
    13   13   14 1    
    14   14   15 1    
    15   15   16 1    
    16   15   17 1    
    17   16   21 1    
    18   17   18 1    
    19   17   19 1    
    20   19   20 1    
    21   19   21 1    
    22   21   22 1    
    23   22   23 1    
    24   22   31 1    
    25   23   24 2    
    26   24   25 1    
    27   25   26 ar   
    28   25   31 ar   
    29   26   27 1    
    30   26   28 ar   
    31   28   29 ar   
    32   29   30 ar   
    33   30   31 ar   
@<TRIPOS>SUBSTRUCTURE
     1 ATP302      1 GROUP   
@<TRIPOS>SET
ATOM$ORANGE STATIC     ATOMS   COLORGROUP SYSTEM 
20 14 14 15 15 17 17 19 19 21 21 23 23 25 25 26 26 29 \
29 31 31 

