#    Name: 6eac_2_ANP_CAVITY_N1_4
#    Modification time : Fri May 22 19:24:19 2020

@<TRIPOS>MOLECULE
6eac_2_ANP_CAVITY_N1_4
   97     0     6     0     0
SMALL
NO_CHARGES


@<TRIPOS>ATOM
      1 OG         16.5200   27.3800   63.5400 O.3       1 SER1        0.0000 
      2 OG         16.9800   28.0300   64.8100 O.3       1 SER1        0.0000 
      3 OG         15.6900   27.6400   65.4800 O.3       1 SER1        0.0000 
      4 N          15.0500   33.3500   57.5000 N.am      2 ALA2        0.0000 
      5 O          15.4300   28.0300   61.8400 O.2       2 ALA2        0.0000 
      6 N          19.1700   34.1300   59.1400 N.am      2 ALA2        0.0000 
      7 N          17.8800   33.7400   59.8000 N.am      2 ALA2        0.0000 
      8 N          12.7400   32.1700   62.4700 N.am      2 ALA2        0.0000 
      9 N          12.0800   30.4800   63.5800 N.am      2 ALA2        0.0000 
     10 N          14.6100   28.2900   63.7800 N.am      2 ALA2        0.0000 
     11 N          18.3400   34.3900   61.0800 N.am      2 ALA2        0.0000 
     12 N          13.2100   32.8200   63.7500 N.am      2 ALA2        0.0000 
     13 N          12.5400   31.1300   64.8500 N.am      2 ALA2        0.0000 
     14 N          13.1700   29.8300   65.2800 N.am      2 ALA2        0.0000 
     15 N          15.0700   28.9300   65.0500 N.am      2 ALA2        0.0000 
     16 N          13.7900   28.5400   65.7200 N.am      2 ALA2        0.0000 
     17 N          13.0100   31.7800   66.1200 N.am      2 ALA2        0.0000 
     18 O          18.1000   30.3700   64.9800 O.2       2 ALA2        0.0000 
     19 O          16.8200   29.9800   65.6500 O.2       2 ALA2        0.0000 
     20 O          17.4400   28.6800   66.0900 O.2       2 ALA2        0.0000 
     21 O          17.9400   32.3100   65.8200 O.2       2 ALA2        0.0000 
     22 O          16.6600   31.9200   66.4900 O.2       2 ALA2        0.0000 
     23 O          19.8500   31.4100   65.5900 O.2       2 ALA2        0.0000 
     24 O          20.3100   32.0600   66.8600 O.2       2 ALA2        0.0000 
     25 OD1        16.1400   32.7000   59.2000 O.co2     3 ASP3        0.0000 
     26 OD1        15.4700   31.0100   60.3000 O.co2     3 ASP3        0.0000 
     27 OD1        17.3800   30.1100   60.0700 O.co2     3 ASP3        0.0000 
     28 OD1        16.1000   29.7200   60.7400 O.co2     3 ASP3        0.0000 
     29 OD1        16.7200   28.4200   61.1700 O.co2     3 ASP3        0.0000 
     30 OD1        17.3400   27.1300   61.6000 O.co2     3 ASP3        0.0000 
     31 OD1        18.5000   32.4500   60.2400 O.co2     3 ASP3        0.0000 
     32 OD1        17.2200   32.0500   60.9100 O.co2     3 ASP3        0.0000 
     33 OD1        17.8400   30.7600   61.3400 O.co2     3 ASP3        0.0000 
     34 OD1        18.4600   29.4700   61.7700 O.co2     3 ASP3        0.0000 
     35 OD1        17.8000   27.7800   62.8800 O.co2     3 ASP3        0.0000 
     36 OD1        19.5900   31.8000   61.9400 O.co2     3 ASP3        0.0000 
     37 OD1        20.2100   30.5100   62.3800 O.co2     3 ASP3        0.0000 
     38 OD1        19.5500   28.8200   63.4800 O.co2     3 ASP3        0.0000 
     39 OD1        18.2600   28.4300   64.1500 O.co2     3 ASP3        0.0000 
     40 CZ         15.5100   33.9900   58.7700 C.ar      4 PHE5        0.0000 
     41 CZ         14.2300   33.6000   59.4300 C.ar      4 PHE5        0.0000 
     42 CZ         12.9500   33.2100   60.1000 C.ar      4 PHE5        0.0000 
     43 CZ         16.6000   33.3500   60.4700 C.ar      4 PHE5        0.0000 
     44 CZ         15.3100   32.9500   61.1400 C.ar      4 PHE5        0.0000 
     45 CZ         14.0300   32.5600   61.8100 C.ar      4 PHE5        0.0000 
     46 CZ         17.0600   34.0000   61.7400 C.ar      4 PHE5        0.0000 
     47 CZ         16.4000   32.3100   62.8400 C.ar      4 PHE5        0.0000 
     48 CZ         15.1100   31.9200   63.5100 C.ar      4 PHE5        0.0000 
     49 CZ         17.5200   34.6400   63.0100 C.ar      4 PHE5        0.0000 
     50 CZ         14.9500   33.8600   64.3500 C.ar      4 PHE5        0.0000 
     51 CZ         13.6700   33.4600   65.0200 C.ar      4 PHE5        0.0000 
     52 CZ         16.8600   32.9600   64.1200 C.ar      4 PHE5        0.0000 
     53 CZ         15.5800   32.5600   64.7800 C.ar      4 PHE5        0.0000 
     54 CA         13.7700   32.9500   58.1600 C.3       5 GLY6        0.0000 
     55 CA         14.8500   32.3100   59.8700 C.3       5 GLY6        0.0000 
     56 CA         13.5700   31.9100   60.5400 C.3       5 GLY6        0.0000 
     57 CA         14.1900   30.6200   60.9700 C.3       5 GLY6        0.0000 
     58 CA         12.9000   30.2300   61.6400 C.3       5 GLY6        0.0000 
     59 CA         14.8100   29.3200   61.4000 C.3       5 GLY6        0.0000 
     60 CA         13.3700   30.8700   62.9100 C.3       5 GLY6        0.0000 
     61 CA         13.9900   29.5800   63.3400 C.3       5 GLY6        0.0000 
     62 CA         12.7000   29.1900   64.0100 C.3       5 GLY6        0.0000 
     63 CA         14.9100   30.8800   65.8900 C.3       5 GLY6        0.0000 
     64 CA         13.6300   30.4800   66.5500 C.3       5 GLY6        0.0000 
     65 CA         15.5300   29.5800   66.3200 C.3       5 GLY6        0.0000 
     66 CA         14.2500   29.1900   66.9900 C.3       5 GLY6        0.0000 
     67 CA         21.2900   29.8600   64.0800 C.3       5 GLY6        0.0000 
     68 CA         16.1600   28.2900   66.7500 C.3       5 GLY6        0.0000 
     69 CA         15.3800   31.5200   67.1600 C.3       5 GLY6        0.0000 
     70 DU         15.9400   31.6600   61.5700 H         6 CUB7        0.0000 
     71 DU         14.6500   31.2700   62.2400 H         6 CUB7        0.0000 
     72 DU         16.5600   30.3700   62.0100 H         6 CUB7        0.0000 
     73 DU         15.2700   29.9700   62.6800 H         6 CUB7        0.0000 
     74 DU         17.1800   29.0700   62.4400 H         6 CUB7        0.0000 
     75 DU         15.8900   28.6800   63.1100 H         6 CUB7        0.0000 
     76 DU         20.2500   33.4900   60.8400 H         6 CUB7        0.0000 
     77 DU         18.9700   33.1000   61.5100 H         6 CUB7        0.0000 
     78 DU         17.6800   32.7000   62.1800 H         6 CUB7        0.0000 
     79 DU         13.8300   31.5200   64.1800 H         6 CUB7        0.0000 
     80 DU         18.3000   31.4100   62.6100 H         6 CUB7        0.0000 
     81 DU         14.4500   30.2300   64.6100 H         6 CUB7        0.0000 
     82 DU         18.9300   30.1100   63.0500 H         6 CUB7        0.0000 
     83 DU         17.6400   29.7200   63.7100 H         6 CUB7        0.0000 
     84 DU         16.3600   29.3300   64.3800 H         6 CUB7        0.0000 
     85 DU         18.1400   33.3500   63.4500 H         6 CUB7        0.0000 
     86 DU         14.2900   32.1700   65.4500 H         6 CUB7        0.0000 
     87 DU         18.7700   32.0600   63.8800 H         6 CUB7        0.0000 
     88 DU         17.4800   31.6600   64.5500 H         6 CUB7        0.0000 
     89 DU         16.2000   31.2700   65.2200 H         6 CUB7        0.0000 
     90 DU         20.6700   31.1600   63.6500 H         6 CUB7        0.0000 
     91 DU         19.3900   30.7600   64.3200 H         6 CUB7        0.0000 
     92 DU         17.3200   33.6100   65.3900 H         6 CUB7        0.0000 
     93 DU         16.0400   33.2100   66.0500 H         6 CUB7        0.0000 
     94 DU         14.7500   32.8200   66.7200 H         6 CUB7        0.0000 
     95 DU         20.5100   33.1000   64.4900 H         6 CUB7        0.0000 
     96 DU         19.2300   32.7000   65.1500 H         6 CUB7        0.0000 
     97 DU         21.1300   31.8000   64.9200 H         6 CUB7        0.0000 
@<TRIPOS>BOND
@<TRIPOS>SUBSTRUCTURE
     1 SER1        1 GROUP   
     2 ALA2        4 GROUP   
     3 ASP3       25 GROUP   
     4 PHE5       40 GROUP   
     5 GLY6       54 GROUP   
     6 CUB7       70 GROUP   
@<TRIPOS>SET

