#    Name: 6eac_4_ANP_CAVITY_N1_12
#    Modification time : Fri May 22 19:24:33 2020

@<TRIPOS>MOLECULE
6eac_4_ANP_CAVITY_N1_12
   72     0     5     0     0
SMALL
NO_CHARGES


@<TRIPOS>ATOM
      1 OG          7.7600   48.1300    8.3600 O.3       1 SER1        0.0000 
      2 OG          8.3800   46.8400    8.7900 O.3       1 SER1        0.0000 
      3 OG          7.5600   47.0900   10.7300 O.3       1 SER1        0.0000 
      4 O           4.5000   50.0700    3.2400 O.2       2 ALA2        0.0000 
      5 N           3.6800   50.3200    5.1800 N.am      2 ALA2        0.0000 
      6 N           0.4500   47.8500    7.6200 N.am      2 ALA2        0.0000 
      7 N           4.1400   50.9700    6.4500 N.am      2 ALA2        0.0000 
      8 O           1.5700   50.1900    7.7900 O.2       2 ALA2        0.0000 
      9 N           4.7700   49.6800    6.8900 N.am      2 ALA2        0.0000 
     10 N           9.2000   46.5800    6.8500 N.am      2 ALA2        0.0000 
     11 N           6.9300   48.3900   10.3000 N.am      2 ALA2        0.0000 
     12 OD1         0.6100   45.9100    6.7800 O.co2     3 ASP3        0.0000 
     13 OD1         5.0400   42.8100    6.7500 O.co2     3 ASP3        0.0000 
     14 OD1         5.5900   49.4200    4.9500 O.co2     3 ASP3        0.0000 
     15 OD1         4.9300   47.7400    6.0500 O.co2     3 ASP3        0.0000 
     16 OD1         2.3600   46.9500    7.3800 O.co2     3 ASP3        0.0000 
     17 OD1         1.0700   46.5600    8.0500 O.co2     3 ASP3        0.0000 
     18 OD1         6.8300   46.8400    5.8100 O.co2     3 ASP3        0.0000 
     19 OD1         2.9800   45.6600    7.8200 O.co2     3 ASP3        0.0000 
     20 OD1         4.8800   44.7500    7.5800 O.co2     3 ASP3        0.0000 
     21 OD1         3.6000   44.3600    8.2500 O.co2     3 ASP3        0.0000 
     22 OD1         6.7900   43.8500    7.3500 O.co2     3 ASP3        0.0000 
     23 OD1         5.5100   43.4600    8.0200 O.co2     3 ASP3        0.0000 
     24 OD1         7.4100   42.5600    7.7800 O.co2     3 ASP3        0.0000 
     25 OD1         6.6700   48.7800    6.6500 O.co2     3 ASP3        0.0000 
     26 OD1         2.8200   47.6000    8.6500 O.co2     3 ASP3        0.0000 
     27 OD1         7.2900   47.4800    7.0900 O.co2     3 ASP3        0.0000 
     28 OD1         4.7300   46.7000    8.4200 O.co2     3 ASP3        0.0000 
     29 OD1         5.3500   45.4000    8.8500 O.co2     3 ASP3        0.0000 
     30 OD1         8.5400   44.9000    7.9500 O.co2     3 ASP3        0.0000 
     31 OD1         7.2500   44.5000    8.6200 O.co2     3 ASP3        0.0000 
     32 OD1         5.9700   44.1100    9.2900 O.co2     3 ASP3        0.0000 
     33 OD1         7.0900   46.4400    9.4600 O.co2     3 ASP3        0.0000 
     34 OD1         5.8100   46.0500   10.1300 O.co2     3 ASP3        0.0000 
     35 OD1         4.5200   45.6600   10.7900 O.co2     3 ASP3        0.0000 
     36 OD1         6.4300   44.7600   10.5600 O.co2     3 ASP3        0.0000 
     37 OD1         5.1500   44.3600   11.2300 O.co2     3 ASP3        0.0000 
     38 OD1         6.8900   45.4100   11.8300 O.co2     3 ASP3        0.0000 
     39 CA          3.2200   49.6800    3.9100 C.3       4 GLY6        0.0000 
     40 CA          1.9300   49.2800    4.5800 C.3       4 GLY6        0.0000 
     41 CA          8.2400   42.3000    5.8500 C.3       4 GLY6        0.0000 
     42 CA          6.9500   41.9100    6.5100 C.3       4 GLY6        0.0000 
     43 CA          2.4000   49.9300    5.8500 C.3       4 GLY6        0.0000 
     44 CA          1.1100   49.5400    6.5200 C.3       4 GLY6        0.0000 
     45 CA          2.8600   50.5800    7.1200 C.3       4 GLY6        0.0000 
     46 CA          3.4800   49.2900    7.5500 C.3       4 GLY6        0.0000 
     47 CA          2.2000   48.8900    8.2200 C.3       4 GLY6        0.0000 
     48 CA          4.1000   47.9900    7.9900 C.3       4 GLY6        0.0000 
     49 CA          5.2300   50.3300    8.1600 C.3       4 GLY6        0.0000 
     50 CA          3.9400   49.9300    8.8200 C.3       4 GLY6        0.0000 
     51 CA          5.8500   49.0300    8.5900 C.3       4 GLY6        0.0000 
     52 CA          4.5700   48.6400    9.2600 C.3       4 GLY6        0.0000 
     53 CA          5.1900   47.3500    9.6900 C.3       4 GLY6        0.0000 
     54 CA          5.6100   45.0100   12.5000 C.3       4 GLY6        0.0000 
     55 DU          2.5600   47.9900    5.0100 H         5 CUB7        0.0000 
     56 DU          1.2700   47.6000    5.6800 H         5 CUB7        0.0000 
     57 DU          6.3300   43.2100    6.0800 H         5 CUB7        0.0000 
     58 DU          4.3000   49.0300    5.6100 H         5 CUB7        0.0000 
     59 DU          3.0200   48.6400    6.2800 H         5 CUB7        0.0000 
     60 DU          1.7300   48.2400    6.9500 H         5 CUB7        0.0000 
     61 DU          3.6400   47.3400    6.7200 H         5 CUB7        0.0000 
     62 DU          5.5500   46.4400    6.4800 H         5 CUB7        0.0000 
     63 DU          4.2600   46.0500    7.1500 H         5 CUB7        0.0000 
     64 DU          7.4500   45.5400    6.2500 H         5 CUB7        0.0000 
     65 DU          6.1700   45.1500    6.9200 H         5 CUB7        0.0000 
     66 DU          8.0800   44.2500    6.6800 H         5 CUB7        0.0000 
     67 DU          5.3900   48.3800    7.3200 H         5 CUB7        0.0000 
     68 DU          6.0100   47.0900    7.7500 H         5 CUB7        0.0000 
     69 DU          7.9200   46.1900    7.5200 H         5 CUB7        0.0000 
     70 DU          6.6300   45.8000    8.1900 H         5 CUB7        0.0000 
     71 DU          6.4700   47.7400    9.0200 H         5 CUB7        0.0000 
     72 DU          6.2700   46.7000   11.4000 H         5 CUB7        0.0000 
@<TRIPOS>BOND
@<TRIPOS>SUBSTRUCTURE
     1 SER1        1 GROUP   
     2 ALA2        4 GROUP   
     3 ASP3       12 GROUP   
     4 GLY6       39 GROUP   
     5 CUB7       55 GROUP   
@<TRIPOS>SET

