#    Name: 6eac_1_ANP
#    Modification time : Fri May 22 19:24:03 2020

@<TRIPOS>MOLECULE
6eac_1_ANP
   44    46     1     0     1
SMALL
NO_CHARGES


@<TRIPOS>ATOM
      1 PG         18.0690   58.3310   53.8520 P.3       1 ANP506      0.0000 
      2 O1G        18.6700   58.3560   52.3950 O.co2     1 ANP506      0.0000 
      3 O2G        19.1800   58.3650   54.8510 O.co2     1 ANP506      0.0000 
      4 O3G        17.1610   59.6140   54.0280 O.co2     1 ANP506      0.0000 
      5 PB         17.8600   55.5100   53.6930 P.3       1 ANP506      0.0000 
      6 O1B        16.8170   54.3650   53.8160 O.co2     1 ANP506      0.0000 
      7 O2B        18.9850   55.2140   54.6310 O.co2     1 ANP506      0.0000 
      8 N3B        17.1050   56.9530   54.1030 N.3       1 ANP506      0.0000 
      9 PA         19.0090   54.3630   51.4330 P.3       1 ANP506      0.0000 
     10 O1A        19.8070   54.9760   50.2740 O.co2     1 ANP506      0.0000 
     11 O2A        19.7920   53.4880   52.3370 O.co2     1 ANP506      0.0000 
     12 O3A        18.3920   55.6100   52.2240 O.3       1 ANP506      0.0000 
     13 O5'        17.7880   53.5010   50.8980 O.3       1 ANP506      0.0000 
     14 C5'        17.5180   53.3270   49.4830 C.3       1 ANP506      0.0000 
     15 C4'        16.0480   53.5640   49.2410 C.3       1 ANP506      0.0000 
     16 O4'        15.2820   52.5110   49.8700 O.3       1 ANP506      0.0000 
     17 C3'        15.5000   54.8740   49.8020 C.3       1 ANP506      0.0000 
     18 O3'        14.4560   55.3920   48.9870 O.3       1 ANP506      0.0000 
     19 C2'        14.9790   54.4550   51.1760 C.3       1 ANP506      0.0000 
     20 O2'        13.9350   55.3000   51.6460 O.3       1 ANP506      0.0000 
     21 C1'        14.4560   53.0480   50.8840 C.3       1 ANP506      0.0000 
     22 N9         14.5060   52.1620   52.0400 N.pl3     1 ANP506      0.0000 
     23 C8         15.6220   51.6640   52.6600 C.2       1 ANP506      0.0000 
     24 N7         15.3630   50.8970   53.6920 N.2       1 ANP506      0.0000 
     25 C5         13.9770   50.8940   53.7580 C.ar      1 ANP506      0.0000 
     26 C6         13.0690   50.2640   54.6320 C.ar      1 ANP506      0.0000 
     27 N6         13.4310   49.4840   55.6570 N.pl3     1 ANP506      0.0000 
     28 N1         11.7510   50.4690   54.4180 N.ar      1 ANP506      0.0000 
     29 C2         11.3760   51.2490   53.4010 C.ar      1 ANP506      0.0000 
     30 N3         12.1370   51.8920   52.5140 N.ar      1 ANP506      0.0000 
     31 C4         13.4370   51.6720   52.7480 C.ar      1 ANP506      0.0000 
     32 HNB1       16.3640   57.0350   53.5860 H         1 ANP506      0.0000 
     33 H5'1       17.7540   52.4210   49.2150 H         1 ANP506      0.0000 
     34 H5'2       18.0440   53.9650   48.9700 H         1 ANP506      0.0000 
     35 H4'        15.8400   53.5290   48.2850 H         1 ANP506      0.0000 
     36 H3'        16.2230   55.4990   49.8910 H         1 ANP506      0.0000 
     37 HO3'       14.3500   56.2560   49.1560 H         1 ANP506      0.0000 
     38 H2'        15.7040   54.4000   51.8100 H         1 ANP506      0.0000 
     39 HO2'       14.2750   56.0830   51.8920 H         1 ANP506      0.0000 
     40 H1'        13.5480   53.1230   50.5500 H         1 ANP506      0.0000 
     41 H8         16.5110   51.8580   52.3670 H         1 ANP506      0.0000 
     42 HN61       14.3260   49.3330   55.8290 H         1 ANP506      0.0000 
     43 HN62       12.7860   49.0970   56.1930 H         1 ANP506      0.0000 
     44 H2         10.4180   51.3640   53.2930 H         1 ANP506      0.0000 
@<TRIPOS>BOND
     1    1    2 ar   
     2    1    3 ar   
     3    1    4 ar   
     4    1    8 1    
     5    5    6 ar   
     6    5    7 ar   
     7    5    8 1    
     8    5   12 1    
     9    9   10 ar   
    10    8   32 1    
    11    9   11 ar   
    12    9   12 1    
    13    9   13 1    
    14   13   14 1    
    15   14   15 1    
    16   14   33 1    
    17   14   34 1    
    18   15   16 1    
    19   15   17 1    
    20   15   35 1    
    21   16   21 1    
    22   17   18 1    
    23   17   19 1    
    24   17   36 1    
    25   19   20 1    
    26   18   37 1    
    27   19   21 1    
    28   19   38 1    
    29   21   22 1    
    30   20   39 1    
    31   21   40 1    
    32   22   23 1    
    33   22   31 1    
    34   23   24 2    
    35   23   41 1    
    36   24   25 1    
    37   25   26 ar   
    38   25   31 ar   
    39   26   27 1    
    40   26   28 ar   
    41   27   42 1    
    42   27   43 1    
    43   28   29 ar   
    44   29   30 ar   
    45   29   44 1    
    46   30   31 ar   
@<TRIPOS>SUBSTRUCTURE
     1 ANP506      1 GROUP   
@<TRIPOS>SET
ATOM$ORANGE STATIC     ATOMS   COLORGROUP SYSTEM 
20 14 14 15 15 17 17 19 19 21 21 23 23 25 25 26 26 29 \
29 31 31 

