#    Name: 6eac_3_ANP
#    Modification time : Fri May 22 19:24:24 2020

@<TRIPOS>MOLECULE
6eac_3_ANP
   44    46     1     0     1
SMALL
NO_CHARGES


@<TRIPOS>ATOM
      1 PG          7.3500   38.0990  100.3060 P.3       1 ANP506      0.0000 
      2 O1G         7.8200   37.0700   99.2020 O.co2     1 ANP506      0.0000 
      3 O2G         8.5870   38.5300  101.1830 O.co2     1 ANP506      0.0000 
      4 O3G         6.7950   39.3220   99.6490 O.co2     1 ANP506      0.0000 
      5 PB          5.9110   38.0370  102.7590 P.3       1 ANP506      0.0000 
      6 O1B         5.1570   39.3140  102.6080 O.co2     1 ANP506      0.0000 
      7 O2B         5.0630   37.0730  103.6330 O.co2     1 ANP506      0.0000 
      8 N3B         6.1730   37.3210  101.2580 N.3       1 ANP506      0.0000 
      9 PA          7.3610   38.8690  104.9720 P.3       1 ANP506      0.0000 
     10 O1A         8.7570   39.4830  105.1330 O.co2     1 ANP506      0.0000 
     11 O2A         6.2620   39.8190  105.2790 O.co2     1 ANP506      0.0000 
     12 O3A         7.2780   38.3230  103.4670 O.3       1 ANP506      0.0000 
     13 O5'         7.1780   37.6050  105.9160 O.3       1 ANP506      0.0000 
     14 C5'         8.2480   37.1100  106.7560 C.3       1 ANP506      0.0000 
     15 C4'         8.2390   35.6030  106.7060 C.3       1 ANP506      0.0000 
     16 O4'         6.9760   35.1190  107.2210 O.3       1 ANP506      0.0000 
     17 C3'         8.3780   34.9980  105.3110 C.3       1 ANP506      0.0000 
     18 O3'         9.0610   33.7490  105.3530 O.3       1 ANP506      0.0000 
     19 C2'         6.9210   34.8360  104.8800 C.3       1 ANP506      0.0000 
     20 O2'         6.7310   33.8400  103.8830 O.3       1 ANP506      0.0000 
     21 C1'         6.2720   34.4300  106.2040 C.3       1 ANP506      0.0000 
     22 N9          4.8600   34.7780  106.2960 N.pl3     1 ANP506      0.0000 
     23 C8          4.3180   36.0260  106.4550 C.2       1 ANP506      0.0000 
     24 N7          3.0070   36.0380  106.4960 N.2       1 ANP506      0.0000 
     25 C5          2.6630   34.7030  106.3480 C.ar      1 ANP506      0.0000 
     26 C6          1.4190   34.0430  106.3070 C.ar      1 ANP506      0.0000 
     27 N6          0.2370   34.6610  106.4140 N.pl3     1 ANP506      0.0000 
     28 N1          1.4280   32.7010  106.1480 N.ar      1 ANP506      0.0000 
     29 C2          2.6020   32.0720  106.0390 C.ar      1 ANP506      0.0000 
     30 N3          3.8330   32.5870  106.0630 N.ar      1 ANP506      0.0000 
     31 C4          3.7940   33.9160  106.2200 C.ar      1 ANP506      0.0000 
     32 HNB1        6.4560   36.4710  101.4040 H         1 ANP506      0.0000 
     33 H5'1        8.1100   37.4110  107.6710 H         1 ANP506      0.0000 
     34 H5'2        9.1010   37.4450  106.4290 H         1 ANP506      0.0000 
     35 H4'         8.9410   35.2280  107.2770 H         1 ANP506      0.0000 
     36 H3'         8.8300   35.6230  104.7400 H         1 ANP506      0.0000 
     37 HO3'        9.3660   33.5520  104.5450 H         1 ANP506      0.0000 
     38 H2'         6.5610   35.6830  104.5900 H         1 ANP506      0.0000 
     39 HO2'        7.3160   33.9630  103.2260 H         1 ANP506      0.0000 
     40 H1'         6.3900   33.4740  106.3220 H         1 ANP506      0.0000 
     41 H8          4.8480   36.8180  106.5300 H         1 ANP506      0.0000 
     42 HN61        0.2030   35.5780  106.5220 H         1 ANP506      0.0000 
     43 HN62       -0.5450   34.1710  106.3810 H         1 ANP506      0.0000 
     44 H2          2.5520   31.1090  105.9280 H         1 ANP506      0.0000 
@<TRIPOS>BOND
     1    1    2 ar   
     2    1    3 ar   
     3    1    4 ar   
     4    1    8 1    
     5    5    6 ar   
     6    5    7 ar   
     7    5    8 1    
     8    5   12 1    
     9    9   10 ar   
    10    8   32 1    
    11    9   11 ar   
    12    9   12 1    
    13    9   13 1    
    14   13   14 1    
    15   14   15 1    
    16   14   33 1    
    17   14   34 1    
    18   15   16 1    
    19   15   17 1    
    20   15   35 1    
    21   16   21 1    
    22   17   18 1    
    23   17   19 1    
    24   17   36 1    
    25   19   20 1    
    26   18   37 1    
    27   19   21 1    
    28   19   38 1    
    29   21   22 1    
    30   20   39 1    
    31   21   40 1    
    32   22   23 1    
    33   22   31 1    
    34   23   24 2    
    35   23   41 1    
    36   24   25 1    
    37   25   26 ar   
    38   25   31 ar   
    39   26   27 1    
    40   26   28 ar   
    41   27   42 1    
    42   27   43 1    
    43   28   29 ar   
    44   29   30 ar   
    45   29   44 1    
    46   30   31 ar   
@<TRIPOS>SUBSTRUCTURE
     1 ANP506      1 GROUP   
@<TRIPOS>SET
ATOM$ORANGE STATIC     ATOMS   COLORGROUP SYSTEM 
20 14 14 15 15 17 17 19 19 21 21 23 23 25 25 26 26 29 \
29 31 31 

