#    Name: 6eac_1_ANP_CAVITY_N1_4
#    Modification time : Fri May 22 19:24:05 2020

@<TRIPOS>MOLECULE
6eac_1_ANP_CAVITY_N1_4
   82     0     7     0     0
SMALL
NO_CHARGES


@<TRIPOS>ATOM
      1 OG         16.2600   55.5100   49.2900 O.3       1 SER1        0.0000 
      2 OG         15.4400   55.7700   51.2300 O.3       1 SER1        0.0000 
      3 OG         15.9000   56.4200   52.5000 O.3       1 SER1        0.0000 
      4 N          14.5100   54.4700   48.6900 N.am      2 ALA2        0.0000 
      5 N          13.2300   54.0800   49.3500 N.am      2 ALA2        0.0000 
      6 O          17.7000   53.9600   47.7800 O.2       2 ALA2        0.0000 
      7 O          18.3300   52.6700   48.2200 O.2       2 ALA2        0.0000 
      8 O          17.0400   52.2800   48.8900 O.2       2 ALA2        0.0000 
      9 O          18.9500   51.3800   48.6500 O.2       2 ALA2        0.0000 
     10 N          14.9800   55.1200   49.9600 N.am      2 ALA2        0.0000 
     11 N          13.6900   54.7300   50.6200 N.am      2 ALA2        0.0000 
     12 O          18.7900   53.3200   49.4900 O.2       2 ALA2        0.0000 
     13 N          12.3700   51.3500   52.8300 N.am      2 ALA2        0.0000 
     14 N          18.0800   48.6500   52.1300 N.am      2 ALA2        0.0000 
     15 O          14.1500   55.3800   51.9000 O.2       2 ALA2        0.0000 
     16 OD1        15.9200   49.9400   48.7200 O.co2     3 ASP3        0.0000 
     17 OD1        16.4200   53.5700   48.4500 O.co2     3 ASP3        0.0000 
     18 OD1        15.1400   53.1800   49.1200 O.co2     3 ASP3        0.0000 
     19 OD1        13.8500   52.7800   49.7900 O.co2     3 ASP3        0.0000 
     20 OD1        15.7600   51.8800   49.5500 O.co2     3 ASP3        0.0000 
     21 OD1        14.4700   51.4900   50.2200 O.co2     3 ASP3        0.0000 
     22 OD1        17.3400   54.8700   50.9900 O.co2     3 ASP3        0.0000 
     23 OD1        19.2500   53.9700   50.7600 O.co2     3 ASP3        0.0000 
     24 OD1        17.9700   53.5700   51.4300 O.co2     3 ASP3        0.0000 
     25 OD1        15.4000   52.7900   52.7600 O.co2     3 ASP3        0.0000 
     26 OD1        19.8700   52.6700   51.1900 O.co2     3 ASP3        0.0000 
     27 OD1        18.5900   52.2800   51.8600 O.co2     3 ASP3        0.0000 
     28 OD1        16.0200   51.4900   53.2000 O.co2     3 ASP3        0.0000 
     29 OD1        20.4900   51.3800   51.6300 O.co2     3 ASP3        0.0000 
     30 OD1        17.1800   56.8100   51.8300 O.co2     3 ASP3        0.0000 
     31 OD1        17.8100   55.5200   52.2700 O.co2     3 ASP3        0.0000 
     32 OD1        16.5200   55.1200   52.9300 O.co2     3 ASP3        0.0000 
     33 OD1        18.4300   54.2200   52.7000 O.co2     3 ASP3        0.0000 
     34 OD1        17.1400   53.8300   53.3700 O.co2     3 ASP3        0.0000 
     35 OD1        17.7700   52.5300   53.8000 O.co2     3 ASP3        0.0000 
     36 OD1        17.1000   50.8500   54.9000 O.co2     3 ASP3        0.0000 
     37 OD1        15.8200   50.4500   55.5700 O.co2     3 ASP3        0.0000 
     38 OD1        17.6500   57.4600   53.1000 O.co2     3 ASP3        0.0000 
     39 OD1        18.2700   56.1600   53.5400 O.co2     3 ASP3        0.0000 
     40 OD1        16.9800   55.7700   54.2000 O.co2     3 ASP3        0.0000 
     41 OD1        17.6100   54.4800   54.6400 O.co2     3 ASP3        0.0000 
     42 NZ         18.1700   54.6100   49.0600 N.4       4 LYS4        0.0000 
     43 CZ         16.3800   50.5900   49.9900 C.ar      5 PHE5        0.0000 
     44 CZ         15.0900   50.2000   50.6600 C.ar      5 PHE5        0.0000 
     45 CZ         17.0000   49.3000   50.4200 C.ar      5 PHE5        0.0000 
     46 CZ         15.5600   50.8400   51.9300 C.ar      5 PHE5        0.0000 
     47 CZ         14.2700   50.4500   52.5900 C.ar      5 PHE5        0.0000 
     48 CZ         12.9900   50.0600   53.2600 C.ar      5 PHE5        0.0000 
     49 CZ         17.4600   49.9400   51.6900 C.ar      5 PHE5        0.0000 
     50 CZ         16.6400   50.2000   53.6300 C.ar      5 PHE5        0.0000 
     51 CZ         15.3600   49.8100   54.3000 C.ar      5 PHE5        0.0000 
     52 CZ         14.0700   49.4100   54.9700 C.ar      5 PHE5        0.0000 
     53 CZ         17.2600   48.9000   54.0700 C.ar      5 PHE5        0.0000 
     54 CA         15.8000   54.8700   48.0200 C.3       6 GLY6        0.0000 
     55 CA         13.0300   53.0400   51.7300 C.3       6 GLY6        0.0000 
     56 CA         20.6900   52.4200   49.2600 C.3       6 GLY6        0.0000 
     57 CA         14.7700   54.0800   52.3300 C.3       6 GLY6        0.0000 
     58 CA         13.4900   53.6900   53.0000 C.3       6 GLY6        0.0000 
     59 CA         14.1100   52.3900   53.4300 C.3       6 GLY6        0.0000 
     60 CA         12.8300   52.0000   54.1000 C.3       6 GLY6        0.0000 
     61 CA         14.7300   51.1000   53.8700 C.3       6 GLY6        0.0000 
     62 CA         13.4500   50.7100   54.5300 C.3       6 GLY6        0.0000 
     63 CA         15.2400   54.7300   53.6000 C.3       6 GLY6        0.0000 
     64 DU         17.6600   50.9800   49.3200 H         7 CUB7        0.0000 
     65 DU         19.5700   50.0800   49.0900 H         7 CUB7        0.0000 
     66 DU         18.2900   49.6900   49.7500 H         7 CUB7        0.0000 
     67 DU         16.8800   54.2200   49.7200 H         7 CUB7        0.0000 
     68 DU         15.6000   53.8300   50.3900 H         7 CUB7        0.0000 
     69 DU         14.3100   53.4300   51.0600 H         7 CUB7        0.0000 
     70 DU         17.5000   52.9300   50.1600 H         7 CUB7        0.0000 
     71 DU         16.2200   52.5300   50.8200 H         7 CUB7        0.0000 
     72 DU         14.9300   52.1400   51.4900 H         7 CUB7        0.0000 
     73 DU         13.6500   51.7500   52.1600 H         7 CUB7        0.0000 
     74 DU         19.4100   52.0200   49.9200 H         7 CUB7        0.0000 
     75 DU         16.8400   51.2400   51.2600 H         7 CUB7        0.0000 
     76 DU         18.7500   50.3400   51.0300 H         7 CUB7        0.0000 
     77 DU         16.0600   54.4700   51.6600 H         7 CUB7        0.0000 
     78 DU         16.6800   53.1800   52.1000 H         7 CUB7        0.0000 
     79 DU         17.3000   51.8900   52.5300 H         7 CUB7        0.0000 
     80 DU         19.2100   50.9900   52.3000 H         7 CUB7        0.0000 
     81 DU         17.9300   50.5900   52.9600 H         7 CUB7        0.0000 
     82 DU         16.3600   57.0700   53.7700 H         7 CUB7        0.0000 
@<TRIPOS>BOND
@<TRIPOS>SUBSTRUCTURE
     1 SER1        1 GROUP   
     2 ALA2        4 GROUP   
     3 ASP3       16 GROUP   
     4 LYS4       42 GROUP   
     5 PHE5       43 GROUP   
     6 GLY6       54 GROUP   
     7 CUB7       64 GROUP   
@<TRIPOS>SET

