#    Name: 6eac_3_ANP_CAVITY_N1_6
#    Modification time : Fri May 22 19:24:25 2020

@<TRIPOS>MOLECULE
6eac_3_ANP_CAVITY_N1_6
   77     0     6     0     0
SMALL
NO_CHARGES


@<TRIPOS>ATOM
      1 OG          6.6000   36.0000  103.4600 O.3       1 SER1        0.0000 
      2 OG          7.6800   35.3600  105.1700 O.3       1 SER1        0.0000 
      3 OG          9.5900   34.4600  104.9300 O.3       1 SER1        0.0000 
      4 O           1.6200   32.4900  105.3000 O.2       2 ALA2        0.0000 
      5 N           7.2200   34.7100  103.9000 N.am      2 ALA2        0.0000 
      6 O           5.9300   34.3200  104.5600 O.2       2 ALA2        0.0000 
      7 O           6.5600   33.0200  105.0000 O.2       2 ALA2        0.0000 
      8 N           3.9900   32.2400  106.3300 N.am      2 ALA2        0.0000 
      9 N           7.1800   31.7300  105.4300 N.am      2 ALA2        0.0000 
     10 N           5.8900   31.3300  106.1000 N.am      2 ALA2        0.0000 
     11 N           8.3000   34.0600  105.6000 N.am      2 ALA2        0.0000 
     12 N           4.4500   32.8800  107.6000 N.am      2 ALA2        0.0000 
     13 N           8.9200   32.7700  106.0400 N.am      2 ALA2        0.0000 
     14 N           7.6400   32.3800  106.7000 N.am      2 ALA2        0.0000 
     15 N           6.3600   31.9800  107.3700 N.am      2 ALA2        0.0000 
     16 O           7.9800   37.9500  107.2800 O.2       2 ALA2        0.0000 
     17 O           9.8900   37.0500  107.0400 O.2       2 ALA2        0.0000 
     18 O           8.6000   36.6500  107.7100 O.2       2 ALA2        0.0000 
     19 O           8.4500   38.6000  108.5500 O.2       2 ALA2        0.0000 
     20 OD1         0.8400   35.7200  105.7000 O.co2     3 ASP3        0.0000 
     21 OD1        -0.4500   35.3300  106.3700 O.co2     3 ASP3        0.0000 
     22 OD1         1.4600   34.4300  106.1300 O.co2     3 ASP3        0.0000 
     23 OD1         4.5300   38.8500  104.5300 O.co2     3 ASP3        0.0000 
     24 OD1         0.6800   37.6700  106.5400 O.co2     3 ASP3        0.0000 
     25 OD1        -0.6100   37.2700  107.2000 O.co2     3 ASP3        0.0000 
     26 OD1         6.4400   37.9500  104.3000 O.co2     3 ASP3        0.0000 
     27 OD1         5.1500   37.5500  104.9700 O.co2     3 ASP3        0.0000 
     28 OD1         3.8700   37.1600  105.6300 O.co2     3 ASP3        0.0000 
     29 OD1         2.5800   36.7700  106.3000 O.co2     3 ASP3        0.0000 
     30 OD1         0.0100   35.9800  107.6400 O.co2     3 ASP3        0.0000 
     31 OD1         7.0600   36.6500  104.7300 O.co2     3 ASP3        0.0000 
     32 OD1         7.0200   33.6700  106.2700 O.co2     3 ASP3        0.0000 
     33 OD1         5.7300   33.2800  106.9400 O.co2     3 ASP3        0.0000 
     34 OD1         6.9000   38.5900  105.5700 O.co2     3 ASP3        0.0000 
     35 OD1         7.5200   37.3000  106.0000 O.co2     3 ASP3        0.0000 
     36 OD1         6.8600   35.6100  107.1100 O.co2     3 ASP3        0.0000 
     37 OD1         5.5700   35.2200  107.7700 O.co2     3 ASP3        0.0000 
     38 OD1         8.7600   34.7100  106.8700 O.co2     3 ASP3        0.0000 
     39 OD1         6.2000   33.9300  108.2100 O.co2     3 ASP3        0.0000 
     40 OD1         4.9100   33.5300  108.8800 O.co2     3 ASP3        0.0000 
     41 OD1         9.3900   33.4200  107.3100 O.co2     3 ASP3        0.0000 
     42 OD1         7.3200   36.2600  108.3800 O.co2     3 ASP3        0.0000 
     43 OD1         9.2300   35.3600  108.1400 O.co2     3 ASP3        0.0000 
     44 NZ          0.1700   34.0400  106.8000 N.4       4 LYS4        0.0000 
     45 NZ          9.4300   36.4000  105.7700 N.4       4 LYS4        0.0000 
     46 CA          1.0000   33.7800  104.8600 C.3       5 GLY6        0.0000 
     47 CA          2.9000   32.8800  104.6300 C.3       5 GLY6        0.0000 
     48 CA          5.9700   37.3000  103.0300 C.3       5 GLY6        0.0000 
     49 CA          4.6900   36.9000  103.7000 C.3       5 GLY6        0.0000 
     50 CA          5.3100   35.6100  104.1300 C.3       5 GLY6        0.0000 
     51 CA          2.7400   34.8200  105.4700 C.3       5 GLY6        0.0000 
     52 CA          4.6500   33.9200  105.2300 C.3       5 GLY6        0.0000 
     53 CA          3.3700   33.5300  105.9000 C.3       5 GLY6        0.0000 
     54 CA          2.0800   33.1400  106.5700 C.3       5 GLY6        0.0000 
     55 CA          5.2700   32.6300  105.6700 C.3       5 GLY6        0.0000 
     56 CA          2.7000   31.8400  107.0000 C.3       5 GLY6        0.0000 
     57 CA          4.4900   35.8700  106.0700 C.3       5 GLY6        0.0000 
     58 CA          3.2100   35.4700  106.7400 C.3       5 GLY6        0.0000 
     59 CA          2.5400   33.7800  107.8400 C.3       5 GLY6        0.0000 
     60 CA          3.1700   32.4900  108.2700 C.3       5 GLY6        0.0000 
     61 CA          3.0100   34.4300  109.1100 C.3       5 GLY6        0.0000 
     62 CA         10.0500   35.1100  106.2100 C.3       5 GLY6        0.0000 
     63 DU          1.3000   36.3700  106.9700 H         6 CUB7        0.0000 
     64 DU          5.7700   36.2600  105.4000 H         6 CUB7        0.0000 
     65 DU          1.9200   35.0800  107.4000 H         6 CUB7        0.0000 
     66 DU          6.4000   34.9600  105.8400 H         6 CUB7        0.0000 
     67 DU          5.1100   34.5700  106.5000 H         6 CUB7        0.0000 
     68 DU          3.8300   34.1800  107.1700 H         6 CUB7        0.0000 
     69 DU          5.6100   38.2000  106.2400 H         6 CUB7        0.0000 
     70 DU          4.3300   37.8100  106.9100 H         6 CUB7        0.0000 
     71 DU          6.2400   36.9100  106.6700 H         6 CUB7        0.0000 
     72 DU          4.9500   36.5100  107.3400 H         6 CUB7        0.0000 
     73 DU          2.3800   35.7300  108.6800 H         6 CUB7        0.0000 
     74 DU          8.1400   36.0100  106.4400 H         6 CUB7        0.0000 
     75 DU          4.2900   34.8300  108.4400 H         6 CUB7        0.0000 
     76 DU          7.3600   39.2400  106.8400 H         6 CUB7        0.0000 
     77 DU          6.7000   37.5600  107.9400 H         6 CUB7        0.0000 
@<TRIPOS>BOND
@<TRIPOS>SUBSTRUCTURE
     1 SER1        1 GROUP   
     2 ALA2        4 GROUP   
     3 ASP3       20 GROUP   
     4 LYS4       44 GROUP   
     5 GLY6       46 GROUP   
     6 CUB7       63 GROUP   
@<TRIPOS>SET

