#    Name: 6eac_2_ANP
#    Modification time : Fri May 22 19:24:16 2020

@<TRIPOS>MOLECULE
6eac_2_ANP
   44    46     1     0     1
SMALL
NO_CHARGES


@<TRIPOS>ATOM
      1 PG         18.5440   25.0070   60.0320 P.3       1 ANP507      0.0000 
      2 O1G        19.6020   24.9480   58.9740 O.co2     1 ANP507      0.0000 
      3 O2G        19.2340   25.0580   61.4520 O.co2     1 ANP507      0.0000 
      4 O3G        17.6400   23.7090   59.9470 O.co2     1 ANP507      0.0000 
      5 PB         18.2840   27.8140   60.2250 P.3       1 ANP507      0.0000 
      6 O1B        19.4190   28.1420   59.3070 O.co2     1 ANP507      0.0000 
      7 O2B        17.2280   28.9550   60.1360 O.co2     1 ANP507      0.0000 
      8 N3B        17.5470   26.3630   59.8000 N.3       1 ANP507      0.0000 
      9 PA         19.5000   28.9180   62.4640 P.3       1 ANP507      0.0000 
     10 O1A        20.2740   29.7920   61.5500 O.co2     1 ANP507      0.0000 
     11 O2A        20.3450   28.2850   63.5770 O.co2     1 ANP507      0.0000 
     12 O3A        18.8240   27.6950   61.6860 O.3       1 ANP507      0.0000 
     13 O5'        18.3170   29.7920   63.0660 O.3       1 ANP507      0.0000 
     14 C5'        18.0890   29.9220   64.4920 C.3       1 ANP507      0.0000 
     15 C4'        16.6190   29.7190   64.7640 C.3       1 ANP507      0.0000 
     16 O4'        15.8660   30.7890   64.1470 O.3       1 ANP507      0.0000 
     17 C3'        16.0290   28.4220   64.2150 C.3       1 ANP507      0.0000 
     18 O3'        14.9980   27.9280   65.0620 O.3       1 ANP507      0.0000 
     19 C2'        15.4980   28.8540   62.8490 C.3       1 ANP507      0.0000 
     20 O2'        14.4410   28.0270   62.3780 O.3       1 ANP507      0.0000 
     21 C1'        15.0010   30.2670   63.1570 C.3       1 ANP507      0.0000 
     22 N9         15.0240   31.1580   62.0050 N.pl3     1 ANP507      0.0000 
     23 C8         16.1260   31.6460   61.3510 C.2       1 ANP507      0.0000 
     24 N7         15.8430   32.4230   60.3330 N.2       1 ANP507      0.0000 
     25 C5         14.4560   32.4450   60.3140 C.ar      1 ANP507      0.0000 
     26 C6         13.5300   33.0920   59.4730 C.ar      1 ANP507      0.0000 
     27 N6         13.8700   33.8720   58.4410 N.pl3     1 ANP507      0.0000 
     28 N1         12.2160   32.9030   59.7280 N.ar      1 ANP507      0.0000 
     29 C2         11.8630   32.1220   60.7520 C.ar      1 ANP507      0.0000 
     30 N3         12.6440   31.4620   61.6100 N.ar      1 ANP507      0.0000 
     31 C4         13.9380   31.6680   61.3350 C.ar      1 ANP507      0.0000 
     32 HNB1       16.8090   26.2610   60.3190 H         1 ANP507      0.0000 
     33 H5'1       18.3590   30.8100   64.7850 H         1 ANP507      0.0000 
     34 H5'2       18.6080   29.2510   64.9680 H         1 ANP507      0.0000 
     35 H4'        16.4310   29.7600   65.7250 H         1 ANP507      0.0000 
     36 H3'        16.7300   27.7750   64.1060 H         1 ANP507      0.0000 
     37 HO3'       14.5020   27.3450   64.6160 H         1 ANP507      0.0000 
     38 H2'        16.2170   28.9020   62.2070 H         1 ANP507      0.0000 
     39 HO2'       14.6990   27.6080   61.6380 H         1 ANP507      0.0000 
     40 H1'        14.1020   30.2020   63.5160 H         1 ANP507      0.0000 
     41 H8         17.0210   31.4380   61.6150 H         1 ANP507      0.0000 
     42 HN61       14.7610   34.0150   58.2440 H         1 ANP507      0.0000 
     43 HN62       13.2140   34.2690   57.9250 H         1 ANP507      0.0000 
     44 H2         10.9070   32.0190   60.8910 H         1 ANP507      0.0000 
@<TRIPOS>BOND
     1    1    2 ar   
     2    1    3 ar   
     3    1    4 ar   
     4    1    8 1    
     5    5    6 ar   
     6    5    7 ar   
     7    5    8 1    
     8    5   12 1    
     9    9   10 ar   
    10    8   32 1    
    11    9   11 ar   
    12    9   12 1    
    13    9   13 1    
    14   13   14 1    
    15   14   15 1    
    16   14   33 1    
    17   14   34 1    
    18   15   16 1    
    19   15   17 1    
    20   15   35 1    
    21   16   21 1    
    22   17   18 1    
    23   17   19 1    
    24   17   36 1    
    25   19   20 1    
    26   18   37 1    
    27   19   21 1    
    28   19   38 1    
    29   21   22 1    
    30   20   39 1    
    31   21   40 1    
    32   22   23 1    
    33   22   31 1    
    34   23   24 2    
    35   23   41 1    
    36   24   25 1    
    37   25   26 ar   
    38   25   31 ar   
    39   26   27 1    
    40   26   28 ar   
    41   27   42 1    
    42   27   43 1    
    43   28   29 ar   
    44   29   30 ar   
    45   29   44 1    
    46   30   31 ar   
@<TRIPOS>SUBSTRUCTURE
     1 ANP507      1 GROUP   
@<TRIPOS>SET
ATOM$ORANGE STATIC     ATOMS   COLORGROUP SYSTEM 
20 14 14 15 15 17 17 19 19 21 21 23 23 25 25 26 26 29 \
29 31 31 

