#    Name: 6eac_4_ANP
#    Modification time : Fri May 22 19:24:31 2020

@<TRIPOS>MOLECULE
6eac_4_ANP
   44    46     1     0     1
SMALL
NO_CHARGES


@<TRIPOS>ATOM
      1 PG          7.2450   44.9430   13.3750 P.3       1 ANP506      0.0000 
      2 O1G         8.4780   44.4850   12.5100 O.co2     1 ANP506      0.0000 
      3 O2G         6.6250   43.7310   13.9960 O.co2     1 ANP506      0.0000 
      4 O3G         7.7290   45.9440   14.4990 O.co2     1 ANP506      0.0000 
      5 PB          5.8020   45.0350   10.9250 P.3       1 ANP506      0.0000 
      6 O1B         4.8790   45.9770   10.0990 O.co2     1 ANP506      0.0000 
      7 O2B         5.0970   43.7260   11.0960 O.co2     1 ANP506      0.0000 
      8 N3B         6.1010   45.7600   12.4150 N.3       1 ANP506      0.0000 
      9 PA          7.2060   44.1900    8.7090 P.3       1 ANP506      0.0000 
     10 O1A         6.0760   43.2540    8.5000 O.co2     1 ANP506      0.0000 
     11 O2A         8.5820   43.5370    8.5320 O.co2     1 ANP506      0.0000 
     12 O3A         7.1600   44.8040   10.1840 O.3       1 ANP506      0.0000 
     13 O5'         7.0300   45.4220    7.7240 O.3       1 ANP506      0.0000 
     14 C5'         8.1340   45.9180    6.9290 C.3       1 ANP506      0.0000 
     15 C4'         8.1450   47.4250    6.9950 C.3       1 ANP506      0.0000 
     16 O4'         6.9000   47.9340    6.4660 O.3       1 ANP506      0.0000 
     17 C3'         8.2790   48.0120    8.3990 C.3       1 ANP506      0.0000 
     18 O3'         9.0270   49.2230    8.3810 O.3       1 ANP506      0.0000 
     19 C2'         6.8210   48.2300    8.8060 C.3       1 ANP506      0.0000 
     20 O2'         6.6570   49.2590    9.7750 O.3       1 ANP506      0.0000 
     21 C1'         6.1920   48.6330    7.4720 C.3       1 ANP506      0.0000 
     22 N9          4.7770   48.2930    7.3700 N.pl3     1 ANP506      0.0000 
     23 C8          4.2280   47.0460    7.2280 C.2       1 ANP506      0.0000 
     24 N7          2.9170   47.0410    7.1740 N.2       1 ANP506      0.0000 
     25 C5          2.5800   48.3800    7.2940 C.ar      1 ANP506      0.0000 
     26 C6          1.3390   49.0490    7.3110 C.ar      1 ANP506      0.0000 
     27 N6          0.1540   48.4380    7.2030 N.pl3     1 ANP506      0.0000 
     28 N1          1.3560   50.3930    7.4480 N.ar      1 ANP506      0.0000 
     29 C2          2.5320   51.0170    7.5590 C.ar      1 ANP506      0.0000 
     30 N3          3.7610   50.4950    7.5540 N.ar      1 ANP506      0.0000 
     31 C4          3.7150   49.1640    7.4190 C.ar      1 ANP506      0.0000 
     32 HNB1        5.3180   45.7760   12.8750 H         1 ANP506      0.0000 
     33 H5'1        8.0240   45.6310    6.0060 H         1 ANP506      0.0000 
     34 H5'2        8.9710   45.5680    7.2810 H         1 ANP506      0.0000 
     35 H4'         8.8600   47.7960    6.4390 H         1 ANP506      0.0000 
     36 H3'         8.6850   47.3640    8.9780 H         1 ANP506      0.0000 
     37 HO3'        8.8920   49.6430    7.6130 H         1 ANP506      0.0000 
     38 H2'         6.4350   47.3990    9.1090 H         1 ANP506      0.0000 
     39 HO2'        6.8610   48.9450   10.5800 H         1 ANP506      0.0000 
     40 H1'         6.3200   49.5860    7.3490 H         1 ANP506      0.0000 
     41 H8          4.7540   46.2490    7.1720 H         1 ANP506      0.0000 
     42 HN61        0.1140   47.5190    7.1100 H         1 ANP506      0.0000 
     43 HN62       -0.6260   48.9340    7.2210 H         1 ANP506      0.0000 
     44 H2          2.4870   51.9820    7.6560 H         1 ANP506      0.0000 
@<TRIPOS>BOND
     1    1    2 ar   
     2    1    3 ar   
     3    1    4 ar   
     4    1    8 1    
     5    5    6 ar   
     6    5    7 ar   
     7    5    8 1    
     8    5   12 1    
     9    9   10 ar   
    10    8   32 1    
    11    9   11 ar   
    12    9   12 1    
    13    9   13 1    
    14   13   14 1    
    15   14   15 1    
    16   14   33 1    
    17   14   34 1    
    18   15   16 1    
    19   15   17 1    
    20   15   35 1    
    21   16   21 1    
    22   17   18 1    
    23   17   19 1    
    24   17   36 1    
    25   19   20 1    
    26   18   37 1    
    27   19   21 1    
    28   19   38 1    
    29   21   22 1    
    30   20   39 1    
    31   21   40 1    
    32   22   23 1    
    33   22   31 1    
    34   23   24 2    
    35   23   41 1    
    36   24   25 1    
    37   25   26 ar   
    38   25   31 ar   
    39   26   27 1    
    40   26   28 ar   
    41   27   42 1    
    42   27   43 1    
    43   28   29 ar   
    44   29   30 ar   
    45   29   44 1    
    46   30   31 ar   
@<TRIPOS>SUBSTRUCTURE
     1 ANP506      1 GROUP   
@<TRIPOS>SET
ATOM$ORANGE STATIC     ATOMS   COLORGROUP SYSTEM 
20 14 14 15 15 17 17 19 19 21 21 23 23 25 25 26 26 29 \
29 31 31 

