#    Name: 6h3g_1_FAD
#    Modification time : Fri May 22 19:27:49 2020

@<TRIPOS>MOLECULE
6h3g_1_FAD
   53    58     1     0     1
SMALL
NO_CHARGES


@<TRIPOS>ATOM
      1 PA        -13.7790  130.1780   46.8780 P.3       1 FAD701      0.0000 
      2 O1A       -14.8150  129.4750   47.7030 O.co2     1 FAD701      0.0000 
      3 O2A       -12.4240  129.5570   47.0800 O.co2     1 FAD701      0.0000 
      4 O5B       -13.7710  131.7040   47.3450 O.3       1 FAD701      0.0000 
      5 C5B       -14.9220  132.4840   47.0490 C.3       1 FAD701      0.0000 
      6 C4B       -14.9550  133.7530   47.8850 C.3       1 FAD701      0.0000 
      7 O4B       -16.2220  134.3780   47.7060 O.3       1 FAD701      0.0000 
      8 C3B       -14.8300  133.4910   49.3700 C.3       1 FAD701      0.0000 
      9 O3B       -13.7100  134.2310   49.8470 O.3       1 FAD701      0.0000 
     10 C2B       -16.1270  133.9830   49.9790 C.3       1 FAD701      0.0000 
     11 O2B       -15.9060  134.6680   51.2130 O.3       1 FAD701      0.0000 
     12 C1B       -16.6940  134.9240   48.9300 C.3       1 FAD701      0.0000 
     13 N9A       -18.1810  135.0640   48.9100 N.pl3     1 FAD701      0.0000 
     14 C8A       -19.1180  134.0930   49.0210 C.2       1 FAD701      0.0000 
     15 N7A       -20.3770  134.6240   48.9600 N.2       1 FAD701      0.0000 
     16 C5A       -20.2510  135.9590   48.7930 C.ar      1 FAD701      0.0000 
     17 C6A       -21.1510  137.1270   48.6440 C.ar      1 FAD701      0.0000 
     18 N6A       -22.4880  136.9750   48.6670 N.pl3     1 FAD701      0.0000 
     19 N1A       -20.6090  138.3560   48.4890 N.ar      1 FAD701      0.0000 
     20 C2A       -19.2820  138.5450   48.4770 C.ar      1 FAD701      0.0000 
     21 N3A       -18.4090  137.5260   48.6120 N.ar      1 FAD701      0.0000 
     22 C4A       -18.8100  136.2380   48.7680 C.ar      1 FAD701      0.0000 
     23 N1         -7.4720  122.9870   46.8950 N.2       1 FAD701      0.0000 
     24 C2         -6.2640  122.4060   46.6740 C.2       1 FAD701      0.0000 
     25 O2         -5.6890  122.5980   45.5800 O.2       1 FAD701      0.0000 
     26 N3         -5.6610  121.6110   47.6010 N.am      1 FAD701      0.0000 
     27 C4         -6.2300  121.3510   48.7930 C.2       1 FAD701      0.0000 
     28 O4         -5.6680  120.6180   49.6090 O.2       1 FAD701      0.0000 
     29 C4X        -7.5380  121.9440   49.1040 C.2       1 FAD701      0.0000 
     30 N5         -8.1660  121.7420   50.2730 N.2       1 FAD701      0.0000 
     31 C5X        -9.1830  122.5680   50.6390 C.ar      1 FAD701      0.0000 
     32 C6         -9.5300  122.6820   51.9810 C.ar      1 FAD701      0.0000 
     33 C7        -10.4550  123.6340   52.4180 C.ar      1 FAD701      0.0000 
     34 C7M       -10.7900  123.6880   53.8860 C.3       1 FAD701      0.0000 
     35 C8        -11.0830  124.5710   51.4390 C.ar      1 FAD701      0.0000 
     36 C8M       -12.0800  125.6180   51.8670 C.3       1 FAD701      0.0000 
     37 C9        -10.7310  124.4620   50.0880 C.ar      1 FAD701      0.0000 
     38 C9A        -9.8110  123.4950   49.6540 C.ar      1 FAD701      0.0000 
     39 N10        -9.3760  123.4100   48.3140 N.pl3     1 FAD701      0.0000 
     40 C10        -8.1370  122.8000   48.0590 C.2       1 FAD701      0.0000 
     41 C1'       -10.2730  123.6980   47.1980 C.3       1 FAD701      0.0000 
     42 C2'       -10.1000  125.1120   46.6410 C.3       1 FAD701      0.0000 
     43 O2'        -9.5920  126.0510   47.5970 O.3       1 FAD701      0.0000 
     44 C3'       -11.4420  125.6510   46.1630 C.3       1 FAD701      0.0000 
     45 O3'       -12.2460  124.6640   45.4750 O.3       1 FAD701      0.0000 
     46 C4'       -11.1320  126.8450   45.2860 C.3       1 FAD701      0.0000 
     47 O4'       -10.5040  127.7930   46.1380 O.3       1 FAD701      0.0000 
     48 C5'       -12.4040  127.4000   44.6790 C.3       1 FAD701      0.0000 
     49 O5'       -12.2220  128.7590   44.3170 O.3       1 FAD701      0.0000 
     50 P         -13.5350  129.6380   43.9930 P.3       1 FAD701      0.0000 
     51 O1P       -14.5280  128.7360   43.2730 O.co2     1 FAD701      0.0000 
     52 O2P       -13.0980  130.8180   43.1390 O.co2     1 FAD701      0.0000 
     53 O3P       -14.2830  130.1900   45.3360 O.3       1 FAD701      0.0000 
@<TRIPOS>BOND
     1    1    2 ar   
     2    1    3 ar   
     3    1    4 1    
     4    1   53 1    
     5    4    5 1    
     6    5    6 1    
     7    6    7 1    
     8    6    8 1    
     9    7   12 1    
    10    8    9 1    
    11    8   10 1    
    12   10   11 1    
    13   10   12 1    
    14   12   13 1    
    15   13   14 1    
    16   13   22 1    
    17   14   15 2    
    18   15   16 1    
    19   16   17 ar   
    20   16   22 ar   
    21   17   18 1    
    22   17   19 ar   
    23   19   20 ar   
    24   20   21 ar   
    25   21   22 ar   
    26   23   24 1    
    27   23   40 2    
    28   24   25 2    
    29   24   26 am   
    30   26   27 am   
    31   27   28 2    
    32   27   29 1    
    33   29   30 2    
    34   29   40 1    
    35   30   31 1    
    36   31   32 ar   
    37   31   38 ar   
    38   32   33 ar   
    39   33   34 1    
    40   33   35 ar   
    41   35   36 1    
    42   35   37 ar   
    43   37   38 ar   
    44   38   39 1    
    45   39   40 1    
    46   39   41 1    
    47   41   42 1    
    48   42   43 1    
    49   42   44 1    
    50   44   45 1    
    51   44   46 1    
    52   46   47 1    
    53   46   48 1    
    54   48   49 1    
    55   49   50 1    
    56   50   51 ar   
    57   50   52 ar   
    58   50   53 1    
@<TRIPOS>SUBSTRUCTURE
     1 FAD701      1 GROUP   
@<TRIPOS>SET
ATOM$ORANGE STATIC     ATOMS   COLORGROUP SYSTEM 
54 5 5 6 6 8 8 10 10 12 12 14 14 16 16 17 17 20 \
20 22 22 24 24 27 27 29 29 31 31 32 32 33 33 34 34 35 \
35 36 36 37 37 38 38 40 40 41 41 42 42 44 44 46 46 48 \
48 

