#    Name: 6h3g_8_FAD
#    Modification time : Fri May 22 19:29:11 2020

@<TRIPOS>MOLECULE
6h3g_8_FAD
   53    58     1     0     1
SMALL
NO_CHARGES


@<TRIPOS>ATOM
      1 PA         12.7950  144.7250  128.4050 P.3       1 FAD701      0.0000 
      2 O1A        13.5030  145.7980  127.5920 O.co2     1 FAD701      0.0000 
      3 O2A        13.1970  143.3130  128.0600 O.co2     1 FAD701      0.0000 
      4 O5B        11.2200  144.8070  128.1390 O.3       1 FAD701      0.0000 
      5 C5B        10.5480  145.9250  128.6830 C.3       1 FAD701      0.0000 
      6 C4B         9.1520  146.0720  128.1160 C.3       1 FAD701      0.0000 
      7 O4B         8.6600  147.3450  128.5100 O.3       1 FAD701      0.0000 
      8 C3B         9.0750  146.0750  126.6040 C.3       1 FAD701      0.0000 
      9 O3B         7.9600  145.2680  126.2230 O.3       1 FAD701      0.0000 
     10 C2B         8.7490  147.4790  126.2160 C.3       1 FAD701      0.0000 
     11 O2B         7.9080  147.4350  125.0750 O.3       1 FAD701      0.0000 
     12 C1B         7.9710  147.9440  127.4230 C.3       1 FAD701      0.0000 
     13 N9A         7.9060  149.3950  127.6860 N.pl3     1 FAD701      0.0000 
     14 C8A         8.9430  150.2470  127.6990 C.2       1 FAD701      0.0000 
     15 N7A         8.5100  151.4930  128.0180 N.2       1 FAD701      0.0000 
     16 C5A         7.1850  151.4350  128.2190 C.ar      1 FAD701      0.0000 
     17 C6A         6.1240  152.4030  128.5900 C.ar      1 FAD701      0.0000 
     18 N6A         6.4520  153.7040  128.7830 N.pl3     1 FAD701      0.0000 
     19 N1A         4.8480  151.9460  128.7130 N.ar      1 FAD701      0.0000 
     20 C2A         4.5580  150.6340  128.5050 C.ar      1 FAD701      0.0000 
     21 N3A         5.4880  149.7050  128.1630 N.ar      1 FAD701      0.0000 
     22 C4A         6.7890  150.0440  128.0030 C.ar      1 FAD701      0.0000 
     23 N1         19.3690  138.0780  126.6720 N.2       1 FAD701      0.0000 
     24 C2         19.8450  136.8000  126.6790 C.2       1 FAD701      0.0000 
     25 O2         19.7630  136.1110  127.7290 O.2       1 FAD701      0.0000 
     26 N3         20.4350  136.2510  125.5770 N.am      1 FAD701      0.0000 
     27 C4         20.5850  136.9350  124.4170 C.2       1 FAD701      0.0000 
     28 O4         21.1290  136.4060  123.4390 O.2       1 FAD701      0.0000 
     29 C4X        20.0930  138.3280  124.3310 C.2       1 FAD701      0.0000 
     30 N5         20.2060  139.0660  123.2020 N.2       1 FAD701      0.0000 
     31 C5X        19.5280  140.2390  123.0970 C.ar      1 FAD701      0.0000 
     32 C6         19.2070  140.7110  121.8220 C.ar      1 FAD701      0.0000 
     33 C7         18.2360  141.7030  121.6390 C.ar      1 FAD701      0.0000 
     34 C7M        17.9330  142.1870  120.2410 C.3       1 FAD701      0.0000 
     35 C8         17.5070  142.2620  122.8210 C.ar      1 FAD701      0.0000 
     36 C8M        16.4500  143.3320  122.6800 C.3       1 FAD701      0.0000 
     37 C9         17.8170  141.7940  124.0970 C.ar      1 FAD701      0.0000 
     38 C9A        18.7990  140.8070  124.2880 C.ar      1 FAD701      0.0000 
     39 N10        18.9510  140.1740  125.5490 N.pl3     1 FAD701      0.0000 
     40 C10        19.4530  138.8640  125.5660 C.2       1 FAD701      0.0000 
     41 C1'        18.8180  140.9130  126.8060 C.3       1 FAD701      0.0000 
     42 C2'        17.4450  140.7360  127.4520 C.3       1 FAD701      0.0000 
     43 O2'        16.4180  140.4680  126.4900 O.3       1 FAD701      0.0000 
     44 C3'        17.0220  141.9800  128.2240 C.3       1 FAD701      0.0000 
     45 O3'        18.0860  142.5640  129.0080 O.3       1 FAD701      0.0000 
     46 C4'        15.8460  141.5920  129.1060 C.3       1 FAD701      0.0000 
     47 O4'        14.7500  141.2060  128.2660 O.3       1 FAD701      0.0000 
     48 C5'        15.4580  142.7500  130.0130 C.3       1 FAD701      0.0000 
     49 O5'        14.1170  142.5960  130.4710 O.3       1 FAD701      0.0000 
     50 P          13.3990  143.8750  131.1230 P.3       1 FAD701      0.0000 
     51 O1P        14.4150  144.4960  132.0690 O.co2     1 FAD701      0.0000 
     52 O2P        12.1260  143.4180  131.8360 O.co2     1 FAD701      0.0000 
     53 O3P        13.0750  144.9970  129.9810 O.3       1 FAD701      0.0000 
@<TRIPOS>BOND
     1    1    2 ar   
     2    1    3 ar   
     3    1    4 1    
     4    1   53 1    
     5    4    5 1    
     6    5    6 1    
     7    6    7 1    
     8    6    8 1    
     9    7   12 1    
    10    8    9 1    
    11    8   10 1    
    12   10   11 1    
    13   10   12 1    
    14   12   13 1    
    15   13   14 1    
    16   13   22 1    
    17   14   15 2    
    18   15   16 1    
    19   16   17 ar   
    20   16   22 ar   
    21   17   18 1    
    22   17   19 ar   
    23   19   20 ar   
    24   20   21 ar   
    25   21   22 ar   
    26   23   24 1    
    27   23   40 2    
    28   24   25 2    
    29   24   26 am   
    30   26   27 am   
    31   27   28 2    
    32   27   29 1    
    33   29   30 2    
    34   29   40 1    
    35   30   31 1    
    36   31   32 ar   
    37   31   38 ar   
    38   32   33 ar   
    39   33   34 1    
    40   33   35 ar   
    41   35   36 1    
    42   35   37 ar   
    43   37   38 ar   
    44   38   39 1    
    45   39   40 1    
    46   39   41 1    
    47   41   42 1    
    48   42   43 1    
    49   42   44 1    
    50   44   45 1    
    51   44   46 1    
    52   46   47 1    
    53   46   48 1    
    54   48   49 1    
    55   49   50 1    
    56   50   51 ar   
    57   50   52 ar   
    58   50   53 1    
@<TRIPOS>SUBSTRUCTURE
     1 FAD701      1 GROUP   
@<TRIPOS>SET
ATOM$ORANGE STATIC     ATOMS   COLORGROUP SYSTEM 
54 5 5 6 6 8 8 10 10 12 12 14 14 16 16 17 17 20 \
20 22 22 24 24 27 27 29 29 31 31 32 32 33 33 34 34 35 \
35 36 36 37 37 38 38 40 40 41 41 42 42 44 44 46 46 48 \
48 

