#    Name: 6h3g_3_FAD
#    Modification time : Fri May 22 19:28:12 2020

@<TRIPOS>MOLECULE
6h3g_3_FAD
   53    58     1     0     1
SMALL
NO_CHARGES


@<TRIPOS>ATOM
      1 PA         29.4140  104.4630   49.0970 P.3       1 FAD701      0.0000 
      2 O1A        29.3950  103.5070   50.2520 O.co2     1 FAD701      0.0000 
      3 O2A        29.6710  105.8600   49.5950 O.co2     1 FAD701      0.0000 
      4 O5B        28.0170  104.4550   48.3300 O.3       1 FAD701      0.0000 
      5 C5B        27.4760  103.2390   47.8660 C.3       1 FAD701      0.0000 
      6 C4B        25.9970  103.4910   47.6800 C.3       1 FAD701      0.0000 
      7 O4B        25.4640  102.4380   46.8980 O.3       1 FAD701      0.0000 
      8 C3B        25.1950  103.5400   48.9840 C.3       1 FAD701      0.0000 
      9 O3B        24.4120  104.7400   49.0690 O.3       1 FAD701      0.0000 
     10 C2B        24.2710  102.3480   48.9180 C.3       1 FAD701      0.0000 
     11 O2B        22.9580  102.6310   49.4100 O.3       1 FAD701      0.0000 
     12 C1B        24.2080  102.0690   47.4350 C.3       1 FAD701      0.0000 
     13 N9A        23.9800  100.6530   47.1630 N.pl3     1 FAD701      0.0000 
     14 C8A        24.6510   99.6050   47.6760 C.2       1 FAD701      0.0000 
     15 N7A        24.1570   98.4440   47.1800 N.2       1 FAD701      0.0000 
     16 C5A        23.1670   98.7790   46.3310 C.ar      1 FAD701      0.0000 
     17 C6A        22.2260   98.0570   45.4690 C.ar      1 FAD701      0.0000 
     18 N6A        22.2430   96.7090   45.4120 N.pl3     1 FAD701      0.0000 
     19 N1A        21.3510   98.7960   44.7510 N.ar      1 FAD701      0.0000 
     20 C2A        21.3110  100.1470   44.7890 C.ar      1 FAD701      0.0000 
     21 N3A        22.1410  100.8620   45.5600 N.ar      1 FAD701      0.0000 
     22 C4A        23.0580  100.2380   46.3250 C.ar      1 FAD701      0.0000 
     23 N1         35.4140  109.9020   54.5070 N.2       1 FAD701      0.0000 
     24 C2         36.1600  110.9820   54.8370 C.2       1 FAD701      0.0000 
     25 O2         36.6020  111.7030   53.9230 O.2       1 FAD701      0.0000 
     26 N3         36.4520  111.3060   56.1240 N.am      1 FAD701      0.0000 
     27 C4         36.0290  110.5660   57.1710 C.2       1 FAD701      0.0000 
     28 O4         36.3460  110.8920   58.3300 O.2       1 FAD701      0.0000 
     29 C4X        35.2050  109.3640   56.8950 C.2       1 FAD701      0.0000 
     30 N5         34.7140  108.5560   57.8630 N.2       1 FAD701      0.0000 
     31 C5X        33.6260  107.7990   57.5430 C.ar      1 FAD701      0.0000 
     32 C6         32.6240  107.5280   58.4860 C.ar      1 FAD701      0.0000 
     33 C7         31.5210  106.7220   58.1570 C.ar      1 FAD701      0.0000 
     34 C7M        30.4560  106.4270   59.1820 C.3       1 FAD701      0.0000 
     35 C8         31.4050  106.1540   56.7770 C.ar      1 FAD701      0.0000 
     36 C8M        30.2400  105.2750   56.3810 C.3       1 FAD701      0.0000 
     37 C9         32.3980  106.4320   55.8290 C.ar      1 FAD701      0.0000 
     38 C9A        33.5030  107.2390   56.1460 C.ar      1 FAD701      0.0000 
     39 N10        34.1510  107.9470   55.0970 N.pl3     1 FAD701      0.0000 
     40 C10        34.9170  109.0800   55.4580 C.2       1 FAD701      0.0000 
     41 C1'        34.6110  107.1940   53.9210 C.3       1 FAD701      0.0000 
     42 C2'        33.8500  107.6020   52.6640 C.3       1 FAD701      0.0000 
     43 O2'        32.5490  108.0670   53.0280 O.3       1 FAD701      0.0000 
     44 C3'        33.7530  106.4300   51.6910 C.3       1 FAD701      0.0000 
     45 O3'        35.0650  106.0650   51.2630 O.3       1 FAD701      0.0000 
     46 C4'        32.9440  106.7450   50.4480 C.3       1 FAD701      0.0000 
     47 O4'        31.6650  107.2460   50.8390 O.3       1 FAD701      0.0000 
     48 C5'        32.7760  105.4870   49.5960 C.3       1 FAD701      0.0000 
     49 O5'        32.3150  105.8420   48.2870 O.3       1 FAD701      0.0000 
     50 P          31.6260  104.7760   47.2800 P.3       1 FAD701      0.0000 
     51 O1P        32.7240  103.8250   46.8520 O.co2     1 FAD701      0.0000 
     52 O2P        31.0020  105.4640   46.0640 O.co2     1 FAD701      0.0000 
     53 O3P        30.5190  103.9050   48.0650 O.3       1 FAD701      0.0000 
@<TRIPOS>BOND
     1    1    2 ar   
     2    1    3 ar   
     3    1    4 1    
     4    1   53 1    
     5    4    5 1    
     6    5    6 1    
     7    6    7 1    
     8    6    8 1    
     9    7   12 1    
    10    8    9 1    
    11    8   10 1    
    12   10   11 1    
    13   10   12 1    
    14   12   13 1    
    15   13   14 1    
    16   13   22 1    
    17   14   15 2    
    18   15   16 1    
    19   16   17 ar   
    20   16   22 ar   
    21   17   18 1    
    22   17   19 ar   
    23   19   20 ar   
    24   20   21 ar   
    25   21   22 ar   
    26   23   24 1    
    27   23   40 2    
    28   24   25 2    
    29   24   26 am   
    30   26   27 am   
    31   27   28 2    
    32   27   29 1    
    33   29   30 2    
    34   29   40 1    
    35   30   31 1    
    36   31   32 ar   
    37   31   38 ar   
    38   32   33 ar   
    39   33   34 1    
    40   33   35 ar   
    41   35   36 1    
    42   35   37 ar   
    43   37   38 ar   
    44   38   39 1    
    45   39   40 1    
    46   39   41 1    
    47   41   42 1    
    48   42   43 1    
    49   42   44 1    
    50   44   45 1    
    51   44   46 1    
    52   46   47 1    
    53   46   48 1    
    54   48   49 1    
    55   49   50 1    
    56   50   51 ar   
    57   50   52 ar   
    58   50   53 1    
@<TRIPOS>SUBSTRUCTURE
     1 FAD701      1 GROUP   
@<TRIPOS>SET
ATOM$ORANGE STATIC     ATOMS   COLORGROUP SYSTEM 
54 5 5 6 6 8 8 10 10 12 12 14 14 16 16 17 17 20 \
20 22 22 24 24 27 27 29 29 31 31 32 32 33 33 34 34 35 \
35 36 36 37 37 38 38 40 40 41 41 42 42 44 44 46 46 48 \
48 

