#    Name: 6h3g_5_FAD
#    Modification time : Fri May 22 19:28:36 2020

@<TRIPOS>MOLECULE
6h3g_5_FAD
   53    58     1     0     1
SMALL
NO_CHARGES


@<TRIPOS>ATOM
      1 PA         -7.1310   84.3370   96.6280 P.3       1 FAD701      0.0000 
      2 O1A        -6.8960   84.4730   95.1450 O.co2     1 FAD701      0.0000 
      3 O2A        -7.4280   85.6780   97.2550 O.co2     1 FAD701      0.0000 
      4 O5B        -5.7630   83.7960   97.2500 O.3       1 FAD701      0.0000 
      5 C5B        -5.1050   82.6840   96.6620 C.3       1 FAD701      0.0000 
      6 C4B        -3.6500   82.7510   97.0820 C.3       1 FAD701      0.0000 
      7 O4B        -3.0810   81.4450   96.9820 O.3       1 FAD701      0.0000 
      8 C3B        -2.8470   83.7010   96.1920 C.3       1 FAD701      0.0000 
      9 O3B        -2.1150   84.6200   97.0030 O.3       1 FAD701      0.0000 
     10 C2B        -1.9340   82.7910   95.3890 C.3       1 FAD701      0.0000 
     11 O2B        -0.6210   83.3050   95.1360 O.3       1 FAD701      0.0000 
     12 C1B        -1.8490   81.5510   96.2660 C.3       1 FAD701      0.0000 
     13 N9A        -1.5360   80.3430   95.4700 N.pl3     1 FAD701      0.0000 
     14 C8A        -2.0400   79.9390   94.2820 C.2       1 FAD701      0.0000 
     15 N7A        -1.4650   78.7630   93.8970 N.2       1 FAD701      0.0000 
     16 C5A        -0.5810   78.4100   94.8550 C.ar      1 FAD701      0.0000 
     17 C6A         0.3710   77.3000   95.1160 C.ar      1 FAD701      0.0000 
     18 N6A         0.5380   76.2730   94.2630 N.pl3     1 FAD701      0.0000 
     19 N1A         1.0970   77.3470   96.2530 N.ar      1 FAD701      0.0000 
     20 C2A         0.9900   78.3450   97.1620 C.ar      1 FAD701      0.0000 
     21 N3A         0.1450   79.3790   96.9980 N.ar      1 FAD701      0.0000 
     22 C4A        -0.6390   79.4610   95.8880 C.ar      1 FAD701      0.0000 
     23 N1        -13.5230   91.7760   97.0300 N.2       1 FAD701      0.0000 
     24 C2        -14.2170   92.8100   97.5840 C.2       1 FAD701      0.0000 
     25 O2        -14.7180   92.6660   98.7240 O.2       1 FAD701      0.0000 
     26 N3        -14.3920   93.9930   96.9280 N.am      1 FAD701      0.0000 
     27 C4        -13.8910   94.2100   95.6870 C.2       1 FAD701      0.0000 
     28 O4        -14.0720   95.2930   95.1080 O.2       1 FAD701      0.0000 
     29 C4X       -13.1240   93.1320   95.0310 C.2       1 FAD701      0.0000 
     30 N5        -12.5840   93.2720   93.8060 N.2       1 FAD701      0.0000 
     31 C5X       -11.5600   92.4540   93.4530 C.ar      1 FAD701      0.0000 
     32 C6        -10.5570   92.9110   92.5970 C.ar      1 FAD701      0.0000 
     33 C7         -9.4420   92.1190   92.3090 C.ar      1 FAD701      0.0000 
     34 C7M        -8.3810   92.6390   91.3710 C.3       1 FAD701      0.0000 
     35 C8         -9.3140   90.7670   92.9360 C.ar      1 FAD701      0.0000 
     36 C8M        -8.1330   89.8680   92.6580 C.3       1 FAD701      0.0000 
     37 C9        -10.3110   90.3050   93.7970 C.ar      1 FAD701      0.0000 
     38 C9A       -11.4320   91.0960   94.0860 C.ar      1 FAD701      0.0000 
     39 N10       -12.2340   90.8010   95.2190 N.pl3     1 FAD701      0.0000 
     40 C10       -12.9640   91.8660   95.7970 C.2       1 FAD701      0.0000 
     41 C1'       -12.6160   89.4090   95.4950 C.3       1 FAD701      0.0000 
     42 C2'       -11.8130   88.7880   96.6460 C.3       1 FAD701      0.0000 
     43 O2'       -10.5870   89.4800   96.9220 O.3       1 FAD701      0.0000 
     44 C3'       -11.4640   87.3310   96.3690 C.3       1 FAD701      0.0000 
     45 O3'       -12.6190   86.5950   95.9460 O.3       1 FAD701      0.0000 
     46 C4'       -10.8700   86.7440   97.6380 C.3       1 FAD701      0.0000 
     47 O4'        -9.5550   87.2720   97.7790 O.3       1 FAD701      0.0000 
     48 C5'       -10.8040   85.2310   97.5960 C.3       1 FAD701      0.0000 
     49 O5'        -9.8360   84.7580   98.5330 O.3       1 FAD701      0.0000 
     50 P          -9.1930   83.2940   98.3130 P.3       1 FAD701      0.0000 
     51 O1P       -10.3810   82.3520   98.2090 O.co2     1 FAD701      0.0000 
     52 O2P        -8.2860   82.8800   99.4620 O.co2     1 FAD701      0.0000 
     53 O3P        -8.3420   83.3050   96.9250 O.3       1 FAD701      0.0000 
@<TRIPOS>BOND
     1    1    2 ar   
     2    1    3 ar   
     3    1    4 1    
     4    1   53 1    
     5    4    5 1    
     6    5    6 1    
     7    6    7 1    
     8    6    8 1    
     9    7   12 1    
    10    8    9 1    
    11    8   10 1    
    12   10   11 1    
    13   10   12 1    
    14   12   13 1    
    15   13   14 1    
    16   13   22 1    
    17   14   15 2    
    18   15   16 1    
    19   16   17 ar   
    20   16   22 ar   
    21   17   18 1    
    22   17   19 ar   
    23   19   20 ar   
    24   20   21 ar   
    25   21   22 ar   
    26   23   24 1    
    27   23   40 2    
    28   24   25 2    
    29   24   26 am   
    30   26   27 am   
    31   27   28 2    
    32   27   29 1    
    33   29   30 2    
    34   29   40 1    
    35   30   31 1    
    36   31   32 ar   
    37   31   38 ar   
    38   32   33 ar   
    39   33   34 1    
    40   33   35 ar   
    41   35   36 1    
    42   35   37 ar   
    43   37   38 ar   
    44   38   39 1    
    45   39   40 1    
    46   39   41 1    
    47   41   42 1    
    48   42   43 1    
    49   42   44 1    
    50   44   45 1    
    51   44   46 1    
    52   46   47 1    
    53   46   48 1    
    54   48   49 1    
    55   49   50 1    
    56   50   51 ar   
    57   50   52 ar   
    58   50   53 1    
@<TRIPOS>SUBSTRUCTURE
     1 FAD701      1 GROUP   
@<TRIPOS>SET
ATOM$ORANGE STATIC     ATOMS   COLORGROUP SYSTEM 
54 5 5 6 6 8 8 10 10 12 12 14 14 16 16 17 17 20 \
20 22 22 24 24 27 27 29 29 31 31 32 32 33 33 34 34 35 \
35 36 36 37 37 38 38 40 40 41 41 42 42 44 44 46 46 48 \
48 

