#    Name: 6h3g_7_FAD
#    Modification time : Fri May 22 19:29:01 2020

@<TRIPOS>MOLECULE
6h3g_7_FAD
   53    58     1     0     1
SMALL
NO_CHARGES


@<TRIPOS>ATOM
      1 PA        -30.2580  127.6360  108.0530 P.3       1 FAD701      0.0000 
      2 O1A       -30.4880  128.5040  106.8370 O.co2     1 FAD701      0.0000 
      3 O2A       -28.8710  127.7600  108.6260 O.co2     1 FAD701      0.0000 
      4 O5B       -30.4190  126.1310  107.6010 O.3       1 FAD701      0.0000 
      5 C5B       -31.5660  125.8090  106.8710 C.3       1 FAD701      0.0000 
      6 C4B       -31.3800  124.3910  106.4510 C.3       1 FAD701      0.0000 
      7 O4B       -32.6570  123.9760  106.0410 O.3       1 FAD701      0.0000 
      8 C3B       -30.4370  124.2570  105.2750 C.3       1 FAD701      0.0000 
      9 O3B       -29.5350  123.1780  105.5360 O.3       1 FAD701      0.0000 
     10 C2B       -31.3370  123.9680  104.0910 C.3       1 FAD701      0.0000 
     11 O2B       -30.8200  123.0060  103.1690 O.3       1 FAD701      0.0000 
     12 C1B       -32.5570  123.3910  104.7520 C.3       1 FAD701      0.0000 
     13 N9A       -33.8080  123.6400  104.0140 N.pl3     1 FAD701      0.0000 
     14 C8A       -34.3780  124.8110  103.6740 C.2       1 FAD701      0.0000 
     15 N7A       -35.5450  124.5710  103.0150 N.2       1 FAD701      0.0000 
     16 C5A       -35.7270  123.2340  102.9540 C.ar      1 FAD701      0.0000 
     17 C6A       -36.7260  122.2780  102.4220 C.ar      1 FAD701      0.0000 
     18 N6A       -37.8440  122.6970  101.7850 N.pl3     1 FAD701      0.0000 
     19 N1A       -36.4950  120.9570  102.5970 N.ar      1 FAD701      0.0000 
     20 C2A       -35.4150  120.4780  103.2310 C.ar      1 FAD701      0.0000 
     21 N3A       -34.4770  121.2790  103.7340 N.ar      1 FAD701      0.0000 
     22 C4A       -34.5770  122.6300  103.6260 C.ar      1 FAD701      0.0000 
     23 N1        -23.0780  133.5040  111.4750 N.2       1 FAD701      0.0000 
     24 C2        -22.0550  133.9440  112.2510 C.2       1 FAD701      0.0000 
     25 O2        -22.0540  133.6510  113.4630 O.2       1 FAD701      0.0000 
     26 N3        -21.0420  134.7100  111.7590 N.am      1 FAD701      0.0000 
     27 C4        -20.9870  135.0880  110.4610 C.2       1 FAD701      0.0000 
     28 O4        -20.0560  135.8010  110.0430 O.2       1 FAD701      0.0000 
     29 C4X       -22.0660  134.6360  109.5560 C.2       1 FAD701      0.0000 
     30 N5        -22.1060  134.9450  108.2420 N.2       1 FAD701      0.0000 
     31 C5X       -22.8830  134.2100  107.4030 C.ar      1 FAD701      0.0000 
     32 C6        -22.4640  134.0030  106.0870 C.ar      1 FAD701      0.0000 
     33 C7        -23.1610  133.1350  105.2460 C.ar      1 FAD701      0.0000 
     34 C7M       -22.6680  132.9550  103.8290 C.3       1 FAD701      0.0000 
     35 C8        -24.3660  132.4010  105.7740 C.ar      1 FAD701      0.0000 
     36 C8M       -25.1530  131.4470  104.9040 C.3       1 FAD701      0.0000 
     37 C9        -24.7860  132.5990  107.0970 C.ar      1 FAD701      0.0000 
     38 C9A       -24.0830  133.4740  107.9400 C.ar      1 FAD701      0.0000 
     39 N10       -24.1900  133.3410  109.3500 N.pl3     1 FAD701      0.0000 
     40 C10       -23.1330  133.7990  110.1570 C.2       1 FAD701      0.0000 
     41 C1'       -25.5070  133.2990  109.9660 C.3       1 FAD701      0.0000 
     42 C2'       -25.8350  131.8810  110.4030 C.3       1 FAD701      0.0000 
     43 O2'       -25.0450  130.9030  109.7020 O.3       1 FAD701      0.0000 
     44 C3'       -27.3150  131.6520  110.1420 C.3       1 FAD701      0.0000 
     45 O3'       -28.0990  132.7530  110.6350 O.3       1 FAD701      0.0000 
     46 C4'       -27.7270  130.3440  110.7860 C.3       1 FAD701      0.0000 
     47 O4'       -27.1520  129.2910  110.0020 O.3       1 FAD701      0.0000 
     48 C5'       -29.2400  130.2070  110.8430 C.3       1 FAD701      0.0000 
     49 O5'       -29.5680  128.8310  110.9600 O.3       1 FAD701      0.0000 
     50 P         -31.0620  128.2990  110.6880 P.3       1 FAD701      0.0000 
     51 O1P       -31.9880  129.3840  111.1870 O.co2     1 FAD701      0.0000 
     52 O2P       -31.2310  126.9620  111.4000 O.co2     1 FAD701      0.0000 
     53 O3P       -31.3780  128.0560  109.1270 O.3       1 FAD701      0.0000 
@<TRIPOS>BOND
     1    1    2 ar   
     2    1    3 ar   
     3    1    4 1    
     4    1   53 1    
     5    4    5 1    
     6    5    6 1    
     7    6    7 1    
     8    6    8 1    
     9    7   12 1    
    10    8    9 1    
    11    8   10 1    
    12   10   11 1    
    13   10   12 1    
    14   12   13 1    
    15   13   14 1    
    16   13   22 1    
    17   14   15 2    
    18   15   16 1    
    19   16   17 ar   
    20   16   22 ar   
    21   17   18 1    
    22   17   19 ar   
    23   19   20 ar   
    24   20   21 ar   
    25   21   22 ar   
    26   23   24 1    
    27   23   40 2    
    28   24   25 2    
    29   24   26 am   
    30   26   27 am   
    31   27   28 2    
    32   27   29 1    
    33   29   30 2    
    34   29   40 1    
    35   30   31 1    
    36   31   32 ar   
    37   31   38 ar   
    38   32   33 ar   
    39   33   34 1    
    40   33   35 ar   
    41   35   36 1    
    42   35   37 ar   
    43   37   38 ar   
    44   38   39 1    
    45   39   40 1    
    46   39   41 1    
    47   41   42 1    
    48   42   43 1    
    49   42   44 1    
    50   44   45 1    
    51   44   46 1    
    52   46   47 1    
    53   46   48 1    
    54   48   49 1    
    55   49   50 1    
    56   50   51 ar   
    57   50   52 ar   
    58   50   53 1    
@<TRIPOS>SUBSTRUCTURE
     1 FAD701      1 GROUP   
@<TRIPOS>SET
ATOM$ORANGE STATIC     ATOMS   COLORGROUP SYSTEM 
54 5 5 6 6 8 8 10 10 12 12 14 14 16 16 17 17 20 \
20 22 22 24 24 27 27 29 29 31 31 32 32 33 33 34 34 35 \
35 36 36 37 37 38 38 40 40 41 41 42 42 44 44 46 46 48 \
48 

