#    Name: 6h3g_2_FAD
#    Modification time : Fri May 22 19:28:01 2020

@<TRIPOS>MOLECULE
6h3g_2_FAD
   53    58     1     0     1
SMALL
NO_CHARGES


@<TRIPOS>ATOM
      1 PA          8.4000  168.8740   69.5730 P.3       1 FAD701      0.0000 
      2 O1A         7.7630  168.7550   70.9310 O.co2     1 FAD701      0.0000 
      3 O2A         8.2510  167.5820   68.8150 O.co2     1 FAD701      0.0000 
      4 O5B         9.9700  169.1330   69.7620 O.3       1 FAD701      0.0000 
      5 C5B        10.4490  170.2350   70.5270 C.3       1 FAD701      0.0000 
      6 C4B        11.8830  169.9460   70.9570 C.3       1 FAD701      0.0000 
      7 O4B        12.4160  171.1270   71.5450 O.3       1 FAD701      0.0000 
      8 C3B        12.0150  168.8290   71.9970 C.3       1 FAD701      0.0000 
      9 O3B        12.9060  167.7930   71.5470 O.3       1 FAD701      0.0000 
     10 C2B        12.5530  169.5230   73.2350 C.3       1 FAD701      0.0000 
     11 O2B        13.4980  168.6990   73.9100 O.3       1 FAD701      0.0000 
     12 C1B        13.1930  170.7950   72.6930 C.3       1 FAD701      0.0000 
     13 N9A        13.1540  171.9860   73.5750 N.pl3     1 FAD701      0.0000 
     14 C8A        12.0580  172.5700   74.0970 C.2       1 FAD701      0.0000 
     15 N7A        12.4030  173.6570   74.8340 N.2       1 FAD701      0.0000 
     16 C5A        13.7430  173.7910   74.7700 C.ar      1 FAD701      0.0000 
     17 C6A        14.7670  174.7270   75.3110 C.ar      1 FAD701      0.0000 
     18 N6A        14.4350  175.7890   76.1050 N.pl3     1 FAD701      0.0000 
     19 N1A        16.0560  174.4760   74.9780 N.ar      1 FAD701      0.0000 
     20 C2A        16.4220  173.4270   74.2020 C.ar      1 FAD701      0.0000 
     21 N3A        15.5400  172.5540   73.6940 N.ar      1 FAD701      0.0000 
     22 C4A        14.2210  172.6820   73.9340 C.ar      1 FAD701      0.0000 
     23 N1          1.9270  162.8120   66.2860 N.2       1 FAD701      0.0000 
     24 C2          1.3610  161.9500   65.4140 C.2       1 FAD701      0.0000 
     25 O2          1.4590  162.1600   64.1840 O.2       1 FAD701      0.0000 
     26 N3          0.6760  160.8570   65.8320 N.am      1 FAD701      0.0000 
     27 C4          0.5060  160.5550   67.1310 C.2       1 FAD701      0.0000 
     28 O4         -0.1410  159.5490   67.4510 O.2       1 FAD701      0.0000 
     29 C4X         1.0950  161.4490   68.1430 C.2       1 FAD701      0.0000 
     30 N5          0.9880  161.2300   69.4730 N.2       1 FAD701      0.0000 
     31 C5X         1.7660  161.9330   70.3540 C.ar      1 FAD701      0.0000 
     32 C6          2.0700  161.3780   71.6120 C.ar      1 FAD701      0.0000 
     33 C7          3.0450  161.9400   72.4440 C.ar      1 FAD701      0.0000 
     34 C7M         3.3400  161.3140   73.7840 C.3       1 FAD701      0.0000 
     35 C8          3.7850  163.1460   71.9810 C.ar      1 FAD701      0.0000 
     36 C8M         4.8430  163.7740   72.8490 C.3       1 FAD701      0.0000 
     37 C9          3.4990  163.7090   70.7310 C.ar      1 FAD701      0.0000 
     38 C9A         2.5190  163.1560   69.8920 C.ar      1 FAD701      0.0000 
     39 N10         2.4440  163.5150   68.5130 N.pl3     1 FAD701      0.0000 
     40 C10         1.8380  162.6170   67.6160 C.2       1 FAD701      0.0000 
     41 C1'         2.4850  164.9190   68.1030 C.3       1 FAD701      0.0000 
     42 C2'         3.8200  165.2890   67.4700 C.3       1 FAD701      0.0000 
     43 O2'         4.8840  164.4340   67.9340 O.3       1 FAD701      0.0000 
     44 C3'         4.1020  166.7500   67.8000 C.3       1 FAD701      0.0000 
     45 O3'         2.9880  167.5520   67.3970 O.3       1 FAD701      0.0000 
     46 C4'         5.3900  167.1950   67.1290 C.3       1 FAD701      0.0000 
     47 O4'         6.4770  166.6400   67.8850 O.3       1 FAD701      0.0000 
     48 C5'         5.4830  168.7160   67.0290 C.3       1 FAD701      0.0000 
     49 O5'         6.7650  169.0870   66.5210 O.3       1 FAD701      0.0000 
     50 P           7.5710  170.3330   67.1550 P.3       1 FAD701      0.0000 
     51 O1P         6.7220  171.5520   66.8370 O.co2     1 FAD701      0.0000 
     52 O2P         8.9450  170.4960   66.5260 O.co2     1 FAD701      0.0000 
     53 O3P         7.7050  170.1150   68.7780 O.3       1 FAD701      0.0000 
@<TRIPOS>BOND
     1    1    2 ar   
     2    1    3 ar   
     3    1    4 1    
     4    1   53 1    
     5    4    5 1    
     6    5    6 1    
     7    6    7 1    
     8    6    8 1    
     9    7   12 1    
    10    8    9 1    
    11    8   10 1    
    12   10   11 1    
    13   10   12 1    
    14   12   13 1    
    15   13   14 1    
    16   13   22 1    
    17   14   15 2    
    18   15   16 1    
    19   16   17 ar   
    20   16   22 ar   
    21   17   18 1    
    22   17   19 ar   
    23   19   20 ar   
    24   20   21 ar   
    25   21   22 ar   
    26   23   24 1    
    27   23   40 2    
    28   24   25 2    
    29   24   26 am   
    30   26   27 am   
    31   27   28 2    
    32   27   29 1    
    33   29   30 2    
    34   29   40 1    
    35   30   31 1    
    36   31   32 ar   
    37   31   38 ar   
    38   32   33 ar   
    39   33   34 1    
    40   33   35 ar   
    41   35   36 1    
    42   35   37 ar   
    43   37   38 ar   
    44   38   39 1    
    45   39   40 1    
    46   39   41 1    
    47   41   42 1    
    48   42   43 1    
    49   42   44 1    
    50   44   45 1    
    51   44   46 1    
    52   46   47 1    
    53   46   48 1    
    54   48   49 1    
    55   49   50 1    
    56   50   51 ar   
    57   50   52 ar   
    58   50   53 1    
@<TRIPOS>SUBSTRUCTURE
     1 FAD701      1 GROUP   
@<TRIPOS>SET
ATOM$ORANGE STATIC     ATOMS   COLORGROUP SYSTEM 
54 5 5 6 6 8 8 10 10 12 12 14 14 16 16 17 17 20 \
20 22 22 24 24 27 27 29 29 31 31 32 32 33 33 34 34 35 \
35 36 36 37 37 38 38 40 40 41 41 42 42 44 44 46 46 48 \
48 

