#    Name: 6h3g_6_FAD
#    Modification time : Fri May 22 19:28:48 2020

@<TRIPOS>MOLECULE
6h3g_6_FAD
   53    58     1     0     1
SMALL
NO_CHARGES


@<TRIPOS>ATOM
      1 PA         35.5220  101.5070  116.9960 P.3       1 FAD701      0.0000 
      2 O1A        36.4070  101.6990  115.7920 O.co2     1 FAD701      0.0000 
      3 O2A        34.0640  101.4100  116.6240 O.co2     1 FAD701      0.0000 
      4 O5B        35.6540  102.7680  117.9590 O.3       1 FAD701      0.0000 
      5 C5B        36.9470  103.2850  118.2230 C.3       1 FAD701      0.0000 
      6 C4B        36.7860  104.7140  118.6810 C.3       1 FAD701      0.0000 
      7 O4B        38.0080  105.0650  119.3020 O.3       1 FAD701      0.0000 
      8 C3B        36.5480  105.6980  117.5380 C.3       1 FAD701      0.0000 
      9 O3B        35.3540  106.4540  117.7480 O.3       1 FAD701      0.0000 
     10 C2B        37.7660  106.6120  117.5420 C.3       1 FAD701      0.0000 
     11 O2B        37.4460  107.9910  117.2610 O.3       1 FAD701      0.0000 
     12 C1B        38.3380  106.3930  118.9360 C.3       1 FAD701      0.0000 
     13 N9A        39.7990  106.4940  119.0320 N.pl3     1 FAD701      0.0000 
     14 C8A        40.7190  105.8710  118.2970 C.2       1 FAD701      0.0000 
     15 N7A        41.9590  106.2250  118.7130 N.2       1 FAD701      0.0000 
     16 C5A        41.8160  107.0750  119.7480 C.ar      1 FAD701      0.0000 
     17 C6A        42.6960  107.8450  120.6540 C.ar      1 FAD701      0.0000 
     18 N6A        44.0480  107.7740  120.5700 N.pl3     1 FAD701      0.0000 
     19 N1A        42.1110  108.6280  121.5830 N.ar      1 FAD701      0.0000 
     20 C2A        40.7750  108.7200  121.7060 C.ar      1 FAD701      0.0000 
     21 N3A        39.9280  108.0570  120.9110 N.ar      1 FAD701      0.0000 
     22 C4A        40.3870  107.2410  119.9430 C.ar      1 FAD701      0.0000 
     23 N1         29.1670   96.3110  111.8060 N.2       1 FAD701      0.0000 
     24 C2         27.9260   95.7740  111.6220 C.2       1 FAD701      0.0000 
     25 O2         27.3840   95.1390  112.5610 O.2       1 FAD701      0.0000 
     26 N3         27.2600   95.8860  110.4380 N.am      1 FAD701      0.0000 
     27 C4         27.7880   96.5350  109.3780 C.2       1 FAD701      0.0000 
     28 O4         27.1600   96.6190  108.3140 O.2       1 FAD701      0.0000 
     29 C4X        29.1280   97.1390  109.5070 C.2       1 FAD701      0.0000 
     30 N5         29.7190   97.8040  108.5030 N.2       1 FAD701      0.0000 
     31 C5X        30.7520   98.6410  108.7570 C.ar      1 FAD701      0.0000 
     32 C6         30.9410   99.7280  107.9130 C.ar      1 FAD701      0.0000 
     33 C7         31.7810  100.7780  108.2690 C.ar      1 FAD701      0.0000 
     34 C7M        31.9460  101.9260  107.3100 C.3       1 FAD701      0.0000 
     35 C8         32.4840  100.7550  109.5830 C.ar      1 FAD701      0.0000 
     36 C8M        33.3950  101.8910  109.9970 C.3       1 FAD701      0.0000 
     37 C9         32.2940   99.6640  110.4400 C.ar      1 FAD701      0.0000 
     38 C9A        31.4550   98.6010  110.0750 C.ar      1 FAD701      0.0000 
     39 N10        31.0730   97.5820  110.9780 N.pl3     1 FAD701      0.0000 
     40 C10        29.8040   96.9930  110.8150 C.2       1 FAD701      0.0000 
     41 C1'        31.9460   97.1320  112.0520 C.3       1 FAD701      0.0000 
     42 C2'        31.6310   97.8200  113.3770 C.3       1 FAD701      0.0000 
     43 O2'        31.1320   99.1470  113.1660 O.3       1 FAD701      0.0000 
     44 C3'        32.9020   97.8210  114.2330 C.3       1 FAD701      0.0000 
     45 O3'        33.4020   96.4770  114.3710 O.3       1 FAD701      0.0000 
     46 C4'        32.6870   98.3990  115.6250 C.3       1 FAD701      0.0000 
     47 O4'        32.2790   99.7680  115.5190 O.3       1 FAD701      0.0000 
     48 C5'        33.9860   98.3000  116.4180 C.3       1 FAD701      0.0000 
     49 O5'        33.8370   98.8660  117.7140 O.3       1 FAD701      0.0000 
     50 P          35.1640   99.1210  118.5800 P.3       1 FAD701      0.0000 
     51 O1P        35.8740   97.7870  118.6540 O.co2     1 FAD701      0.0000 
     52 O2P        34.8290   99.6880  119.9460 O.co2     1 FAD701      0.0000 
     53 O3P        36.0750  100.1810  117.7540 O.3       1 FAD701      0.0000 
@<TRIPOS>BOND
     1    1    2 ar   
     2    1    3 ar   
     3    1    4 1    
     4    1   53 1    
     5    4    5 1    
     6    5    6 1    
     7    6    7 1    
     8    6    8 1    
     9    7   12 1    
    10    8    9 1    
    11    8   10 1    
    12   10   11 1    
    13   10   12 1    
    14   12   13 1    
    15   13   14 1    
    16   13   22 1    
    17   14   15 2    
    18   15   16 1    
    19   16   17 ar   
    20   16   22 ar   
    21   17   18 1    
    22   17   19 ar   
    23   19   20 ar   
    24   20   21 ar   
    25   21   22 ar   
    26   23   24 1    
    27   23   40 2    
    28   24   25 2    
    29   24   26 am   
    30   26   27 am   
    31   27   28 2    
    32   27   29 1    
    33   29   30 2    
    34   29   40 1    
    35   30   31 1    
    36   31   32 ar   
    37   31   38 ar   
    38   32   33 ar   
    39   33   34 1    
    40   33   35 ar   
    41   35   36 1    
    42   35   37 ar   
    43   37   38 ar   
    44   38   39 1    
    45   39   40 1    
    46   39   41 1    
    47   41   42 1    
    48   42   43 1    
    49   42   44 1    
    50   44   45 1    
    51   44   46 1    
    52   46   47 1    
    53   46   48 1    
    54   48   49 1    
    55   49   50 1    
    56   50   51 ar   
    57   50   52 ar   
    58   50   53 1    
@<TRIPOS>SUBSTRUCTURE
     1 FAD701      1 GROUP   
@<TRIPOS>SET
ATOM$ORANGE STATIC     ATOMS   COLORGROUP SYSTEM 
54 5 5 6 6 8 8 10 10 12 12 14 14 16 16 17 17 20 \
20 22 22 24 24 27 27 29 29 31 31 32 32 33 33 34 34 35 \
35 36 36 37 37 38 38 40 40 41 41 42 42 44 44 46 46 48 \
48 

