#    Name: 6h3g_4_FAD
#    Modification time : Fri May 22 19:28:24 2020

@<TRIPOS>MOLECULE
6h3g_4_FAD
   53    58     1     0     1
SMALL
NO_CHARGES


@<TRIPOS>ATOM
      1 PA         51.4520  143.2230   72.1540 P.3       1 FAD701      0.0000 
      2 O1A        51.6800  143.0930   73.6390 O.co2     1 FAD701      0.0000 
      3 O2A        50.0330  143.6300   71.8650 O.co2     1 FAD701      0.0000 
      4 O5B        51.6100  141.8090   71.4330 O.3       1 FAD701      0.0000 
      5 C5B        52.8070  141.0730   71.6190 C.3       1 FAD701      0.0000 
      6 C4B        52.6260  139.6750   71.0530 C.3       1 FAD701      0.0000 
      7 O4B        53.9010  139.0490   71.0190 O.3       1 FAD701      0.0000 
      8 C3B        51.7190  138.8070   71.9010 C.3       1 FAD701      0.0000 
      9 O3B        50.7380  138.2000   71.0540 O.3       1 FAD701      0.0000 
     10 C2B        52.6450  137.7940   72.5500 C.3       1 FAD701      0.0000 
     11 O2B        52.0950  136.4750   72.6290 O.3       1 FAD701      0.0000 
     12 C1B        53.8300  137.7690   71.6160 C.3       1 FAD701      0.0000 
     13 N9A        55.1170  137.4380   72.2670 N.pl3     1 FAD701      0.0000 
     14 C8A        55.6390  137.9060   73.4100 C.2       1 FAD701      0.0000 
     15 N7A        56.8560  137.3440   73.6270 N.2       1 FAD701      0.0000 
     16 C5A        57.1100  136.5070   72.6050 C.ar      1 FAD701      0.0000 
     17 C6A        58.1940  135.5960   72.1860 C.ar      1 FAD701      0.0000 
     18 N6A        59.3150  135.4420   72.9280 N.pl3     1 FAD701      0.0000 
     19 N1A        58.0350  134.9210   71.0260 N.ar      1 FAD701      0.0000 
     20 C2A        56.9430  135.0450   70.2490 C.ar      1 FAD701      0.0000 
     21 N3A        55.9280  135.8530   70.5730 N.ar      1 FAD701      0.0000 
     22 C4A        55.9600  136.5860   71.7120 C.ar      1 FAD701      0.0000 
     23 N1         44.4600  149.6410   73.8950 N.2       1 FAD701      0.0000 
     24 C2         43.4690  150.5320   73.6290 C.2       1 FAD701      0.0000 
     25 O2         43.5430  151.2440   72.6000 O.2       1 FAD701      0.0000 
     26 N3         42.3970  150.6800   74.4650 N.am      1 FAD701      0.0000 
     27 C4         42.2500  149.9630   75.6100 C.2       1 FAD701      0.0000 
     28 O4         41.2850  150.1040   76.3790 O.2       1 FAD701      0.0000 
     29 C4X        43.2830  148.9910   75.9540 C.2       1 FAD701      0.0000 
     30 N5         43.1860  148.2520   77.0660 N.2       1 FAD701      0.0000 
     31 C5X        43.9810  147.1630   77.2010 C.ar      1 FAD701      0.0000 
     32 C6         43.5450  146.1110   78.0050 C.ar      1 FAD701      0.0000 
     33 C7         44.2190  144.8880   78.0200 C.ar      1 FAD701      0.0000 
     34 C7M        43.7170  143.7810   78.9150 C.3       1 FAD701      0.0000 
     35 C8         45.4170  144.6910   77.1490 C.ar      1 FAD701      0.0000 
     36 C8M        46.1590  143.3730   77.1460 C.3       1 FAD701      0.0000 
     37 C9         45.8590  145.7440   76.3330 C.ar      1 FAD701      0.0000 
     38 C9A        45.1890  146.9790   76.3220 C.ar      1 FAD701      0.0000 
     39 N10        45.4330  147.9340   75.2940 N.pl3     1 FAD701      0.0000 
     40 C10        44.4180  148.8640   75.0070 C.2       1 FAD701      0.0000 
     41 C1'        46.8000  148.3190   74.9510 C.3       1 FAD701      0.0000 
     42 C2'        47.1960  147.7690   73.5970 C.3       1 FAD701      0.0000 
     43 O2'        46.4830  146.5690   73.3020 O.3       1 FAD701      0.0000 
     44 C3'        48.6910  147.5170   73.6050 C.3       1 FAD701      0.0000 
     45 O3'        49.3790  148.7260   73.9560 O.3       1 FAD701      0.0000 
     46 C4'        49.1140  147.0550   72.2280 C.3       1 FAD701      0.0000 
     47 O4'        48.3740  145.8750   71.9130 O.3       1 FAD701      0.0000 
     48 C5'        50.6080  146.7730   72.1810 C.3       1 FAD701      0.0000 
     49 O5'        50.9470  146.2660   70.8940 O.3       1 FAD701      0.0000 
     50 P          52.3750  145.5610   70.6270 P.3       1 FAD701      0.0000 
     51 O1P        53.4140  146.6040   70.9930 O.co2     1 FAD701      0.0000 
     52 O2P        52.4880  145.1950   69.1470 O.co2     1 FAD701      0.0000 
     53 O3P        52.5810  144.2350   71.5690 O.3       1 FAD701      0.0000 
@<TRIPOS>BOND
     1    1    2 ar   
     2    1    3 ar   
     3    1    4 1    
     4    1   53 1    
     5    4    5 1    
     6    5    6 1    
     7    6    7 1    
     8    6    8 1    
     9    7   12 1    
    10    8    9 1    
    11    8   10 1    
    12   10   11 1    
    13   10   12 1    
    14   12   13 1    
    15   13   14 1    
    16   13   22 1    
    17   14   15 2    
    18   15   16 1    
    19   16   17 ar   
    20   16   22 ar   
    21   17   18 1    
    22   17   19 ar   
    23   19   20 ar   
    24   20   21 ar   
    25   21   22 ar   
    26   23   24 1    
    27   23   40 2    
    28   24   25 2    
    29   24   26 am   
    30   26   27 am   
    31   27   28 2    
    32   27   29 1    
    33   29   30 2    
    34   29   40 1    
    35   30   31 1    
    36   31   32 ar   
    37   31   38 ar   
    38   32   33 ar   
    39   33   34 1    
    40   33   35 ar   
    41   35   36 1    
    42   35   37 ar   
    43   37   38 ar   
    44   38   39 1    
    45   39   40 1    
    46   39   41 1    
    47   41   42 1    
    48   42   43 1    
    49   42   44 1    
    50   44   45 1    
    51   44   46 1    
    52   46   47 1    
    53   46   48 1    
    54   48   49 1    
    55   49   50 1    
    56   50   51 ar   
    57   50   52 ar   
    58   50   53 1    
@<TRIPOS>SUBSTRUCTURE
     1 FAD701      1 GROUP   
@<TRIPOS>SET
ATOM$ORANGE STATIC     ATOMS   COLORGROUP SYSTEM 
54 5 5 6 6 8 8 10 10 12 12 14 14 16 16 17 17 20 \
20 22 22 24 24 27 27 29 29 31 31 32 32 33 33 34 34 35 \
35 36 36 37 37 38 38 40 40 41 41 42 42 44 44 46 46 48 \
48 

