#    Name: 6mw3_4_DTP
#    Modification time : Fri May 22 19:28:27 2020

@<TRIPOS>MOLECULE
6mw3_4_DTP
   30    32     1     0     0
SMALL
NO_CHARGES


@<TRIPOS>ATOM
      1 PG        169.1900  126.0810   56.0040 P.3       1 DTP1002     0.0000 
      2 O1G       170.3480  126.6080   55.1960 O.co2     1 DTP1002     0.0000 
      3 O2G       167.9040  126.3150   55.2570 O.co2     1 DTP1002     0.0000 
      4 O3G       169.3790  124.6200   56.3090 O.co2     1 DTP1002     0.0000 
      5 PB        168.9230  128.5270   57.4410 P.3       1 DTP1002     0.0000 
      6 O1B       168.8050  129.0390   56.0190 O.co2     1 DTP1002     0.0000 
      7 O2B       170.1040  129.1040   58.1770 O.co2     1 DTP1002     0.0000 
      8 O3B       169.0990  126.9110   57.3470 O.3       1 DTP1002     0.0000 
      9 PA        166.1300  128.1070   58.3710 P.3       1 DTP1002     0.0000 
     10 O1A       165.7630  128.0130   59.8270 O.co2     1 DTP1002     0.0000 
     11 O2A       166.2660  126.7360   57.7640 O.co2     1 DTP1002     0.0000 
     12 O3A       167.5550  128.8930   58.2570 O.3       1 DTP1002     0.0000 
     13 O5'       164.9800  128.9440   57.5560 O.3       1 DTP1002     0.0000 
     14 C5'       163.7210  129.0040   58.1560 C.3       1 DTP1002     0.0000 
     15 C4'       163.1880  130.4170   58.1900 C.3       1 DTP1002     0.0000 
     16 O4'       162.4710  130.6860   59.4240 O.3       1 DTP1002     0.0000 
     17 C3'       164.3260  131.4110   58.2140 C.3       1 DTP1002     0.0000 
     18 O3'       163.7680  132.6760   57.8830 O.3       1 DTP1002     0.0000 
     19 C2'       164.7270  131.3780   59.7040 C.3       1 DTP1002     0.0000 
     20 C1'       163.4070  131.0630   60.4290 C.3       1 DTP1002     0.0000 
     21 N9        163.4670  129.9890   61.4270 N.pl3     1 DTP1002     0.0000 
     22 C8        163.2960  128.6620   61.6310 C.2       1 DTP1002     0.0000 
     23 N7        163.5320  128.3690   62.9070 N.2       1 DTP1002     0.0000 
     24 C5        163.8530  129.4950   63.5260 C.ar      1 DTP1002     0.0000 
     25 C6        164.1860  129.7610   64.8280 C.ar      1 DTP1002     0.0000 
     26 N6        164.2450  128.7910   65.7410 N.pl3     1 DTP1002     0.0000 
     27 N1        164.4740  130.9960   65.1780 N.ar      1 DTP1002     0.0000 
     28 C2        164.4150  131.9340   64.2150 C.ar      1 DTP1002     0.0000 
     29 N3        164.0960  131.7790   62.9560 N.ar      1 DTP1002     0.0000 
     30 C4        163.8110  130.5280   62.5870 C.ar      1 DTP1002     0.0000 
@<TRIPOS>BOND
     1    1    2 ar   
     2    1    3 ar   
     3    1    4 ar   
     4    1    8 1    
     5    5    6 ar   
     6    5    7 ar   
     7    5    8 1    
     8    5   12 1    
     9    9   10 ar   
    10    9   11 ar   
    11    9   12 1    
    12    9   13 1    
    13   13   14 1    
    14   14   15 1    
    15   15   16 1    
    16   15   17 1    
    17   16   20 1    
    18   17   18 1    
    19   17   19 1    
    20   19   20 1    
    21   20   21 1    
    22   21   22 1    
    23   21   30 1    
    24   22   23 2    
    25   23   24 1    
    26   24   25 ar   
    27   24   30 ar   
    28   25   26 1    
    29   25   27 ar   
    30   27   28 ar   
    31   28   29 ar   
    32   29   30 ar   
@<TRIPOS>SUBSTRUCTURE
     1 DTP1002     1 GROUP   
@<TRIPOS>SET

