#    Name: 6mw3_4_DTP_CAVITY_N1_12
#    Modification time : Fri May 22 19:28:28 2020

@<TRIPOS>MOLECULE
6mw3_4_DTP_CAVITY_N1_12
  103     0     7     0     0
SMALL
NO_CHARGES


@<TRIPOS>ATOM
      1 OG        163.7700  127.3700   59.1200 O.3       1 SER1        0.0000 
      2 N         164.9200  121.9700   62.9200 N.am      2 ALA2        0.0000 
      3 O         162.5600  130.0600   58.5700 O.2       2 ALA2        0.0000 
      4 N         164.3000  125.3100   64.3100 N.am      2 ALA2        0.0000 
      5 N         164.9100  123.9700   64.5800 N.am      2 ALA2        0.0000 
      6 O         162.5700  133.4100   58.6000 O.2       2 ALA2        0.0000 
      7 N         164.2900  127.3100   65.9700 N.am      2 ALA2        0.0000 
      8 N         164.8900  125.9600   66.2400 N.am      2 ALA2        0.0000 
      9 N         165.5200  125.9700   64.8800 N.am      2 ALA2        0.0000 
     10 O         164.9100  132.6700   66.3000 O.2       2 ALA2        0.0000 
     11 N         164.9400  134.0300   64.6600 N.am      2 ALA2        0.0000 
     12 N         165.5400  132.6800   64.9400 N.am      2 ALA2        0.0000 
     13 N         165.5700  134.0400   63.3000 N.am      2 ALA2        0.0000 
     14 N         166.1600  134.6900   65.2300 N.am      2 ALA2        0.0000 
     15 OD1       162.5200  134.0600   61.8900 O.co2     3 ASP3        0.0000 
     16 OD1       163.1500  134.0700   60.5300 O.co2     3 ASP3        0.0000 
     17 OD1       164.3600  131.3700   61.0700 O.co2     3 ASP3        0.0000 
     18 OD1       164.9700  130.0300   61.3500 O.co2     3 ASP3        0.0000 
     19 OD1       166.1800  127.3400   61.8900 O.co2     3 ASP3        0.0000 
     20 OD1       166.7800  125.9900   62.1600 O.co2     3 ASP3        0.0000 
     21 OD1       162.5100  136.0600   63.5500 O.co2     3 ASP3        0.0000 
     22 OD1       167.3500  125.2900   65.7200 O.co2     3 ASP3        0.0000 
     23 OD1       167.9500  123.9400   65.9900 O.co2     3 ASP3        0.0000 
     24 OD1       163.7400  134.7200   62.4600 O.co2     3 ASP3        0.0000 
     25 OD1       164.3700  134.7300   61.1000 O.co2     3 ASP3        0.0000 
     26 OD1       164.9800  133.3800   61.3700 O.co2     3 ASP3        0.0000 
     27 OD1       168.0000  126.6500   62.7300 O.co2     3 ASP3        0.0000 
     28 OD1       164.4000  136.0800   59.4700 O.co2     3 ASP3        0.0000 
     29 OD1       165.6100  133.3900   60.0100 O.co2     3 ASP3        0.0000 
     30 OD1       166.2000  134.0500   61.9400 O.co2     3 ASP3        0.0000 
     31 OD1       166.8300  134.0500   60.5800 O.co2     3 ASP3        0.0000 
     32 NZ        164.3600  136.7300   62.7600 N.4       4 LYS4        0.0000 
     33 NZ        164.3800  138.0800   61.1300 N.4       4 LYS4        0.0000 
     34 NZ        164.9900  136.7400   61.4000 N.4       4 LYS4        0.0000 
     35 NZ        164.9500  137.3800   64.6900 N.4       4 LYS4        0.0000 
     36 NZ        165.5500  136.0400   64.9600 N.4       4 LYS4        0.0000 
     37 NZ        166.1800  136.0400   63.6000 N.4       4 LYS4        0.0000 
     38 NZ        166.8100  136.0500   62.2400 N.4       4 LYS4        0.0000 
     39 NZ        167.4400  136.0600   60.8800 N.4       4 LYS4        0.0000 
     40 CZ        163.1400  127.3600   60.4800 C.ar      5 PHE5        0.0000 
     41 CZ        163.0900  128.0000   63.7700 C.ar      5 PHE5        0.0000 
     42 CZ        163.1200  129.3600   62.1400 C.ar      5 PHE5        0.0000 
     43 CZ        163.7200  128.0100   62.4100 C.ar      5 PHE5        0.0000 
     44 CZ        164.3300  126.6700   62.6800 C.ar      5 PHE5        0.0000 
     45 CZ        164.9300  125.3200   62.9500 C.ar      5 PHE5        0.0000 
     46 CZ        165.5400  123.9700   63.2200 C.ar      5 PHE5        0.0000 
     47 CZ        162.5400  132.0600   60.2300 C.ar      5 PHE5        0.0000 
     48 CZ        164.3500  128.0200   61.0500 C.ar      5 PHE5        0.0000 
     49 CZ        164.9600  126.6700   61.3200 C.ar      5 PHE5        0.0000 
     50 CZ        165.5600  125.3300   61.5900 C.ar      5 PHE5        0.0000 
     51 CZ        166.1700  123.9800   61.8600 C.ar      5 PHE5        0.0000 
     52 CZ        165.5900  126.6800   59.9600 C.ar      5 PHE5        0.0000 
     53 CZ        163.7100  130.0100   64.0700 C.ar      5 PHE5        0.0000 
     54 CZ        163.1300  132.7100   62.1600 C.ar      5 PHE5        0.0000 
     55 CZ        163.7300  131.3700   62.4400 C.ar      5 PHE5        0.0000 
     56 CZ        163.7600  132.7200   60.8000 C.ar      5 PHE5        0.0000 
     57 CZ        162.4800  134.7000   65.1800 C.ar      5 PHE5        0.0000 
     58 CZ        163.0900  133.3600   65.4600 C.ar      5 PHE5        0.0000 
     59 CZ        163.6900  132.0100   65.7300 C.ar      5 PHE5        0.0000 
     60 CZ        163.1100  134.7100   63.8200 C.ar      5 PHE5        0.0000 
     61 CZ        163.7200  133.3600   64.0900 C.ar      5 PHE5        0.0000 
     62 CZ        164.3200  132.0200   64.3700 C.ar      5 PHE5        0.0000 
     63 CZ        164.3500  133.3700   62.7300 C.ar      5 PHE5        0.0000 
     64 CZ        164.3100  134.0200   66.0300 C.ar      5 PHE5        0.0000 
     65 CZ        165.0100  138.0900   59.7700 C.ar      5 PHE5        0.0000 
     66 CZ        165.5300  134.6800   66.5900 C.ar      5 PHE5        0.0000 
     67 CZ        166.8400  137.4100   60.6100 C.ar      5 PHE5        0.0000 
     68 CA        161.3100  128.0400   59.6400 C.3       6 GLY6        0.0000 
     69 CA        161.9400  128.0500   58.2800 C.3       6 GLY6        0.0000 
     70 CA        162.5000  127.3500   61.8400 C.3       6 GLY6        0.0000 
     71 CA        164.3200  123.3100   62.6500 C.3       6 GLY6        0.0000 
     72 CA        162.5300  128.7000   60.2100 C.3       6 GLY6        0.0000 
     73 CA        163.6700  125.3000   65.6700 C.3       6 GLY6        0.0000 
     74 CA        164.2800  123.9600   65.9400 C.3       6 GLY6        0.0000 
     75 CA        163.7000  126.6600   64.0400 C.3       6 GLY6        0.0000 
     76 CA        166.1400  122.6300   63.4900 C.3       6 GLY6        0.0000 
     77 CA        163.1500  130.7100   60.5100 C.3       6 GLY6        0.0000 
     78 CA        163.7500  129.3700   60.7800 C.3       6 GLY6        0.0000 
     79 CA        165.5000  124.6200   66.5100 C.3       6 GLY6        0.0000 
     80 CA        164.3100  128.6600   64.3400 C.3       6 GLY6        0.0000 
     81 CA        164.9200  127.3200   64.6100 C.3       6 GLY6        0.0000 
     82 CA        166.1300  124.6300   65.1500 C.3       6 GLY6        0.0000 
     83 CA        166.7300  123.2800   65.4200 C.3       6 GLY6        0.0000 
     84 CA        164.3400  130.0200   62.7100 C.3       6 GLY6        0.0000 
     85 CA        164.9400  128.6700   62.9800 C.3       6 GLY6        0.0000 
     86 CA        165.5500  127.3300   63.2500 C.3       6 GLY6        0.0000 
     87 CA        164.9300  130.6700   64.6400 C.3       6 GLY6        0.0000 
     88 CA        166.1400  127.9800   65.1800 C.3       6 GLY6        0.0000 
     89 CA        166.7400  126.6400   65.4500 C.3       6 GLY6        0.0000 
     90 CA        164.9500  132.0300   63.0000 C.3       6 GLY6        0.0000 
     91 CA        167.3700  126.6500   64.0900 C.3       6 GLY6        0.0000 
     92 CA        163.7000  135.3600   65.7500 C.3       6 GLY6        0.0000 
     93 CA        163.7300  136.7200   64.1200 C.3       6 GLY6        0.0000 
     94 CA        164.9200  136.0300   66.3200 C.3       6 GLY6        0.0000 
     95 DU        163.1600  128.7100   58.8500 H         7 CUB7        0.0000 
     96 DU        166.1500  125.9800   63.5200 H         7 CUB7        0.0000 
     97 DU        166.7600  124.6400   63.7900 H         7 CUB7        0.0000 
     98 DU        165.0000  134.7400   59.7400 H         7 CUB7        0.0000 
     99 DU        164.3300  135.3700   64.3900 H         7 CUB7        0.0000 
    100 DU        164.9600  135.3800   63.0300 H         7 CUB7        0.0000 
    101 DU        165.5900  135.3900   61.6700 H         7 CUB7        0.0000 
    102 DU        165.6200  136.7500   60.0400 H         7 CUB7        0.0000 
    103 DU        166.2200  135.4000   60.3100 H         7 CUB7        0.0000 
@<TRIPOS>BOND
@<TRIPOS>SUBSTRUCTURE
     1 SER1        1 GROUP   
     2 ALA2        2 GROUP   
     3 ASP3       15 GROUP   
     4 LYS4       32 GROUP   
     5 PHE5       40 GROUP   
     6 GLY6       68 GROUP   
     7 CUB7       95 GROUP   
@<TRIPOS>SET

