#    Name: 6mw3_1_DTP
#    Modification time : Fri May 22 19:27:52 2020

@<TRIPOS>MOLECULE
6mw3_1_DTP
   30    32     1     0     0
SMALL
NO_CHARGES


@<TRIPOS>ATOM
      1 PG        140.0940  163.0670   76.6360 P.3       1 DTP1001     0.0000 
      2 O1G       139.0100  164.1110   76.6210 O.co2     1 DTP1001     0.0000 
      3 O2G       140.5010  162.7390   75.2240 O.co2     1 DTP1001     0.0000 
      4 O3G       139.5730  161.8280   77.3130 O.co2     1 DTP1001     0.0000 
      5 PB        141.7060  163.6730   79.0200 P.3       1 DTP1001     0.0000 
      6 O1B       143.1630  163.3930   79.2530 O.co2     1 DTP1001     0.0000 
      7 O2B       141.3700  165.0340   79.5660 O.co2     1 DTP1001     0.0000 
      8 O3B       141.3600  163.6300   77.4210 O.3       1 DTP1001     0.0000 
      9 PA        141.2770  161.3870   80.8680 P.3       1 DTP1001     0.0000 
     10 O1A       141.3820  162.0280   82.2270 O.co2     1 DTP1001     0.0000 
     11 O2A       142.6030  160.8080   80.4530 O.co2     1 DTP1001     0.0000 
     12 O3A       140.8230  162.5210   79.7800 O.3       1 DTP1001     0.0000 
     13 O5'       140.1670  160.1870   80.9490 O.3       1 DTP1001     0.0000 
     14 C5'       139.0410  160.2480   80.1410 C.3       1 DTP1001     0.0000 
     15 C4'       137.8830  159.5870   80.8510 C.3       1 DTP1001     0.0000 
     16 O4'       137.9540  158.1390   80.7230 O.3       1 DTP1001     0.0000 
     17 C3'       137.9390  159.9230   82.3350 C.3       1 DTP1001     0.0000 
     18 O3'       136.9340  160.8900   82.6230 O.3       1 DTP1001     0.0000 
     19 C2'       137.5860  158.5880   83.0240 C.3       1 DTP1001     0.0000 
     20 C1'       138.0600  157.5400   82.0090 C.3       1 DTP1001     0.0000 
     21 N9        139.4420  157.1010   82.2300 N.pl3     1 DTP1001     0.0000 
     22 C8        140.7490  157.4700   82.1970 C.2       1 DTP1001     0.0000 
     23 N7        141.5160  156.4400   82.5590 N.2       1 DTP1001     0.0000 
     24 C5        140.7110  155.4120   82.8280 C.ar      1 DTP1001     0.0000 
     25 C6        140.9650  154.1240   83.2410 C.ar      1 DTP1001     0.0000 
     26 N6        142.2180  153.7080   83.4440 N.pl3     1 DTP1001     0.0000 
     27 N1        139.9620  153.2860   83.4410 N.ar      1 DTP1001     0.0000 
     28 C2        138.7210  153.7660   83.2160 C.ar      1 DTP1001     0.0000 
     29 N3        138.3750  154.9730   82.8260 N.ar      1 DTP1001     0.0000 
     30 C4        139.3890  155.8300   82.6210 C.ar      1 DTP1001     0.0000 
@<TRIPOS>BOND
     1    1    2 ar   
     2    1    3 ar   
     3    1    4 ar   
     4    1    8 1    
     5    5    6 ar   
     6    5    7 ar   
     7    5    8 1    
     8    5   12 1    
     9    9   10 ar   
    10    9   11 ar   
    11    9   12 1    
    12    9   13 1    
    13   13   14 1    
    14   14   15 1    
    15   15   16 1    
    16   15   17 1    
    17   16   20 1    
    18   17   18 1    
    19   17   19 1    
    20   19   20 1    
    21   20   21 1    
    22   21   22 1    
    23   21   30 1    
    24   22   23 2    
    25   23   24 1    
    26   24   25 ar   
    27   24   30 ar   
    28   25   26 1    
    29   25   27 ar   
    30   27   28 ar   
    31   28   29 ar   
    32   29   30 ar   
@<TRIPOS>SUBSTRUCTURE
     1 DTP1001     1 GROUP   
@<TRIPOS>SET

