#    Name: 6mw3_2_DTP
#    Modification time : Fri May 22 19:27:59 2020

@<TRIPOS>MOLECULE
6mw3_2_DTP
   30    32     1     0     0
SMALL
NO_CHARGES


@<TRIPOS>ATOM
      1 PG        100.0140  177.6860  137.8930 P.3       1 DTP1002     0.0000 
      2 O1G       100.0250  179.0710  138.4840 O.co2     1 DTP1002     0.0000 
      3 O2G       100.8970  176.7800  138.7100 O.co2     1 DTP1002     0.0000 
      4 O3G        98.6100  177.1510  137.8240 O.co2     1 DTP1002     0.0000 
      5 PB        102.1350  178.3050  136.0940 P.3       1 DTP1002     0.0000 
      6 O1B       102.7910  178.6620  137.4130 O.co2     1 DTP1002     0.0000 
      7 O2B       102.0150  179.4810  135.1600 O.co2     1 DTP1002     0.0000 
      8 O3B       100.6430  177.7550  136.4440 O.3       1 DTP1002     0.0000 
      9 PA        102.9650  175.5070  135.5230 P.3       1 DTP1002     0.0000 
     10 O1A       102.8980  174.9040  134.1460 O.co2     1 DTP1002     0.0000 
     11 O2A       101.7620  175.1150  136.3380 O.co2     1 DTP1002     0.0000 
     12 O3A       103.0050  177.1300  135.3630 O.3       1 DTP1002     0.0000 
     13 O5'       104.3220  175.0020  136.2900 O.3       1 DTP1002     0.0000 
     14 C5'       104.8960  173.8220  135.8130 C.3       1 DTP1002     0.0000 
     15 C4'       106.3820  173.9770  135.5910 C.3       1 DTP1002     0.0000 
     16 O4'       106.8200  173.2640  134.4050 O.3       1 DTP1002     0.0000 
     17 C3'       106.7240  175.4170  135.2890 C.3       1 DTP1002     0.0000 
     18 O3'       108.1310  175.5440  135.4530 O.3       1 DTP1002     0.0000 
     19 C2'       106.3500  175.5120  133.7950 C.3       1 DTP1002     0.0000 
     20 C1'       106.6100  174.0910  133.2650 C.3       1 DTP1002     0.0000 
     21 N9        105.5310  173.5020  132.4630 N.pl3     1 DTP1002     0.0000 
     22 C8        104.4220  172.7260  132.5050 C.2       1 DTP1002     0.0000 
     23 N7        103.9190  172.5940  131.2800 N.2       1 DTP1002     0.0000 
     24 C5        104.6940  173.2770  130.4510 C.ar      1 DTP1002     0.0000 
     25 C6        104.6340  173.4750  129.0960 C.ar      1 DTP1002     0.0000 
     26 N6        103.6560  172.9450  128.3600 N.pl3     1 DTP1002     0.0000 
     27 N1        105.5480  174.2220  128.5160 N.ar      1 DTP1002     0.0000 
     28 C2        106.5020  174.7460  129.3070 C.ar      1 DTP1002     0.0000 
     29 N3        106.6490  174.6010  130.5980 N.ar      1 DTP1002     0.0000 
     30 C4        105.7210  173.8550  131.2000 C.ar      1 DTP1002     0.0000 
@<TRIPOS>BOND
     1    1    2 ar   
     2    1    3 ar   
     3    1    4 ar   
     4    1    8 1    
     5    5    6 ar   
     6    5    7 ar   
     7    5    8 1    
     8    5   12 1    
     9    9   10 ar   
    10    9   11 ar   
    11    9   12 1    
    12    9   13 1    
    13   13   14 1    
    14   14   15 1    
    15   15   16 1    
    16   15   17 1    
    17   16   20 1    
    18   17   18 1    
    19   17   19 1    
    20   19   20 1    
    21   20   21 1    
    22   21   22 1    
    23   21   30 1    
    24   22   23 2    
    25   23   24 1    
    26   24   25 ar   
    27   24   30 ar   
    28   25   26 1    
    29   25   27 ar   
    30   27   28 ar   
    31   28   29 ar   
    32   29   30 ar   
@<TRIPOS>SUBSTRUCTURE
     1 DTP1002     1 GROUP   
@<TRIPOS>SET

