#    Name: 6mw3_3_DTP
#    Modification time : Fri May 22 19:28:20 2020

@<TRIPOS>MOLECULE
6mw3_3_DTP
   30    32     1     0     0
SMALL
NO_CHARGES


@<TRIPOS>ATOM
      1 PG        143.6040  165.2100  114.2010 P.3       1 DTP1001     0.0000 
      2 O1G       145.0280  164.7240  114.1600 O.co2     1 DTP1001     0.0000 
      3 O2G       143.2620  165.6610  115.5950 O.co2     1 DTP1001     0.0000 
      4 O3G       142.6900  164.0840  113.7950 O.co2     1 DTP1001     0.0000 
      5 PB        143.1580  166.4910  111.5910 P.3       1 DTP1001     0.0000 
      6 O1B       142.2110  167.6080  111.2530 O.co2     1 DTP1001     0.0000 
      7 O2B       144.4590  166.7100  110.8680 O.co2     1 DTP1001     0.0000 
      8 O3B       143.4350  166.4400  113.2030 O.3       1 DTP1001     0.0000 
      9 PA        141.1670  164.7810  110.1990 P.3       1 DTP1001     0.0000 
     10 O1A       141.5520  164.9280  108.7500 O.co2     1 DTP1001     0.0000 
     11 O2A       140.0810  165.7600  110.5590 O.co2     1 DTP1001     0.0000 
     12 O3A       142.4810  165.0730  111.1290 O.3       1 DTP1001     0.0000 
     13 O5'       140.6190  163.2570  110.4340 O.3       1 DTP1001     0.0000 
     14 C5'       141.2740  162.4320  111.3380 C.3       1 DTP1001     0.0000 
     15 C4'       141.1620  160.9990  110.8720 C.3       1 DTP1001     0.0000 
     16 O4'       139.8680  160.4380  111.2280 O.3       1 DTP1001     0.0000 
     17 C3'       141.2890  160.9450  109.3560 C.3       1 DTP1001     0.0000 
     18 O3'       142.5790  160.4440  109.0220 O.3       1 DTP1001     0.0000 
     19 C2'       140.2110  159.9230  108.9370 C.3       1 DTP1001     0.0000 
     20 C1'       139.1670  160.0450  110.0540 C.3       1 DTP1001     0.0000 
     21 N9        138.1160  161.0280  109.7610 N.pl3     1 DTP1001     0.0000 
     22 C8        137.8370  162.3460  109.5940 C.2       1 DTP1001     0.0000 
     23 N7        136.5390  162.4990  109.3260 N.2       1 DTP1001     0.0000 
     24 C5        135.9820  161.2880  109.3160 C.ar      1 DTP1001     0.0000 
     25 C6        134.6910  160.8670  109.0950 C.ar      1 DTP1001     0.0000 
     26 N6        133.7230  161.7490  108.8310 N.pl3     1 DTP1001     0.0000 
     27 N1        134.4010  159.5780  109.1440 N.ar      1 DTP1001     0.0000 
     28 C2        135.4210  158.7400  109.4180 C.ar      1 DTP1001     0.0000 
     29 N3        136.6820  159.0400  109.6400 N.ar      1 DTP1001     0.0000 
     30 C4        136.9840  160.3480  109.5910 C.ar      1 DTP1001     0.0000 
@<TRIPOS>BOND
     1    1    2 ar   
     2    1    3 ar   
     3    1    4 ar   
     4    1    8 1    
     5    5    6 ar   
     6    5    7 ar   
     7    5    8 1    
     8    5   12 1    
     9    9   10 ar   
    10    9   11 ar   
    11    9   12 1    
    12    9   13 1    
    13   13   14 1    
    14   14   15 1    
    15   15   16 1    
    16   15   17 1    
    17   16   20 1    
    18   17   18 1    
    19   17   19 1    
    20   19   20 1    
    21   20   21 1    
    22   21   22 1    
    23   21   30 1    
    24   22   23 2    
    25   23   24 1    
    26   24   25 ar   
    27   24   30 ar   
    28   25   26 1    
    29   25   27 ar   
    30   27   28 ar   
    31   28   29 ar   
    32   29   30 ar   
@<TRIPOS>SUBSTRUCTURE
     1 DTP1001     1 GROUP   
@<TRIPOS>SET

