#    Name: 6mw3_2_DTP_CAVITY_N1_4
#    Modification time : Fri May 22 19:28:00 2020

@<TRIPOS>MOLECULE
6mw3_2_DTP_CAVITY_N1_4
   64     0     5     0     0
SMALL
NO_CHARGES


@<TRIPOS>ATOM
      1 N          99.9100  172.6200  127.3800 N.am      1 ALA2        0.0000 
      2 N         100.5000  173.2700  129.3100 N.am      1 ALA2        0.0000 
      3 N         100.5300  174.6300  127.6800 N.am      1 ALA2        0.0000 
      4 N         101.7400  171.9300  128.2200 N.am      1 ALA2        0.0000 
      5 N         103.4900  170.5400  133.9800 N.am      1 ALA2        0.0000 
      6 N         106.6400  175.9400  128.8600 N.am      1 ALA2        0.0000 
      7 N         107.2700  175.9500  127.5000 N.am      1 ALA2        0.0000 
      8 N         107.8600  176.6000  129.4300 N.am      1 ALA2        0.0000 
      9 N         108.4900  176.6100  128.0700 N.am      1 ALA2        0.0000 
     10 N         109.6300  173.2100  133.5400 N.am      1 ALA2        0.0000 
     11 N         109.0800  177.2600  130.0000 N.am      1 ALA2        0.0000 
     12 OD1       102.3100  174.5900  131.8100 O.co2     2 ASP3        0.0000 
     13 OD1       102.9100  173.2400  132.0800 O.co2     2 ASP3        0.0000 
     14 OD1       104.1300  173.9000  132.6500 O.co2     2 ASP3        0.0000 
     15 OD1       105.3500  174.5700  133.2200 O.co2     2 ASP3        0.0000 
     16 OD1       105.9800  174.5800  131.8600 O.co2     2 ASP3        0.0000 
     17 OD1       106.5700  175.2300  133.7900 O.co2     2 ASP3        0.0000 
     18 OD1       107.2000  175.2400  132.4300 O.co2     2 ASP3        0.0000 
     19 OD1       107.2300  176.5900  130.7900 O.co2     2 ASP3        0.0000 
     20 OD1       107.8200  177.2500  132.7200 O.co2     2 ASP3        0.0000 
     21 OD1       109.0300  174.5600  133.2700 O.co2     2 ASP3        0.0000 
     22 OD1       108.4500  177.2600  131.3600 O.co2     2 ASP3        0.0000 
     23 OD1       109.0500  175.9100  131.6300 O.co2     2 ASP3        0.0000 
     24 OD1       109.6600  174.5600  131.9100 O.co2     2 ASP3        0.0000 
     25 OD1       109.6800  175.9200  130.2700 O.co2     2 ASP3        0.0000 
     26 OD1       109.6400  176.5600  133.5600 O.co2     2 ASP3        0.0000 
     27 OD1       110.2500  175.2200  133.8400 O.co2     2 ASP3        0.0000 
     28 CZ        101.6900  172.5800  131.5100 C.ar      3 PHE5        0.0000 
     29 CZ        102.2800  173.2300  133.4400 C.ar      3 PHE5        0.0000 
     30 CZ        104.1500  171.9000  130.9900 C.ar      3 PHE5        0.0000 
     31 CZ        104.1100  172.5500  134.2800 C.ar      3 PHE5        0.0000 
     32 CZ        105.3700  172.5700  131.5600 C.ar      3 PHE5        0.0000 
     33 CZ        106.0300  173.9300  128.5700 C.ar      3 PHE5        0.0000 
     34 CZ        106.5900  173.2300  132.1300 C.ar      3 PHE5        0.0000 
     35 CZ        106.6100  174.5800  130.5000 C.ar      3 PHE5        0.0000 
     36 CZ        107.2400  174.5900  129.1300 C.ar      3 PHE5        0.0000 
     37 CZ        107.8800  174.6000  127.7700 C.ar      3 PHE5        0.0000 
     38 CZ        108.5100  174.6100  126.4100 C.ar      3 PHE5        0.0000 
     39 CZ        107.8100  173.8900  132.7000 C.ar      3 PHE5        0.0000 
     40 CZ        107.8300  175.2500  131.0600 C.ar      3 PHE5        0.0000 
     41 CZ        108.4600  175.2600  129.7000 C.ar      3 PHE5        0.0000 
     42 CZ        109.0900  175.2700  128.3400 C.ar      3 PHE5        0.0000 
     43 CZ        109.7000  173.9200  128.6100 C.ar      3 PHE5        0.0000 
     44 CA        100.4800  171.9200  130.9400 C.3       4 GLY6        0.0000 
     45 CA        101.1100  171.9200  129.5800 C.3       4 GLY6        0.0000 
     46 CA        101.0900  173.9200  131.2400 C.3       4 GLY6        0.0000 
     47 CA        102.3000  171.2300  131.7800 C.3       4 GLY6        0.0000 
     48 CA        101.7200  173.9300  129.8800 C.3       4 GLY6        0.0000 
     49 CA        102.3300  172.5900  130.1500 C.3       4 GLY6        0.0000 
     50 CA        102.9300  171.2400  130.4200 C.3       4 GLY6        0.0000 
     51 CA        102.3500  173.9400  128.5200 C.3       4 GLY6        0.0000 
     52 CA        102.9600  172.6000  128.7900 C.3       4 GLY6        0.0000 
     53 CA        103.5200  171.9000  132.3500 C.3       4 GLY6        0.0000 
     54 CA        104.1200  170.5500  132.6200 C.3       4 GLY6        0.0000 
     55 CA        103.5400  173.2500  130.7200 C.3       4 GLY6        0.0000 
     56 CA        104.1800  173.2600  129.3600 C.3       4 GLY6        0.0000 
     57 CA        104.7400  172.5600  132.9200 C.3       4 GLY6        0.0000 
     58 CA        104.7600  173.9100  131.2900 C.3       4 GLY6        0.0000 
     59 CA        105.3900  173.9200  129.9300 C.3       4 GLY6        0.0000 
     60 CA        105.9600  173.2200  133.4900 C.3       4 GLY6        0.0000 
     61 CA        106.0100  175.9300  130.2200 C.3       4 GLY6        0.0000 
     62 CA        107.1800  173.8800  134.0600 C.3       4 GLY6        0.0000 
     63 DU        108.4200  175.9000  133.0000 H         5 CUB7        0.0000 
     64 DU        109.0400  177.9100  133.2900 H         5 CUB7        0.0000 
@<TRIPOS>BOND
@<TRIPOS>SUBSTRUCTURE
     1 ALA2        1 GROUP   
     2 ASP3       12 GROUP   
     3 PHE5       28 GROUP   
     4 GLY6       44 GROUP   
     5 CUB7       63 GROUP   
@<TRIPOS>SET

