#    Name: 6mw3_6_UNK_UNK_UNK_UNK_UNK_UNK_UNK_UNK
#    Modification time : Fri May 22 19:28:37 2020

@<TRIPOS>MOLECULE
6mw3_6_UNK_UNK_UNK_UNK_UNK_UNK_UNK_UNK
   40    39     8     0     0
SMALL
NO_CHARGES


@<TRIPOS>ATOM
      1 N         149.4520  119.3590  109.4370 N.4       1 UNK309      0.0000 
      2 CA        148.9540  120.6480  109.9000 C.3       1 UNK309      0.0000 
      3 C         148.5620  120.5840  111.3690 C.2       1 UNK309      0.0000 
      4 O         147.4000  120.3540  111.6960 O.2       1 UNK309      0.0000 
      5 CB        147.7700  121.0930  109.0550 C.3       1 UNK309      0.0000 
      6 N         149.5320  120.7930  112.2550 N.am      2 UNK310      0.0000 
      7 CA        149.2990  120.6590  113.6850 C.3       2 UNK310      0.0000 
      8 C         149.9810  121.8100  114.4100 C.2       2 UNK310      0.0000 
      9 O         150.6210  122.6670  113.7960 O.2       2 UNK310      0.0000 
     10 CB        149.7960  119.3050  114.1980 C.3       2 UNK310      0.0000 
     11 N         149.8440  121.8140  115.7330 N.am      3 UNK311      0.0000 
     12 CA        150.3790  122.8940  116.5460 C.3       3 UNK311      0.0000 
     13 C         151.8870  122.7560  116.7130 C.2       3 UNK311      0.0000 
     14 O         152.4470  121.6610  116.6290 O.2       3 UNK311      0.0000 
     15 CB        149.7020  122.9160  117.9150 C.3       3 UNK311      0.0000 
     16 N         152.5400  123.8870  116.9590 N.am      4 UNK312      0.0000 
     17 CA        153.9920  123.9350  117.0610 C.3       4 UNK312      0.0000 
     18 C         154.4290  123.6230  118.4890 C.2       4 UNK312      0.0000 
     19 O         153.6200  123.3010  119.3640 O.2       4 UNK312      0.0000 
     20 CB        154.5080  125.2930  116.5970 C.3       4 UNK312      0.0000 
     21 N         155.7290  123.7240  118.7360 N.am      5 UNK313      0.0000 
     22 CA        156.3100  123.4330  120.0390 C.3       5 UNK313      0.0000 
     23 C         157.5490  124.3070  120.2080 C.2       5 UNK313      0.0000 
     24 O         157.7200  125.3060  119.5020 O.2       5 UNK313      0.0000 
     25 CB        156.6130  121.9320  120.1710 C.3       5 UNK313      0.0000 
     26 N         158.4100  123.9370  121.1510 N.am      6 UNK314      0.0000 
     27 CA        159.6170  124.7020  121.4340 C.3       6 UNK314      0.0000 
     28 C         160.6480  124.4750  120.3350 C.2       6 UNK314      0.0000 
     29 O         160.9610  123.3290  119.9930 O.2       6 UNK314      0.0000 
     30 CB        160.1870  124.3090  122.7940 C.3       6 UNK314      0.0000 
     31 N         161.1690  125.5630  119.7820 N.am      7 UNK315      0.0000 
     32 CA        162.2080  125.5140  118.7710 C.3       7 UNK315      0.0000 
     33 C         163.5550  125.8380  119.4090 C.2       7 UNK315      0.0000 
     34 O         163.6800  125.9420  120.6330 O.2       7 UNK315      0.0000 
     35 CB        161.8740  126.4720  117.6270 C.3       7 UNK315      0.0000 
     36 N         164.5780  125.9950  118.5770 N.am      8 UNK316      0.0000 
     37 CA        165.9100  126.3350  119.0610 C.3       8 UNK316      0.0000 
     38 C         165.9870  127.8080  119.4470 C.2       8 UNK316      0.0000 
     39 O         165.5570  128.1990  120.5310 O.2       8 UNK316      0.0000 
     40 CB        166.9570  126.0070  118.0100 C.3       8 UNK316      0.0000 
@<TRIPOS>BOND
     1    1    2 1    
     2    2    3 1    
     3    2    5 1    
     4    3    4 2    
     5    3    6 du   
     6    6    7 1    
     7    7    8 1    
     8    7   10 1    
     9    8    9 2    
    10    8   11 du   
    11   11   12 1    
    12   12   13 1    
    13   12   15 1    
    14   13   14 2    
    15   13   16 du   
    16   16   17 1    
    17   17   18 1    
    18   17   20 1    
    19   18   19 2    
    20   18   21 du   
    21   21   22 1    
    22   22   23 1    
    23   22   25 1    
    24   23   24 2    
    25   23   26 du   
    26   26   27 1    
    27   27   28 1    
    28   27   30 1    
    29   28   29 2    
    30   28   31 du   
    31   31   32 1    
    32   32   33 1    
    33   32   35 1    
    34   33   34 2    
    35   33   36 du   
    36   36   37 1    
    37   37   38 1    
    38   37   40 1    
    39   38   39 2    
@<TRIPOS>SUBSTRUCTURE
     1 UNK309      1 RESIDUE 
     2 UNK310      6 RESIDUE 
     3 UNK311     11 RESIDUE 
     4 UNK312     16 RESIDUE 
     5 UNK313     21 RESIDUE 
     6 UNK314     26 RESIDUE 
     7 UNK315     31 RESIDUE 
     8 UNK316     36 RESIDUE 
@<TRIPOS>SET

