#    Name: 6mw3_2_DTP_CAVITY_N1_ALL
#    Modification time : Fri May 22 19:28:00 2020

@<TRIPOS>MOLECULE
6mw3_2_DTP_CAVITY_N1_ALL
   92     0     6     0     0
SMALL
NO_CHARGES


@<TRIPOS>ATOM
      1 N          98.6300  171.2400  131.7300 N.am      1 ALA2        0.0000 
      2 N          99.2600  171.2500  130.3700 N.am      1 ALA2        0.0000 
      3 N          99.8900  171.2600  129.0100 N.am      1 ALA2        0.0000 
      4 N          99.3100  173.9600  127.1100 N.am      1 ALA2        0.0000 
      5 N          99.9100  172.6200  127.3800 N.am      1 ALA2        0.0000 
      6 N         100.5000  173.2700  129.3100 N.am      1 ALA2        0.0000 
      7 N         100.5300  174.6300  127.6800 N.am      1 ALA2        0.0000 
      8 N         101.7400  171.9300  128.2200 N.am      1 ALA2        0.0000 
      9 N         103.4900  170.5400  133.9800 N.am      1 ALA2        0.0000 
     10 N         106.6400  175.9400  128.8600 N.am      1 ALA2        0.0000 
     11 N         107.2700  175.9500  127.5000 N.am      1 ALA2        0.0000 
     12 N         107.8600  176.6000  129.4300 N.am      1 ALA2        0.0000 
     13 N         108.4900  176.6100  128.0700 N.am      1 ALA2        0.0000 
     14 N         109.6300  173.2100  133.5400 N.am      1 ALA2        0.0000 
     15 N         108.4700  178.6100  129.7300 N.am      1 ALA2        0.0000 
     16 N         109.0800  177.2600  130.0000 N.am      1 ALA2        0.0000 
     17 OD1       102.3100  174.5900  131.8100 O.co2     2 ASP3        0.0000 
     18 OD1       102.9100  173.2400  132.0800 O.co2     2 ASP3        0.0000 
     19 OD1       104.1300  173.9000  132.6500 O.co2     2 ASP3        0.0000 
     20 OD1       105.3500  174.5700  133.2200 O.co2     2 ASP3        0.0000 
     21 OD1       105.9800  174.5800  131.8600 O.co2     2 ASP3        0.0000 
     22 OD1       106.5700  175.2300  133.7900 O.co2     2 ASP3        0.0000 
     23 OD1       107.2000  175.2400  132.4300 O.co2     2 ASP3        0.0000 
     24 OD1       107.2300  176.5900  130.7900 O.co2     2 ASP3        0.0000 
     25 OD1       107.8200  177.2500  132.7200 O.co2     2 ASP3        0.0000 
     26 OD1       109.0300  174.5600  133.2700 O.co2     2 ASP3        0.0000 
     27 OD1       107.8400  178.6000  131.0900 O.co2     2 ASP3        0.0000 
     28 OD1       108.4500  177.2600  131.3600 O.co2     2 ASP3        0.0000 
     29 OD1       109.0500  175.9100  131.6300 O.co2     2 ASP3        0.0000 
     30 OD1       109.6600  174.5600  131.9100 O.co2     2 ASP3        0.0000 
     31 OD1       109.6800  175.9200  130.2700 O.co2     2 ASP3        0.0000 
     32 OD1       110.3100  175.9300  128.9100 O.co2     2 ASP3        0.0000 
     33 OD1       108.4300  179.2500  133.0200 O.co2     2 ASP3        0.0000 
     34 OD1       109.6400  176.5600  133.5600 O.co2     2 ASP3        0.0000 
     35 OD1       110.2500  175.2200  133.8400 O.co2     2 ASP3        0.0000 
     36 OD1       110.2700  176.5700  132.2000 O.co2     2 ASP3        0.0000 
     37 OD1       110.9000  176.5800  130.8400 O.co2     2 ASP3        0.0000 
     38 OD1       111.4900  177.2400  132.7700 O.co2     2 ASP3        0.0000 
     39 OD1       112.1200  177.2400  131.4100 O.co2     2 ASP3        0.0000 
     40 OD1       112.7100  177.9000  133.3400 O.co2     2 ASP3        0.0000 
     41 NZ        109.1000  178.6200  128.3700 N.4       3 LYS4        0.0000 
     42 NZ        109.7100  177.2700  128.6400 N.4       3 LYS4        0.0000 
     43 NZ        109.0600  179.2600  131.6600 N.4       3 LYS4        0.0000 
     44 NZ        110.3000  177.9300  130.5700 N.4       3 LYS4        0.0000 
     45 NZ        110.9100  179.9400  130.8700 N.4       3 LYS4        0.0000 
     46 NZ        111.5200  178.5900  131.1400 N.4       3 LYS4        0.0000 
     47 CZ         99.8500  171.9100  132.3000 C.ar      4 PHE5        0.0000 
     48 CZ        101.6900  172.5800  131.5100 C.ar      4 PHE5        0.0000 
     49 CZ        102.2800  173.2300  133.4400 C.ar      4 PHE5        0.0000 
     50 CZ        104.1500  171.9000  130.9900 C.ar      4 PHE5        0.0000 
     51 CZ        104.1100  172.5500  134.2800 C.ar      4 PHE5        0.0000 
     52 CZ        105.3700  172.5700  131.5600 C.ar      4 PHE5        0.0000 
     53 CZ        106.0300  173.9300  128.5700 C.ar      4 PHE5        0.0000 
     54 CZ        106.5900  173.2300  132.1300 C.ar      4 PHE5        0.0000 
     55 CZ        106.6100  174.5800  130.5000 C.ar      4 PHE5        0.0000 
     56 CZ        107.2400  174.5900  129.1300 C.ar      4 PHE5        0.0000 
     57 CZ        107.8800  174.6000  127.7700 C.ar      4 PHE5        0.0000 
     58 CZ        108.5100  174.6100  126.4100 C.ar      4 PHE5        0.0000 
     59 CZ        107.8100  173.8900  132.7000 C.ar      4 PHE5        0.0000 
     60 CZ        107.8300  175.2500  131.0600 C.ar      4 PHE5        0.0000 
     61 CZ        108.4600  175.2600  129.7000 C.ar      4 PHE5        0.0000 
     62 CZ        109.0900  175.2700  128.3400 C.ar      4 PHE5        0.0000 
     63 CZ        109.7000  173.9200  128.6100 C.ar      4 PHE5        0.0000 
     64 CZ        109.1200  176.6200  126.7100 C.ar      4 PHE5        0.0000 
     65 CZ        110.2800  179.9300  132.2300 C.ar      4 PHE5        0.0000 
     66 CA         98.6500  172.6000  130.1000 C.3       5 GLY6        0.0000 
     67 CA         99.2800  172.6100  128.7400 C.3       5 GLY6        0.0000 
     68 CA        100.4800  171.9200  130.9400 C.3       5 GLY6        0.0000 
     69 CA        101.1100  171.9200  129.5800 C.3       5 GLY6        0.0000 
     70 CA        101.0900  173.9200  131.2400 C.3       5 GLY6        0.0000 
     71 CA        102.3000  171.2300  131.7800 C.3       5 GLY6        0.0000 
     72 CA        101.7200  173.9300  129.8800 C.3       5 GLY6        0.0000 
     73 CA        102.3300  172.5900  130.1500 C.3       5 GLY6        0.0000 
     74 CA        102.9300  171.2400  130.4200 C.3       5 GLY6        0.0000 
     75 CA        102.3500  173.9400  128.5200 C.3       5 GLY6        0.0000 
     76 CA        102.9600  172.6000  128.7900 C.3       5 GLY6        0.0000 
     77 CA        103.5200  171.9000  132.3500 C.3       5 GLY6        0.0000 
     78 CA        104.1200  170.5500  132.6200 C.3       5 GLY6        0.0000 
     79 CA        103.5400  173.2500  130.7200 C.3       5 GLY6        0.0000 
     80 CA        104.1800  173.2600  129.3600 C.3       5 GLY6        0.0000 
     81 CA        104.7400  172.5600  132.9200 C.3       5 GLY6        0.0000 
     82 CA        104.7600  173.9100  131.2900 C.3       5 GLY6        0.0000 
     83 CA        105.3900  173.9200  129.9300 C.3       5 GLY6        0.0000 
     84 CA        105.9600  173.2200  133.4900 C.3       5 GLY6        0.0000 
     85 CA        106.0100  175.9300  130.2200 C.3       5 GLY6        0.0000 
     86 CA        107.1800  173.8800  134.0600 C.3       5 GLY6        0.0000 
     87 CA        109.7200  175.2700  126.9800 C.3       5 GLY6        0.0000 
     88 DU         99.8700  173.2600  130.6700 H         6 CUB7        0.0000 
     89 DU        108.4200  175.9000  133.0000 H         6 CUB7        0.0000 
     90 DU        109.0400  177.9100  133.2900 H         6 CUB7        0.0000 
     91 DU        109.6700  177.9200  131.9300 H         6 CUB7        0.0000 
     92 DU        110.8900  178.5800  132.5000 H         6 CUB7        0.0000 
@<TRIPOS>BOND
@<TRIPOS>SUBSTRUCTURE
     1 ALA2        1 GROUP   
     2 ASP3       17 GROUP   
     3 LYS4       41 GROUP   
     4 PHE5       47 GROUP   
     5 GLY6       66 GROUP   
     6 CUB7       88 GROUP   
@<TRIPOS>SET

