#    Name: 6mw3_6_UNK_UNK_UNK_UNK_UNK_UNK_UNK_UNK_CAVITY_N1_4
#    Modification time : Fri May 22 19:28:38 2020

@<TRIPOS>MOLECULE
6mw3_6_UNK_UNK_UNK_UNK_UNK_UNK_UNK_UNK_CAVITY_N1_4
   52     0     6     0     0
SMALL
NO_CHARGES


@<TRIPOS>ATOM
      1 OG        150.7700  124.2700  114.2500 O.3       1 SER1        0.0000 
      2 O         151.9900  124.9400  114.8100 O.2       2 ALA2        0.0000 
      3 N         152.0200  126.2900  113.1800 N.am      2 ALA2        0.0000 
      4 O         151.9800  126.9400  116.4700 O.2       2 ALA2        0.0000 
      5 O         152.6100  126.9500  115.1100 O.2       2 ALA2        0.0000 
      6 O         153.2100  125.6000  115.3800 O.2       2 ALA2        0.0000 
      7 N         153.8400  125.6100  114.0200 N.am      2 ALA2        0.0000 
      8 O         153.2000  127.6000  117.0400 O.2       2 ALA2        0.0000 
      9 O         153.8000  126.2500  117.3100 O.2       2 ALA2        0.0000 
     10 O         154.4300  126.2600  115.9500 O.2       2 ALA2        0.0000 
     11 N         155.6700  124.9300  114.8600 N.am      2 ALA2        0.0000 
     12 N         156.2700  123.5800  115.1300 N.am      2 ALA2        0.0000 
     13 O         154.4200  128.2600  117.6100 O.2       2 ALA2        0.0000 
     14 O         155.0200  126.9200  117.8800 O.2       2 ALA2        0.0000 
     15 O         155.6500  126.9300  116.5200 O.2       2 ALA2        0.0000 
     16 N         156.8900  125.5900  115.4300 N.am      2 ALA2        0.0000 
     17 N         157.4900  124.2400  115.7000 N.am      2 ALA2        0.0000 
     18 OD1       155.6100  127.5700  119.8100 O.co2     3 ASP3        0.0000 
     19 NZ        149.5000  126.2600  118.6300 N.4       4 LYS4        0.0000 
     20 CA        149.5400  125.6100  115.3400 C.3       5 GLY6        0.0000 
     21 CA        150.1300  126.2600  117.2700 C.3       5 GLY6        0.0000 
     22 CA        150.7600  126.2700  115.9000 C.3       5 GLY6        0.0000 
     23 CA        151.3900  126.2800  114.5400 C.3       5 GLY6        0.0000 
     24 CA        152.6000  123.5900  115.0900 C.3       5 GLY6        0.0000 
     25 CA        151.3500  126.9300  117.8400 C.3       5 GLY6        0.0000 
     26 CA        153.8200  124.2500  115.6600 C.3       5 GLY6        0.0000 
     27 CA        152.5700  127.5900  118.4000 C.3       5 GLY6        0.0000 
     28 CA        155.0400  124.9200  116.2200 C.3       5 GLY6        0.0000 
     29 CA        155.6400  123.5700  116.5000 C.3       5 GLY6        0.0000 
     30 CA        153.7800  128.2500  118.9700 C.3       5 GLY6        0.0000 
     31 CA        156.2800  126.9300  115.1600 C.3       5 GLY6        0.0000 
     32 CA        156.8700  127.5900  117.0900 C.3       5 GLY6        0.0000 
     33 CA        157.5000  127.6000  115.7300 C.3       5 GLY6        0.0000 
     34 CA        158.1100  126.2500  116.0000 C.3       5 GLY6        0.0000 
     35 CA        158.7100  124.9100  116.2700 C.3       5 GLY6        0.0000 
     36 CA        157.4600  128.2400  119.0200 C.3       5 GLY6        0.0000 
     37 CA        158.0900  128.2500  117.6600 C.3       5 GLY6        0.0000 
     38 CA        158.6900  126.9100  117.9300 C.3       5 GLY6        0.0000 
     39 CA        159.3200  126.9100  116.5700 C.3       5 GLY6        0.0000 
     40 DU        150.1400  124.2700  115.6100 H         6 CUB7        0.0000 
     41 DU        151.3600  124.9300  116.1800 H         6 CUB7        0.0000 
     42 DU        151.9500  125.5800  118.1100 H         6 CUB7        0.0000 
     43 DU        152.5800  125.5900  116.7500 H         6 CUB7        0.0000 
     44 DU        153.1900  124.2500  117.0200 H         6 CUB7        0.0000 
     45 DU        153.1700  126.2400  118.6800 H         6 CUB7        0.0000 
     46 DU        154.4100  124.9100  117.5900 H         6 CUB7        0.0000 
     47 DU        154.3900  126.9100  119.2500 H         6 CUB7        0.0000 
     48 DU        155.6300  125.5700  118.1600 H         6 CUB7        0.0000 
     49 DU        156.2600  125.5800  116.7900 H         6 CUB7        0.0000 
     50 DU        156.2400  127.5800  118.4500 H         6 CUB7        0.0000 
     51 DU        157.4700  126.2400  117.3600 H         6 CUB7        0.0000 
     52 DU        158.0600  126.9000  119.2900 H         6 CUB7        0.0000 
@<TRIPOS>BOND
@<TRIPOS>SUBSTRUCTURE
     1 SER1        1 GROUP   
     2 ALA2        2 GROUP   
     3 ASP3       18 GROUP   
     4 LYS4       19 GROUP   
     5 GLY6       20 GROUP   
     6 CUB7       40 GROUP   
@<TRIPOS>SET

