#    Name: 6dtg_1_TYR_LEU_GLY_ALA_ASN_GLY
#    Modification time : Fri May 22 19:34:44 2020

@<TRIPOS>MOLECULE
6dtg_1_TYR_LEU_GLY_ALA_ASN_GLY
   41    41     6     0     0
SMALL
NO_CHARGES


@<TRIPOS>ATOM
      1 N           9.6780  -15.5340   23.1440 N.4       1 TYR1        0.0000 
      2 CA          8.3320  -16.1710   23.3090 C.3       1 TYR1        0.0000 
      3 C           8.1410  -16.5390   24.7760 C.2       1 TYR1        0.0000 
      4 O           9.0450  -17.1320   25.3240 O.2       1 TYR1        0.0000 
      5 CB          8.2240  -17.5120   22.5700 C.3       1 TYR1        0.0000 
      6 CG          8.0500  -17.4380   21.0820 C.ar      1 TYR1        0.0000 
      7 CD1         6.8820  -16.9340   20.5340 C.ar      1 TYR1        0.0000 
      8 CD2         9.0390  -17.9070   20.2170 C.ar      1 TYR1        0.0000 
      9 CE1         6.7060  -16.8960   19.1570 C.ar      1 TYR1        0.0000 
     10 CE2         8.8810  -17.8660   18.8400 C.ar      1 TYR1        0.0000 
     11 CZ          7.7010  -17.3640   18.3050 C.ar      1 TYR1        0.0000 
     12 OH          7.5180  -17.2980   16.9490 O.3       1 TYR1        0.0000 
     13 N           6.9430  -16.3130   25.3340 N.am      2 LEU2        0.0000 
     14 CA          6.6620  -16.7530   26.6890 C.3       2 LEU2        0.0000 
     15 C           6.3930  -18.2620   26.6860 C.2       2 LEU2        0.0000 
     16 O           5.5530  -18.7810   25.9090 O.2       2 LEU2        0.0000 
     17 CB          5.5050  -15.9370   27.2760 C.3       2 LEU2        0.0000 
     18 CG          5.9180  -14.5280   27.6880 C.3       2 LEU2        0.0000 
     19 CD1         4.6980  -13.6430   27.9240 C.3       2 LEU2        0.0000 
     20 CD2         6.8290  -14.5610   28.9260 C.3       2 LEU2        0.0000 
     21 N           7.1140  -18.9630   27.5540 N.am      3 GLY3        0.0000 
     22 CA          7.0910  -20.4450   27.6050 C.3       3 GLY3        0.0000 
     23 C           6.0320  -20.9530   28.5660 C.2       3 GLY3        0.0000 
     24 O           5.9890  -20.4910   29.6940 O.2       3 GLY3        0.0000 
     25 N           5.1760  -21.8780   28.0950 N.am      4 ALA4        0.0000 
     26 CA          4.0600  -22.4750   28.8810 C.3       4 ALA4        0.0000 
     27 C           4.6060  -23.4470   29.9440 C.2       4 ALA4        0.0000 
     28 O           4.0040  -23.5590   31.0030 O.2       4 ALA4        0.0000 
     29 CB          3.0340  -23.1540   27.9780 C.3       4 ALA4        0.0000 
     30 N           5.7430  -24.1150   29.6690 N.am      5 ASN5        0.0000 
     31 CA          6.2310  -25.2900   30.4670 C.3       5 ASN5        0.0000 
     32 C           7.6560  -25.0150   30.9940 C.2       5 ASN5        0.0000 
     33 O           8.1630  -23.8600   30.8790 O.2       5 ASN5        0.0000 
     34 CB          6.1440  -26.5940   29.6520 C.3       5 ASN5        0.0000 
     35 CG          5.5420  -27.7750   30.3970 C.2       5 ASN5        0.0000 
     36 OD1         5.8750  -28.0420   31.5600 O.2       5 ASN5        0.0000 
     37 ND2         4.6720  -28.5140   29.7180 N.am      5 ASN5        0.0000 
     38 N           8.2540  -26.0780   31.5820 N.am      6 GLY6        0.0000 
     39 CA          9.5540  -26.1010   32.3000 C.3       6 GLY6        0.0000 
     40 C           9.6760  -27.2910   33.2510 C.2       6 GLY6        0.0000 
     41 O           8.9060  -28.2730   33.1810 O.2       6 GLY6        0.0000 
@<TRIPOS>BOND
     1    1    2 1    
     2    2    3 1    
     3    2    5 1    
     4    3    4 2    
     5    3   13 am   
     6    5    6 1    
     7    6    7 ar   
     8    6    8 ar   
     9    7    9 ar   
    10    8   10 ar   
    11    9   11 ar   
    12   10   11 ar   
    13   11   12 1    
    14   13   14 1    
    15   14   15 1    
    16   14   17 1    
    17   15   16 2    
    18   15   21 am   
    19   17   18 1    
    20   18   19 1    
    21   18   20 1    
    22   21   22 1    
    23   22   23 1    
    24   23   24 2    
    25   23   25 am   
    26   25   26 1    
    27   26   27 1    
    28   26   29 1    
    29   27   28 2    
    30   27   30 am   
    31   30   31 1    
    32   31   32 1    
    33   31   34 1    
    34   32   33 2    
    35   32   38 am   
    36   34   35 1    
    37   35   36 2    
    38   35   37 am   
    39   38   39 1    
    40   39   40 1    
    41   40   41 2    
@<TRIPOS>SUBSTRUCTURE
     1 TYR1        1 RESIDUE 
     2 LEU2       13 RESIDUE 
     3 GLY3       21 RESIDUE 
     4 ALA4       25 RESIDUE 
     5 ASN5       30 RESIDUE 
     6 GLY6       38 RESIDUE 
@<TRIPOS>SET

