#    Name: 6dtg_1_TYR_LEU_GLY_ALA_ASN_GLY_CAVITY_N1_4
#    Modification time : Fri May 22 19:34:46 2020

@<TRIPOS>MOLECULE
6dtg_1_TYR_LEU_GLY_ALA_ASN_GLY_CAVITY_N1_4
   80     0     6     0     0
SMALL
NO_CHARGES


@<TRIPOS>ATOM
      1 OG          3.4600  -25.8200   25.8000 O.3       1 SER1        0.0000 
      2 OG          4.1400  -26.8700   28.0700 O.3       1 SER1        0.0000 
      3 OG          3.0400  -25.8700   27.8700 O.3       1 SER1        0.0000 
      4 OG          3.9300  -25.0500   27.0000 O.3       1 SER1        0.0000 
      5 OG          4.4100  -24.2800   28.1900 O.3       1 SER1        0.0000 
      6 OG          4.1900  -22.4700   27.1200 O.3       1 SER1        0.0000 
      7 OG          5.0900  -21.6500   26.2400 O.3       1 SER1        0.0000 
      8 OG          5.9800  -24.5100   29.5900 O.3       1 SER1        0.0000 
      9 OG          4.8800  -23.5200   29.3900 O.3       1 SER1        0.0000 
     10 OG          5.5600  -20.8800   27.4400 O.3       1 SER1        0.0000 
     11 OG          6.8800  -27.3700   32.9500 O.3       1 SER1        0.0000 
     12 OG          7.7700  -26.5500   32.0700 O.3       1 SER1        0.0000 
     13 OG          5.7700  -26.3800   32.7500 O.3       1 SER1        0.0000 
     14 OG          6.6700  -25.5600   31.8700 O.3       1 SER1        0.0000 
     15 OG          7.5600  -24.7400   30.9900 O.3       1 SER1        0.0000 
     16 OG          8.4600  -23.9100   30.1100 O.3       1 SER1        0.0000 
     17 OG          6.4600  -23.7400   30.7900 O.3       1 SER1        0.0000 
     18 OG          7.3500  -22.9200   29.9100 O.3       1 SER1        0.0000 
     19 OG          7.1400  -21.1100   28.8300 O.3       1 SER1        0.0000 
     20 OG          8.2500  -25.7800   33.2700 O.3       1 SER1        0.0000 
     21 N           1.4600  -25.6500   26.4800 N.am      2 ALA2        0.0000 
     22 N           2.3500  -24.8200   25.6000 N.am      2 ALA2        0.0000 
     23 N           1.0300  -25.7000   28.5500 N.am      2 ALA2        0.0000 
     24 O           6.8300  -28.0900   29.6700 O.2       2 ALA2        0.0000 
     25 O           4.8300  -27.9100   30.3500 O.2       2 ALA2        0.0000 
     26 O           3.7200  -26.9200   30.1500 O.2       2 ALA2        0.0000 
     27 O           4.6200  -26.1000   29.2700 O.2       2 ALA2        0.0000 
     28 O           2.6100  -25.9300   29.9500 O.2       2 ALA2        0.0000 
     29 O           1.5100  -24.9300   29.7500 O.2       2 ALA2        0.0000 
     30 O           2.4000  -24.1100   28.8700 O.2       2 ALA2        0.0000 
     31 N           8.4100  -28.3100   31.0700 N.am      2 ALA2        0.0000 
     32 N           9.3000  -27.4900   30.1900 N.am      2 ALA2        0.0000 
     33 N           7.3000  -27.3200   30.8700 N.am      2 ALA2        0.0000 
     34 O           6.1900  -26.3200   30.6700 O.2       2 ALA2        0.0000 
     35 O           5.0900  -25.3300   30.4700 O.2       2 ALA2        0.0000 
     36 O           3.0900  -25.1600   31.1500 O.2       2 ALA2        0.0000 
     37 O           3.9800  -24.3400   30.2700 O.2       2 ALA2        0.0000 
     38 O           2.8800  -23.3400   30.0700 O.2       2 ALA2        0.0000 
     39 O           7.9800  -28.3700   33.1500 O.2       2 ALA2        0.0000 
     40 N           6.9300  -19.2900   27.7600 N.am      2 ALA2        0.0000 
     41 O           9.5600  -28.5900   34.5400 O.2       2 ALA2        0.0000 
     42 O          10.4600  -27.7700   33.6700 O.2       2 ALA2        0.0000 
     43 OD1         5.3500  -22.7500   30.5900 O.co2     3 ASP3        0.0000 
     44 OD1         6.2500  -21.9300   29.7100 O.co2     3 ASP3        0.0000 
     45 OD1         5.1400  -20.9300   29.5100 O.co2     3 ASP3        0.0000 
     46 CZ          5.7200  -27.0900   29.4700 C.ar      4 PHE5        0.0000 
     47 CZ          5.5100  -25.2800   28.3900 C.ar      4 PHE5        0.0000 
     48 CZ          1.3000  -23.1200   28.6800 C.ar      4 PHE5        0.0000 
     49 CZ          2.1900  -22.3000   27.8000 C.ar      4 PHE5        0.0000 
     50 CZ          3.0900  -21.4800   26.9200 C.ar      4 PHE5        0.0000 
     51 CZ          8.2000  -26.5000   29.9900 C.ar      4 PHE5        0.0000 
     52 CZ          7.0900  -25.5000   29.7900 C.ar      4 PHE5        0.0000 
     53 CZ          3.7700  -22.5200   29.1900 C.ar      4 PHE5        0.0000 
     54 CZ          4.6700  -21.7000   28.3200 C.ar      4 PHE5        0.0000 
     55 CZ          9.7800  -26.7200   31.3900 C.ar      4 PHE5        0.0000 
     56 CZ          8.6700  -25.7300   31.1900 C.ar      4 PHE5        0.0000 
     57 CZ          8.0400  -20.2800   27.9600 C.ar      4 PHE5        0.0000 
     58 CZ          6.0400  -20.1100   28.6400 C.ar      4 PHE5        0.0000 
     59 CZ         10.2500  -25.9600   32.5900 C.ar      4 PHE5        0.0000 
     60 CZ          7.3500  -26.6100   34.1500 C.ar      4 PHE5        0.0000 
     61 CZ          9.1400  -24.9600   32.3900 C.ar      4 PHE5        0.0000 
     62 CZ          9.8300  -26.0100   34.6700 C.ar      4 PHE5        0.0000 
     63 CA          2.5600  -26.6400   26.6800 C.3       5 GLY6        0.0000 
     64 CA          2.1400  -26.6900   28.7500 C.3       5 GLY6        0.0000 
     65 CA          1.9300  -24.8800   27.6800 C.3       5 GLY6        0.0000 
     66 CA          2.8300  -24.0600   26.8000 C.3       5 GLY6        0.0000 
     67 CA          3.7200  -23.2400   25.9200 C.3       5 GLY6        0.0000 
     68 CA          0.8200  -23.8900   27.4800 C.3       5 GLY6        0.0000 
     69 CA          5.9300  -28.9100   30.5500 C.3       5 GLY6        0.0000 
     70 CA          3.9800  -20.6500   26.0400 C.3       5 GLY6        0.0000 
     71 CA          7.5100  -29.1300   31.9500 C.3       5 GLY6        0.0000 
     72 CA          6.4000  -28.1400   31.7500 C.3       5 GLY6        0.0000 
     73 CA          6.4600  -20.0600   26.5600 C.3       5 GLY6        0.0000 
     74 CA          8.4600  -27.6000   34.3500 C.3       5 GLY6        0.0000 
     75 CA         10.9300  -27.0000   34.8600 C.3       5 GLY6        0.0000 
     76 CA          8.9300  -26.8300   35.5400 C.3       5 GLY6        0.0000 
     77 DU          3.5100  -25.1000   29.0700 H         6 CUB7        0.0000 
     78 DU          9.9900  -28.5400   32.4700 H         6 CUB7        0.0000 
     79 DU          8.8800  -27.5400   32.2700 H         6 CUB7        0.0000 
     80 DU          9.3500  -26.7800   33.4700 H         6 CUB7        0.0000 
@<TRIPOS>BOND
@<TRIPOS>SUBSTRUCTURE
     1 SER1        1 GROUP   
     2 ALA2       21 GROUP   
     3 ASP3       43 GROUP   
     4 PHE5       46 GROUP   
     5 GLY6       63 GROUP   
     6 CUB7       77 GROUP   
@<TRIPOS>SET

