#    Name: 6tdz_4_ATP
#    Modification time : Fri May 22 19:32:04 2020

@<TRIPOS>MOLECULE
6tdz_4_ATP
   43    45     1     0     1
SMALL
NO_CHARGES


@<TRIPOS>ATOM
      1 PG        312.1800  219.1850  313.9040 P.3       1 ATP601      0.0000 
      2 O1G       311.4940  218.9050  315.2140 O.co2     1 ATP601      0.0000 
      3 O2G       313.6280  218.7880  313.8750 O.co2     1 ATP601      0.0000 
      4 O3G       311.8810  220.5330  313.3000 O.co2     1 ATP601      0.0000 
      5 PB        309.9320  217.8560  312.9560 P.3       1 ATP601      0.0000 
      6 O1B       309.7180  216.5440  312.2730 O.co2     1 ATP601      0.0000 
      7 O2B       309.4700  218.1190  314.3640 O.co2     1 ATP601      0.0000 
      8 O3B       311.4980  218.1650  312.8740 O.3       1 ATP601      0.0000 
      9 PA        307.7840  219.4090  311.9950 P.3       1 ATP601      0.0000 
     10 O1A       307.6930  220.6360  312.8580 O.co2     1 ATP601      0.0000 
     11 O2A       306.8950  218.2410  312.2730 O.co2     1 ATP601      0.0000 
     12 O3A       309.3110  218.9330  311.9560 O.3       1 ATP601      0.0000 
     13 O5'       307.5660  219.8430  310.4690 O.3       1 ATP601      0.0000 
     14 C5'       308.6010  220.6050  309.8800 C.3       1 ATP601      0.0000 
     15 C4'       308.2690  221.0900  308.4900 C.3       1 ATP601      0.0000 
     16 O4'       307.6540  220.0380  307.7410 O.3       1 ATP601      0.0000 
     17 C3'       307.3080  222.2570  308.5400 C.3       1 ATP601      0.0000 
     18 O3'       307.7610  223.2390  307.6250 O.3       1 ATP601      0.0000 
     19 C2'       306.0200  221.6040  308.1410 C.3       1 ATP601      0.0000 
     20 O2'       305.0850  222.4330  307.4860 O.3       1 ATP601      0.0000 
     21 C1'       306.4450  220.5280  307.1930 C.3       1 ATP601      0.0000 
     22 N9        305.3930  219.5040  307.1250 N.pl3     1 ATP601      0.0000 
     23 C8        305.3550  218.3890  307.8500 C.2       1 ATP601      0.0000 
     24 N7        304.2570  217.6580  307.5660 N.2       1 ATP601      0.0000 
     25 C5        303.5740  218.3340  306.6320 C.ar      1 ATP601      0.0000 
     26 C6        302.3220  218.1440  305.8900 C.ar      1 ATP601      0.0000 
     27 N6        301.5790  217.0400  306.0910 N.pl3     1 ATP601      0.0000 
     28 N1        301.9690  219.0870  305.0000 N.ar      1 ATP601      0.0000 
     29 C2        302.7130  220.1830  304.7910 C.ar      1 ATP601      0.0000 
     30 N3        303.8570  220.4230  305.4410 N.ar      1 ATP601      0.0000 
     31 C4        304.3260  219.5490  306.3500 C.ar      1 ATP601      0.0000 
     32 H5'1      309.4710  219.9900  309.8030 H         1 ATP601      0.0000 
     33 H5'2      308.8500  221.4490  310.5160 H         1 ATP601      0.0000 
     34 H4'       309.1880  221.4060  307.9880 H         1 ATP601      0.0000 
     35 H3'       307.2320  222.6600  309.5510 H         1 ATP601      0.0000 
     36 HO3'      307.2270  224.0160  307.7700 H         1 ATP601      0.0000 
     37 H2'       305.5660  221.1530  309.0330 H         1 ATP601      0.0000 
     38 HO2'      304.2800  221.9670  307.7010 H         1 ATP601      0.0000 
     39 H1'       306.6110  220.9770  306.2140 H         1 ATP601      0.0000 
     40 H8        306.1070  218.1320  308.5560 H         1 ATP601      0.0000 
     41 HN61      301.8840  216.3530  306.7630 H         1 ATP601      0.0000 
     42 HN62      300.7260  216.9070  305.5740 H         1 ATP601      0.0000 
     43 H2        302.3730  220.9080  304.0680 H         1 ATP601      0.0000 
@<TRIPOS>BOND
     1    1    2 ar   
     2    1    3 ar   
     3    1    4 ar   
     4    1    8 1    
     5    5    6 ar   
     6    5    7 ar   
     7    5    8 1    
     8    5   12 1    
     9    9   10 ar   
    10    9   11 ar   
    11    9   12 1    
    12    9   13 1    
    13   13   14 1    
    14   14   15 1    
    15   14   32 1    
    16   14   33 1    
    17   15   16 1    
    18   15   17 1    
    19   15   34 1    
    20   16   21 1    
    21   17   18 1    
    22   17   19 1    
    23   17   35 1    
    24   18   36 1    
    25   19   20 1    
    26   19   21 1    
    27   19   37 1    
    28   20   38 1    
    29   21   22 1    
    30   21   39 1    
    31   22   23 1    
    32   22   31 1    
    33   23   24 2    
    34   23   40 1    
    35   24   25 1    
    36   25   26 ar   
    37   25   31 ar   
    38   26   27 1    
    39   26   28 ar   
    40   27   41 1    
    41   27   42 1    
    42   28   29 ar   
    43   29   30 ar   
    44   29   43 1    
    45   30   31 ar   
@<TRIPOS>SUBSTRUCTURE
     1 ATP601      1 GROUP   
@<TRIPOS>SET
ATOM$ORANGE STATIC     ATOMS   COLORGROUP SYSTEM 
20 14 14 15 15 17 17 19 19 21 21 23 23 25 25 26 26 29 \
29 31 31 

