#    Name: 6tdz_1_ATP
#    Modification time : Fri May 22 19:31:25 2020

@<TRIPOS>MOLECULE
6tdz_1_ATP
   43    45     1     0     1
SMALL
NO_CHARGES


@<TRIPOS>ATOM
      1 PG        313.6660  192.1550  315.0070 P.3       1 ATP601      0.0000 
      2 O1G       315.0550  192.0260  314.4470 O.co2     1 ATP601      0.0000 
      3 O2G       313.1110  193.5520  315.0150 O.co2     1 ATP601      0.0000 
      4 O3G       313.4540  191.3820  316.2830 O.co2     1 ATP601      0.0000 
      5 PB        312.8520  189.8330  313.6650 P.3       1 ATP601      0.0000 
      6 O1B       313.9740  189.6130  312.6960 O.co2     1 ATP601      0.0000 
      7 O2B       312.8060  189.0990  314.9790 O.co2     1 ATP601      0.0000 
      8 O3B       312.7390  191.4100  313.9350 O.3       1 ATP601      0.0000 
      9 PA        310.4740  188.3760  313.1100 P.3       1 ATP601      0.0000 
     10 O1A       309.7450  188.6290  314.4020 O.co2     1 ATP601      0.0000 
     11 O2A       311.1190  187.0420  312.8770 O.co2     1 ATP601      0.0000 
     12 O3A       311.4950  189.5830  312.8520 O.3       1 ATP601      0.0000 
     13 O5'       309.4640  188.6630  311.9030 O.3       1 ATP601      0.0000 
     14 C5'       308.9570  189.9850  311.7830 C.3       1 ATP601      0.0000 
     15 C4'       307.7450  190.0430  310.8710 C.3       1 ATP601      0.0000 
     16 O4'       307.9700  189.2470  309.7150 O.3       1 ATP601      0.0000 
     17 C3'       306.4840  189.5140  311.5270 C.3       1 ATP601      0.0000 
     18 O3'       305.3640  190.3180  311.1560 O.3       1 ATP601      0.0000 
     19 C2'       306.3250  188.1350  310.9540 C.3       1 ATP601      0.0000 
     20 O2'       304.9650  187.7050  310.9540 O.3       1 ATP601      0.0000 
     21 C1'       306.8850  188.3400  309.5670 C.3       1 ATP601      0.0000 
     22 N9        307.3630  187.0870  308.9790 N.pl3     1 ATP601      0.0000 
     23 C8        308.5360  186.5080  309.2440 C.2       1 ATP601      0.0000 
     24 N7        308.6740  185.3700  308.5400 N.2       1 ATP601      0.0000 
     25 C5        307.5620  185.2340  307.8100 C.ar      1 ATP601      0.0000 
     26 C6        307.0690  184.2510  306.8500 C.ar      1 ATP601      0.0000 
     27 N6        307.8640  183.2020  306.5800 N.pl3     1 ATP601      0.0000 
     28 N1        305.8570  184.4530  306.3000 N.ar      1 ATP601      0.0000 
     29 C2        305.1080  185.5240  306.6110 C.ar      1 ATP601      0.0000 
     30 N3        305.5040  186.4600  307.4850 N.ar      1 ATP601      0.0000 
     31 C4        306.6980  186.3650  308.1000 C.ar      1 ATP601      0.0000 
     32 H5'1      309.7370  190.6230  311.3820 H         1 ATP601      0.0000 
     33 H5'2      308.6960  190.3590  312.7690 H         1 ATP601      0.0000 
     34 H4'       307.5770  191.0820  310.5760 H         1 ATP601      0.0000 
     35 H3'       306.5940  189.4610  312.6130 H         1 ATP601      0.0000 
     36 HO3'      304.5750  190.0240  311.6300 H         1 ATP601      0.0000 
     37 H2'       306.9540  187.4350  311.5070 H         1 ATP601      0.0000 
     38 HO2'      304.6530  187.6710  311.8700 H         1 ATP601      0.0000 
     39 H1'       306.1090  188.7790  308.9360 H         1 ATP601      0.0000 
     40 H8        309.2590  186.9000  309.9310 H         1 ATP601      0.0000 
     41 HN61      308.7580  183.1290  307.0400 H         1 ATP601      0.0000 
     42 HN62      307.5860  182.5000  305.9320 H         1 ATP601      0.0000 
     43 H2        304.1410  185.6390  306.1430 H         1 ATP601      0.0000 
@<TRIPOS>BOND
     1    1    2 ar   
     2    1    3 ar   
     3    1    4 ar   
     4    1    8 1    
     5    5    6 ar   
     6    5    7 ar   
     7    5    8 1    
     8    5   12 1    
     9    9   10 ar   
    10    9   11 ar   
    11    9   12 1    
    12    9   13 1    
    13   13   14 1    
    14   14   15 1    
    15   14   32 1    
    16   14   33 1    
    17   15   16 1    
    18   15   17 1    
    19   15   34 1    
    20   16   21 1    
    21   17   18 1    
    22   17   19 1    
    23   17   35 1    
    24   18   36 1    
    25   19   20 1    
    26   19   21 1    
    27   19   37 1    
    28   20   38 1    
    29   21   22 1    
    30   21   39 1    
    31   22   23 1    
    32   22   31 1    
    33   23   24 2    
    34   23   40 1    
    35   24   25 1    
    36   25   26 ar   
    37   25   31 ar   
    38   26   27 1    
    39   26   28 ar   
    40   27   41 1    
    41   27   42 1    
    42   28   29 ar   
    43   29   30 ar   
    44   29   43 1    
    45   30   31 ar   
@<TRIPOS>SUBSTRUCTURE
     1 ATP601      1 GROUP   
@<TRIPOS>SET
ATOM$ORANGE STATIC     ATOMS   COLORGROUP SYSTEM 
20 14 14 15 15 17 17 19 19 21 21 23 23 25 25 26 26 29 \
29 31 31 

