#    Name: 6tdz_3_ATP
#    Modification time : Fri May 22 19:31:50 2020

@<TRIPOS>MOLECULE
6tdz_3_ATP
   43    45     1     0     1
SMALL
NO_CHARGES


@<TRIPOS>ATOM
      1 PG        330.6530  234.2830  304.2690 P.3       1 ATP601      0.0000 
      2 O1G       329.7690  233.1340  304.6740 O.co2     1 ATP601      0.0000 
      3 O2G       331.9390  233.9050  303.5860 O.co2     1 ATP601      0.0000 
      4 O3G       330.7840  235.3640  305.3090 O.co2     1 ATP601      0.0000 
      5 PB        328.3590  235.5850  303.4120 P.3       1 ATP601      0.0000 
      6 O1B       327.3630  234.4650  303.3110 O.co2     1 ATP601      0.0000 
      7 O2B       328.4450  236.4430  304.6480 O.co2     1 ATP601      0.0000 
      8 O3B       329.8130  234.9860  303.1070 O.3       1 ATP601      0.0000 
      9 PA        327.5410  237.9720  302.1450 P.3       1 ATP601      0.0000 
     10 O1A       328.4780  238.8920  302.8790 O.co2     1 ATP601      0.0000 
     11 O2A       326.0910  237.9130  302.5270 O.co2     1 ATP601      0.0000 
     12 O3A       328.1710  236.5040  302.1160 O.3       1 ATP601      0.0000 
     13 O5'       327.6460  238.3170  300.5880 O.3       1 ATP601      0.0000 
     14 C5'       328.9160  238.1370  299.9790 C.3       1 ATP601      0.0000 
     15 C4'       329.0000  238.8420  298.6430 C.3       1 ATP601      0.0000 
     16 O4'       327.7990  238.6150  297.9230 O.3       1 ATP601      0.0000 
     17 C3'       329.1620  240.3430  298.7880 C.3       1 ATP601      0.0000 
     18 O3'       330.0210  240.8460  297.7650 O.3       1 ATP601      0.0000 
     19 C2'       327.7750  240.8800  298.5800 C.3       1 ATP601      0.0000 
     20 O2'       327.7780  242.2110  298.0630 O.3       1 ATP601      0.0000 
     21 C1'       327.2370  239.8770  297.5890 C.3       1 ATP601      0.0000 
     22 N9        325.7810  239.7790  297.6460 N.pl3     1 ATP601      0.0000 
     23 C8        325.0500  239.1600  298.5840 C.2       1 ATP601      0.0000 
     24 N7        323.7380  239.2670  298.2960 N.2       1 ATP601      0.0000 
     25 C5        323.6560  239.9620  297.1560 C.ar      1 ATP601      0.0000 
     26 C6        322.5800  240.4480  296.3060 C.ar      1 ATP601      0.0000 
     27 N6        321.3370  240.1450  296.6630 N.pl3     1 ATP601      0.0000 
     28 N1        322.8740  241.1290  295.1850 N.ar      1 ATP601      0.0000 
     29 C2        324.1420  241.4000  294.8500 C.ar      1 ATP601      0.0000 
     30 N3        325.1840  241.0010  295.5920 N.ar      1 ATP601      0.0000 
     31 C4        324.9980  240.2970  296.7280 C.ar      1 ATP601      0.0000 
     32 H5'1      329.0890  237.0760  299.8310 H         1 ATP601      0.0000 
     33 H5'2      329.6840  238.5110  300.6460 H         1 ATP601      0.0000 
     34 H4'       329.8460  238.4410  298.0790 H         1 ATP601      0.0000 
     35 H3'       329.5250  240.6090  299.7850 H         1 ATP601      0.0000 
     36 HO3'      330.1820  241.7900  297.9000 H         1 ATP601      0.0000 
     37 H2'       327.2130  240.8170  299.5140 H         1 ATP601      0.0000 
     38 HO2'      328.2080  242.7930  298.7040 H         1 ATP601      0.0000 
     39 H1'       327.5490  240.1730  296.5840 H         1 ATP601      0.0000 
     40 H8        325.4490  238.6520  299.4470 H         1 ATP601      0.0000 
     41 HN61      321.1730  239.6190  297.5030 H         1 ATP601      0.0000 
     42 HN62      320.6000  240.4410  296.0810 H         1 ATP601      0.0000 
     43 H2        324.3320  241.9650  293.9480 H         1 ATP601      0.0000 
@<TRIPOS>BOND
     1    1    2 ar   
     2    1    3 ar   
     3    1    4 ar   
     4    1    8 1    
     5    5    6 ar   
     6    5    7 ar   
     7    5    8 1    
     8    5   12 1    
     9    9   10 ar   
    10    9   11 ar   
    11    9   12 1    
    12    9   13 1    
    13   13   14 1    
    14   14   15 1    
    15   14   32 1    
    16   14   33 1    
    17   15   16 1    
    18   15   17 1    
    19   15   34 1    
    20   16   21 1    
    21   17   18 1    
    22   17   19 1    
    23   17   35 1    
    24   18   36 1    
    25   19   20 1    
    26   19   21 1    
    27   19   37 1    
    28   20   38 1    
    29   21   22 1    
    30   21   39 1    
    31   22   23 1    
    32   22   31 1    
    33   23   24 2    
    34   23   40 1    
    35   24   25 1    
    36   25   26 ar   
    37   25   31 ar   
    38   26   27 1    
    39   26   28 ar   
    40   27   41 1    
    41   27   42 1    
    42   28   29 ar   
    43   29   30 ar   
    44   29   43 1    
    45   30   31 ar   
@<TRIPOS>SUBSTRUCTURE
     1 ATP601      1 GROUP   
@<TRIPOS>SET
ATOM$ORANGE STATIC     ATOMS   COLORGROUP SYSTEM 
20 14 14 15 15 17 17 19 19 21 21 23 23 25 25 26 26 29 \
29 31 31 

