#    Name: 6tdz_2_ATP
#    Modification time : Fri May 22 19:31:37 2020

@<TRIPOS>MOLECULE
6tdz_2_ATP
   43    45     1     0     1
SMALL
NO_CHARGES


@<TRIPOS>ATOM
      1 PG        356.3610  193.6650  295.9820 P.3       1 ATP601      0.0000 
      2 O1G       354.9410  194.1590  296.0060 O.co2     1 ATP601      0.0000 
      3 O2G       356.5510  192.2710  296.5160 O.co2     1 ATP601      0.0000 
      4 O3G       357.3810  194.6600  296.4690 O.co2     1 ATP601      0.0000 
      5 PB        356.9520  194.8090  293.5020 P.3       1 ATP601      0.0000 
      6 O1B       355.6660  195.5850  293.4330 O.co2     1 ATP601      0.0000 
      7 O2B       358.2210  195.4650  293.9740 O.co2     1 ATP601      0.0000 
      8 O3B       356.6830  193.5190  294.4180 O.3       1 ATP601      0.0000 
      9 PA        358.5410  193.3750  291.6880 P.3       1 ATP601      0.0000 
     10 O1A       358.8560  192.4040  292.7930 O.co2     1 ATP601      0.0000 
     11 O2A       359.6090  194.3270  291.2310 O.co2     1 ATP601      0.0000 
     12 O3A       357.1870  194.1540  292.0570 O.3       1 ATP601      0.0000 
     13 O5'       358.0510  192.5360  290.4190 O.3       1 ATP601      0.0000 
     14 C5'       357.0080  191.5860  290.5880 C.3       1 ATP601      0.0000 
     15 C4'       356.8500  190.7490  289.3330 C.3       1 ATP601      0.0000 
     16 O4'       356.7060  191.6110  288.2100 O.3       1 ATP601      0.0000 
     17 C3'       358.0560  189.8700  289.0620 C.3       1 ATP601      0.0000 
     18 O3'       357.6370  188.5750  288.6360 O.3       1 ATP601      0.0000 
     19 C2'       358.7790  190.5680  287.9430 C.3       1 ATP601      0.0000 
     20 O2'       359.5330  189.6630  287.1380 O.3       1 ATP601      0.0000 
     21 C1'       357.6260  191.2090  287.2020 C.3       1 ATP601      0.0000 
     22 N9        358.0370  192.3660  286.3890 N.pl3     1 ATP601      0.0000 
     23 C8        358.3540  193.5870  286.8340 C.2       1 ATP601      0.0000 
     24 N7        358.6720  194.4020  285.8030 N.2       1 ATP601      0.0000 
     25 C5        358.5500  193.6820  284.6790 C.ar      1 ATP601      0.0000 
     26 C6        358.7340  193.9200  283.2400 C.ar      1 ATP601      0.0000 
     27 N6        359.1210  195.1310  282.8000 N.pl3     1 ATP601      0.0000 
     28 N1        358.4980  192.8990  282.3940 N.ar      1 ATP601      0.0000 
     29 C2        358.1090  191.6900  282.8290 C.ar      1 ATP601      0.0000 
     30 N3        357.9280  191.4060  284.1250 N.ar      1 ATP601      0.0000 
     31 C4        358.1290  192.3430  285.0720 C.ar      1 ATP601      0.0000 
     32 H5'1      356.0790  192.1120  290.7960 H         1 ATP601      0.0000 
     33 H5'2      357.2380  190.9420  291.4330 H         1 ATP601      0.0000 
     34 H4'       355.9610  190.1190  289.4340 H         1 ATP601      0.0000 
     35 H3'       358.6950  189.8090  289.9480 H         1 ATP601      0.0000 
     36 HO3'      358.4030  187.9980  288.5340 H         1 ATP601      0.0000 
     37 H2'       359.4250  191.3430  288.3550 H         1 ATP601      0.0000 
     38 HO2'      360.2080  189.2490  287.6920 H         1 ATP601      0.0000 
     39 H1'       357.1630  190.4560  286.5600 H         1 ATP601      0.0000 
     40 H8        358.3600  193.8720  287.8700 H         1 ATP601      0.0000 
     41 HN61      359.2870  195.8700  283.4650 H         1 ATP601      0.0000 
     42 HN62      359.2440  195.2920  281.8150 H         1 ATP601      0.0000 
     43 H2        357.9410  190.9090  282.1030 H         1 ATP601      0.0000 
@<TRIPOS>BOND
     1    1    2 ar   
     2    1    3 ar   
     3    1    4 ar   
     4    1    8 1    
     5    5    6 ar   
     6    5    7 ar   
     7    5    8 1    
     8    5   12 1    
     9    9   10 ar   
    10    9   11 ar   
    11    9   12 1    
    12    9   13 1    
    13   13   14 1    
    14   14   15 1    
    15   14   32 1    
    16   14   33 1    
    17   15   16 1    
    18   15   17 1    
    19   15   34 1    
    20   16   21 1    
    21   17   18 1    
    22   17   19 1    
    23   17   35 1    
    24   18   36 1    
    25   19   20 1    
    26   19   21 1    
    27   19   37 1    
    28   20   38 1    
    29   21   22 1    
    30   21   39 1    
    31   22   23 1    
    32   22   31 1    
    33   23   24 2    
    34   23   40 1    
    35   24   25 1    
    36   25   26 ar   
    37   25   31 ar   
    38   26   27 1    
    39   26   28 ar   
    40   27   41 1    
    41   27   42 1    
    42   28   29 ar   
    43   29   30 ar   
    44   29   43 1    
    45   30   31 ar   
@<TRIPOS>SUBSTRUCTURE
     1 ATP601      1 GROUP   
@<TRIPOS>SET
ATOM$ORANGE STATIC     ATOMS   COLORGROUP SYSTEM 
20 14 14 15 15 17 17 19 19 21 21 23 23 25 25 26 26 29 \
29 31 31 

