#    Name: 6tdz_5_ADP
#    Modification time : Fri May 22 19:32:15 2020

@<TRIPOS>MOLECULE
6tdz_5_ADP
   39    41     1     0     1
SMALL
NO_CHARGES


@<TRIPOS>ATOM
      1 PB        336.8210  179.3610  304.4550 P.3       1 ADP601      0.0000 
      2 O1B       337.8460  178.7010  303.5840 O.co2     1 ADP601      0.0000 
      3 O2B       336.6370  180.8390  304.2510 O.co2     1 ADP601      0.0000 
      4 O3B       336.8470  178.9040  305.8860 O.co2     1 ADP601      0.0000 
      5 PA        335.3480  177.1850  303.5810 P.3       1 ADP601      0.0000 
      6 O1A       336.3520  176.7440  302.5560 O.co2     1 ADP601      0.0000 
      7 O2A       335.2340  176.4550  304.8930 O.co2     1 ADP601      0.0000 
      8 O3A       335.4770  178.7560  303.8540 O.3       1 ADP601      0.0000 
      9 O5'       333.9230  177.1940  302.8730 O.3       1 ADP601      0.0000 
     10 C5'       333.2680  175.9670  302.6640 C.3       1 ADP601      0.0000 
     11 C4'       332.2390  176.2070  301.5910 C.3       1 ADP601      0.0000 
     12 O4'       332.8110  176.7600  300.4120 O.3       1 ADP601      0.0000 
     13 C3'       331.5800  174.9330  301.1570 C.3       1 ADP601      0.0000 
     14 O3'       330.6170  174.5480  302.1270 O.3       1 ADP601      0.0000 
     15 C2'       331.0600  175.3230  299.7990 C.3       1 ADP601      0.0000 
     16 O2'       329.8500  176.0770  299.8680 O.3       1 ADP601      0.0000 
     17 C1'       332.1480  176.2370  299.2590 C.3       1 ADP601      0.0000 
     18 N9        333.1650  175.5690  298.4010 N.pl3     1 ADP601      0.0000 
     19 C8        334.4820  175.7950  298.4980 C.2       1 ADP601      0.0000 
     20 N7        335.1800  175.0730  297.5920 N.2       1 ADP601      0.0000 
     21 C5        334.2950  174.3650  296.8840 C.ar      1 ADP601      0.0000 
     22 C6        334.3560  173.4030  295.7760 C.ar      1 ADP601      0.0000 
     23 N6        335.5450  173.0570  295.2410 N.pl3     1 ADP601      0.0000 
     24 N1        333.1970  172.8930  295.3210 N.ar      1 ADP601      0.0000 
     25 C2        332.0130  173.2380  295.8480 C.ar      1 ADP601      0.0000 
     26 N3        331.8940  174.1100  296.8530 N.ar      1 ADP601      0.0000 
     27 C4        332.9730  174.7010  297.4060 C.ar      1 ADP601      0.0000 
     28 H5'1      332.7870  175.6320  303.5790 H         1 ADP601      0.0000 
     29 H5'2      333.9830  175.2090  302.3530 H         1 ADP601      0.0000 
     30 H4'       331.4760  176.8850  301.9770 H         1 ADP601      0.0000 
     31 H3'       332.3410  174.1590  301.0360 H         1 ADP601      0.0000 
     32 HO3'      329.8920  174.0950  301.7120 H         1 ADP601      0.0000 
     33 H2'       330.9160  174.4300  299.1970 H         1 ADP601      0.0000 
     34 HO2'      329.1340  175.5410  300.2180 H         1 ADP601      0.0000 
     35 H1'       331.6730  177.0500  298.7050 H         1 ADP601      0.0000 
     36 H8        334.9250  176.4630  299.2080 H         1 ADP601      0.0000 
     37 HN61      336.3920  173.4630  295.6090 H         1 ADP601      0.0000 
     38 HN62      335.5820  172.3970  294.4790 H         1 ADP601      0.0000 
     39 H2        331.1120  172.7990  295.4470 H         1 ADP601      0.0000 
@<TRIPOS>BOND
     1    1    2 ar   
     2    1    3 ar   
     3    1    4 ar   
     4    1    8 1    
     5    5    6 ar   
     6    5    7 ar   
     7    5    8 1    
     8    5    9 1    
     9    9   10 1    
    10   10   11 1    
    11   10   28 1    
    12   10   29 1    
    13   11   12 1    
    14   11   13 1    
    15   11   30 1    
    16   12   17 1    
    17   13   14 1    
    18   13   15 1    
    19   13   31 1    
    20   14   32 1    
    21   15   16 1    
    22   15   17 1    
    23   15   33 1    
    24   16   34 1    
    25   17   18 1    
    26   17   35 1    
    27   18   19 1    
    28   18   27 1    
    29   19   20 2    
    30   19   36 1    
    31   20   21 1    
    32   21   22 ar   
    33   21   27 ar   
    34   22   23 1    
    35   22   24 ar   
    36   23   37 1    
    37   23   38 1    
    38   24   25 ar   
    39   25   26 ar   
    40   25   39 1    
    41   26   27 ar   
@<TRIPOS>SUBSTRUCTURE
     1 ADP601      1 GROUP   
@<TRIPOS>SET
ATOM$ORANGE STATIC     ATOMS   COLORGROUP SYSTEM 
20 10 10 11 11 13 13 15 15 17 17 19 19 21 21 22 22 25 \
25 27 27 

