#    Name: 6ih7_1_4BW
#    Modification time : Fri May 22 19:27:01 2020

@<TRIPOS>MOLECULE
6ih7_1_4BW
   45    51     1     0     0
SMALL
NO_CHARGES


@<TRIPOS>ATOM
      1 OAC       -19.9650  -29.5330   57.6770           1 4BW301      0.0000 
      2 CBC       -21.0930  -29.1810   57.5170           1 4BW301      0.0000 
      3 NAT       -21.8590  -29.7200   56.4300           1 4BW301      0.0000 
      4 CBA       -23.2180  -29.3060   56.2340           1 4BW301      0.0000 
      5 NAA       -23.9840  -29.8450   55.1380           1 4BW301      0.0000 
      6 NAS       -23.8340  -28.3250   57.1440           1 4BW301      0.0000 
      7 CBG       -23.0310  -27.7530   58.2660           1 4BW301      0.0000 
      8 CBE       -21.7450  -28.1410   58.4680           1 4BW301      0.0000 
      9 NAR       -21.2840  -27.4850   59.5400           1 4BW301      0.0000 
     10 CAL       -22.2940  -26.6920   60.0100           1 4BW301      0.0000 
     11 NBQ       -23.3610  -26.8620   59.2170           1 4BW301      0.0000 
     12 CBO       -24.6210  -26.1590   59.4420           1 4BW301      0.0000 
     13 CBI       -24.8220  -25.6310   60.6260           1 4BW301      0.0000 
     14 OAG       -25.5040  -26.5200   61.5710           1 4BW301      0.0000 
     15 OAX       -24.6140  -24.9130   58.4100           1 4BW301      0.0000 
     16 CBK       -25.3390  -23.9680   58.9730           1 4BW301      0.0000 
     17 CAN       -24.4490  -22.7470   59.2890           1 4BW301      0.0000 
     18 OAV       -25.3280  -21.8940   59.9590           1 4BW301      0.0000 
     19 PBR       -25.6850  -20.5980   58.9310           1 4BW301      0.0000 
     20 O3'       -27.3970  -20.8440   58.6110           1 4BW301      0.0000 
     21 OAH       -24.7610  -20.4950   57.7030           1 4BW301      0.0000 
     22 OAD       -25.6150  -19.2800   59.7020           1 4BW301      0.0000 
     23 CBM       -25.8820  -24.5440   60.2870           1 4BW301      0.0000 
     24 OAZ       -27.0460  -25.1690   60.0860           1 4BW301      0.0000 
     25 PBS       -28.3870  -24.7640   60.9690           1 4BW301      0.0000 
     26 OAI       -29.5640  -25.5860   60.3940           1 4BW301      0.0000 
     27 OAE       -28.3380  -25.2020   62.4370           1 4BW301      0.0000 
     28 O5'       -28.8860  -23.1110   60.8070           1 4BW301      0.0000 
     29 C5'       -29.5280  -22.9110   59.5020           1 4BW301      0.0000 
     30 C4'       -29.5640  -21.3760   59.2410           1 4BW301      0.0000 
     31 O4'       -30.4520  -20.8150   59.9820           1 4BW301      0.0000 
     32 C3'       -28.1770  -20.7110   59.6520           1 4BW301      0.0000 
     33 C2'       -28.6050  -19.2940   59.9450           1 4BW301      0.0000 
     34 O2'       -28.6200  -18.4500   58.7090           1 4BW301      0.0000 
     35 C1'       -29.8590  -19.3980   60.4890           1 4BW301      0.0000 
     36 N9        -29.7920  -19.3410   61.8970           1 4BW301      0.0000 
     37 C8        -29.4990  -20.4900   62.5240           1 4BW301      0.0000 
     38 N7        -29.4530  -20.2390   63.8520           1 4BW301      0.0000 
     39 C5        -29.7190  -18.9270   64.0380           1 4BW301      0.0000 
     40 C4        -29.9250  -18.3760   62.8340           1 4BW301      0.0000 
     41 N3        -30.2170  -17.0630   62.7320           1 4BW301      0.0000 
     42 C2        -30.3070  -16.2790   63.8420           1 4BW301      0.0000 
     43 N1        -30.0980  -16.8230   65.0660           1 4BW301      0.0000 
     44 C6        -29.8060  -18.1280   65.1620           1 4BW301      0.0000 
     45 N6        -29.6220  -18.5000   66.5720           1 4BW301      0.0000 
@<TRIPOS>BOND
     1    1    2 du   
     2    2    3 du   
     3    2    8 du   
     4    3    4 du   
     5    4    5 du   
     6    4    6 du   
     7    6    7 du   
     8    7    8 du   
     9    7   11 du   
    10    8    9 du   
    11    9   10 du   
    12   10   11 du   
    13   11   12 du   
    14   12   13 du   
    15   12   15 du   
    16   13   14 du   
    17   13   23 du   
    18   15   16 du   
    19   16   17 du   
    20   16   23 du   
    21   17   18 du   
    22   18   19 du   
    23   19   20 du   
    24   19   21 du   
    25   19   22 du   
    26   20   32 du   
    27   23   24 du   
    28   24   25 du   
    29   25   26 du   
    30   25   27 du   
    31   25   28 du   
    32   28   29 du   
    33   29   30 du   
    34   30   31 du   
    35   30   32 du   
    36   31   35 du   
    37   32   33 du   
    38   33   34 du   
    39   33   35 du   
    40   35   36 du   
    41   36   37 du   
    42   36   40 du   
    43   37   38 du   
    44   38   39 du   
    45   39   40 du   
    46   39   44 du   
    47   40   41 du   
    48   41   42 du   
    49   42   43 du   
    50   43   44 du   
    51   44   45 du   
@<TRIPOS>SUBSTRUCTURE
     1 4BW301      1 GROUP   
@<TRIPOS>SET

