#    Name: 6ih7_2_4BW
#    Modification time : Fri May 22 19:27:06 2020

@<TRIPOS>MOLECULE
6ih7_2_4BW
   45    51     1     0     0
SMALL
NO_CHARGES


@<TRIPOS>ATOM
      1 OAC       -21.4710    4.8410   33.1270           1 4BW301      0.0000 
      2 CBC       -22.5520    4.6180   33.5930           1 4BW301      0.0000 
      3 NAT       -22.9280    5.1960   34.8530           1 4BW301      0.0000 
      4 CBA       -24.2240    4.9340   35.4040           1 4BW301      0.0000 
      5 NAA       -24.5840    5.5500   36.6640           1 4BW301      0.0000 
      6 NAS       -25.1740    4.0590   34.6950           1 4BW301      0.0000 
      7 CBG       -24.7630    3.4340   33.4080           1 4BW301      0.0000 
      8 CBE       -23.5410    3.6850   32.8670           1 4BW301      0.0000 
      9 NAR       -23.4450    3.0080   31.7110           1 4BW301      0.0000 
     10 CAL       -24.6130    2.3350   31.5240           1 4BW301      0.0000 
     11 NBQ       -25.4130    2.6050   32.5680           1 4BW301      0.0000 
     12 CBO       -26.7320    2.0150   32.6230           1 4BW301      0.0000 
     13 CBI       -27.1540    1.6380   31.4600           1 4BW301      0.0000 
     14 OAG       -27.8310    2.7340   30.7580           1 4BW301      0.0000 
     15 OAX       -26.5980    0.6380   33.4450           1 4BW301      0.0000 
     16 CBK       -27.5580   -0.1670   33.0270           1 4BW301      0.0000 
     17 CAN       -26.9160   -1.5300   32.6240           1 4BW301      0.0000 
     18 OAV       -27.9540   -2.3500   32.1760           1 4BW301      0.0000 
     19 PBR       -28.1410   -3.7280   33.1690           1 4BW301      0.0000 
     20 O3'       -29.7720   -3.4700   33.8220           1 4BW301      0.0000 
     21 OAH       -26.9880   -3.9830   34.1450           1 4BW301      0.0000 
     22 OAD       -28.1990   -4.9730   32.2560           1 4BW301      0.0000 
     23 CBM       -28.2080    0.5540   31.8430           1 4BW301      0.0000 
     24 OAZ       -29.3260    1.1900   32.2100           1 4BW301      0.0000 
     25 PBS       -30.7800    0.4870   31.8730           1 4BW301      0.0000 
     26 OAI       -31.8300    1.4080   32.5410           1 4BW301      0.0000 
     27 OAE       -31.1320    0.5060   30.3840           1 4BW301      0.0000 
     28 O5'       -30.8820   -1.0880   32.5970           1 4BW301      0.0000 
     29 C5'       -32.1350   -1.4250   33.2830           1 4BW301      0.0000 
     30 C4'       -32.1160   -2.9840   33.4510           1 4BW301      0.0000 
     31 O4'       -32.9600   -3.5280   32.6490           1 4BW301      0.0000 
     32 C3'       -30.7510   -3.6610   32.9480           1 4BW301      0.0000 
     33 C2'       -31.1700   -5.1070   32.7700           1 4BW301      0.0000 
     34 O2'       -30.8860   -5.8960   33.9990           1 4BW301      0.0000 
     35 C1'       -32.5260   -5.0920   32.5800           1 4BW301      0.0000 
     36 N9        -32.9400   -5.7510   31.3920           1 4BW301      0.0000 
     37 C8        -33.3820   -7.0040   31.5770           1 4BW301      0.0000 
     38 N7        -33.7400   -7.5310   30.3820           1 4BW301      0.0000 
     39 C5        -33.5170   -6.6070   29.4460           1 4BW301      0.0000 
     40 C4        -33.0330   -5.5040   30.0610           1 4BW301      0.0000 
     41 N3        -32.7290   -4.4150   29.3440           1 4BW301      0.0000 
     42 C2        -32.9130   -4.4800   28.0120           1 4BW301      0.0000 
     43 N1        -33.4040   -5.5680   27.3810           1 4BW301      0.0000 
     44 C6        -33.7060   -6.6350   28.0920           1 4BW301      0.0000 
     45 N6        -34.2220   -7.7060   27.2230           1 4BW301      0.0000 
@<TRIPOS>BOND
     1    1    2 du   
     2    2    3 du   
     3    2    8 du   
     4    3    4 du   
     5    4    5 du   
     6    4    6 du   
     7    6    7 du   
     8    7    8 du   
     9    7   11 du   
    10    8    9 du   
    11    9   10 du   
    12   10   11 du   
    13   11   12 du   
    14   12   13 du   
    15   12   15 du   
    16   13   14 du   
    17   13   23 du   
    18   15   16 du   
    19   16   17 du   
    20   16   23 du   
    21   17   18 du   
    22   18   19 du   
    23   19   20 du   
    24   19   21 du   
    25   19   22 du   
    26   20   32 du   
    27   23   24 du   
    28   24   25 du   
    29   25   26 du   
    30   25   27 du   
    31   25   28 du   
    32   28   29 du   
    33   29   30 du   
    34   30   31 du   
    35   30   32 du   
    36   31   35 du   
    37   32   33 du   
    38   33   34 du   
    39   33   35 du   
    40   35   36 du   
    41   36   37 du   
    42   36   40 du   
    43   37   38 du   
    44   38   39 du   
    45   39   40 du   
    46   39   44 du   
    47   40   41 du   
    48   41   42 du   
    49   42   43 du   
    50   43   44 du   
    51   44   45 du   
@<TRIPOS>SUBSTRUCTURE
     1 4BW301      1 GROUP   
@<TRIPOS>SET

