#    Name: 6gtp_1_ACO
#    Modification time : Fri May 22 19:30:08 2020

@<TRIPOS>MOLECULE
6gtp_1_ACO
   51    53     1     0     1
SMALL
NO_CHARGES


@<TRIPOS>ATOM
      1 N1A         0.0280   21.9060   99.3460 N.ar      1 ACO201      0.0000 
      2 C2A         0.9060   21.1440   98.6670 C.ar      1 ACO201      0.0000 
      3 N3A         1.5660   20.1040   99.2060 N.ar      1 ACO201      0.0000 
      4 C4A         1.3770   19.7570  100.5020 C.ar      1 ACO201      0.0000 
      5 C5A         0.4320   20.5410  101.3110 C.ar      1 ACO201      0.0000 
      6 C6A        -0.2570   21.6720  100.6460 C.ar      1 ACO201      0.0000 
      7 N6A        -1.1430   22.4450  101.3190 N.pl3     1 ACO201      0.0000 
      8 N7A         0.4320   19.9930  102.5410 N.2       1 ACO201      0.0000 
      9 C8A         1.3000   18.9500  102.5210 C.2       1 ACO201      0.0000 
     10 N9A         1.8640   18.8080  101.3070 N.pl3     1 ACO201      0.0000 
     11 C1B         2.8580   17.7730  100.9280 C.3       1 ACO201      0.0000 
     12 C2B         3.9490   17.7010  101.9850 C.3       1 ACO201      0.0000 
     13 O2B         5.2270   17.9270  101.3760 O.3       1 ACO201      0.0000 
     14 C3B         3.8340   16.3200  102.6170 C.3       1 ACO201      0.0000 
     15 O3B         5.0540   15.5790  102.5580 O.3       1 ACO201      0.0000 
     16 P3B         5.5900   14.9850  101.1610 P.3       1 ACO201      0.0000 
     17 O7A         5.5550   16.1690  100.2230 O.co2     1 ACO201      0.0000 
     18 O8A         6.9780   14.4880  101.4860 O.co2     1 ACO201      0.0000 
     19 O9A         4.6000   13.8960  100.8250 O.co2     1 ACO201      0.0000 
     20 C4B         2.7440   15.5910  101.8450 C.3       1 ACO201      0.0000 
     21 O4B         2.2200   16.4940  100.8670 O.3       1 ACO201      0.0000 
     22 C5B         1.6260   15.1320  102.7710 C.3       1 ACO201      0.0000 
     23 O5B         1.5420   16.0140  103.8890 O.3       1 ACO201      0.0000 
     24 P1A         0.5030   15.7230  105.0840 P.3       1 ACO201      0.0000 
     25 O1A        -0.8150   15.3090  104.4730 O.co2     1 ACO201      0.0000 
     26 O2A         0.5550   16.8830  106.0480 O.co2     1 ACO201      0.0000 
     27 O3A         1.1500   14.4370  105.8060 O.3       1 ACO201      0.0000 
     28 P2A         0.3170   13.6160  106.9120 P.3       1 ACO201      0.0000 
     29 O4A        -0.8680   14.4530  107.3300 O.co2     1 ACO201      0.0000 
     30 O5A         0.1050   12.2120  106.3970 O.co2     1 ACO201      0.0000 
     31 O6A         1.3470   13.5490  108.1470 O.3       1 ACO201      0.0000 
     32 CBP         2.9880   11.9550  108.8980 C.3       1 ACO201      0.0000 
     33 CCP         2.6870   13.1050  107.9470 C.3       1 ACO201      0.0000 
     34 CDP         3.0510   12.4700  110.3290 C.3       1 ACO201      0.0000 
     35 CEP         4.3110   11.3040  108.5230 C.3       1 ACO201      0.0000 
     36 CAP         1.8760   10.9180  108.7920 C.3       1 ACO201      0.0000 
     37 OAP         1.9130   10.3090  107.4970 O.3       1 ACO201      0.0000 
     38 C9P         2.0730    9.8690  109.8450 C.2       1 ACO201      0.0000 
     39 O9P         1.6200   10.0240  110.9670 O.2       1 ACO201      0.0000 
     40 N8P         2.7580    8.7870  109.4830 N.am      1 ACO201      0.0000 
     41 C7P         2.8390    7.6200  110.3400 C.3       1 ACO201      0.0000 
     42 C6P         3.6370    7.8980  111.6080 C.3       1 ACO201      0.0000 
     43 C5P         4.9870    8.4650  111.2390 C.2       1 ACO201      0.0000 
     44 O5P         5.5270    8.1470  110.1920 O.2       1 ACO201      0.0000 
     45 N4P         5.5330    9.3110  112.1070 N.am      1 ACO201      0.0000 
     46 C3P         6.8960    9.7820  111.9510 C.3       1 ACO201      0.0000 
     47 C2P         7.1050   11.1480  112.5920 C.3       1 ACO201      0.0000 
     48 S1P         8.7720   11.2870  113.1460 S.3       1 ACO201      0.0000 
     49 C           8.5160   11.7700  114.7190 C.2       1 ACO201      0.0000 
     50 O           9.1170   12.7420  115.1450 O.2       1 ACO201      0.0000 
     51 CH3         7.5520   10.9960  115.5690 C.3       1 ACO201      0.0000 
@<TRIPOS>BOND
     1    1    2 ar   
     2    1    6 ar   
     3    2    3 ar   
     4    3    4 ar   
     5    4    5 ar   
     6    4   10 1    
     7    5    6 ar   
     8    5    8 1    
     9    6    7 1    
    10    8    9 2    
    11    9   10 1    
    12   10   11 1    
    13   11   12 1    
    14   11   21 1    
    15   12   13 1    
    16   12   14 1    
    17   14   15 1    
    18   14   20 1    
    19   15   16 1    
    20   16   17 ar   
    21   16   18 ar   
    22   16   19 ar   
    23   20   21 1    
    24   20   22 1    
    25   22   23 1    
    26   23   24 1    
    27   24   25 ar   
    28   24   26 ar   
    29   24   27 1    
    30   27   28 1    
    31   28   29 ar   
    32   28   30 ar   
    33   28   31 1    
    34   31   33 1    
    35   32   33 1    
    36   32   34 1    
    37   32   35 1    
    38   32   36 1    
    39   36   37 1    
    40   36   38 1    
    41   38   39 2    
    42   38   40 am   
    43   40   41 1    
    44   41   42 1    
    45   42   43 1    
    46   43   44 2    
    47   43   45 am   
    48   45   46 1    
    49   46   47 1    
    50   47   48 1    
    51   48   49 1    
    52   49   50 2    
    53   49   51 1    
@<TRIPOS>SUBSTRUCTURE
     1 ACO201      1 GROUP   
@<TRIPOS>SET
ATOM$ORANGE STATIC     ATOMS   COLORGROUP SYSTEM 
46 2 2 4 4 5 5 6 6 9 9 11 11 12 12 14 14 20 \
20 22 22 32 32 33 33 34 34 35 35 36 36 38 38 41 41 42 \
42 43 43 46 46 47 47 49 49 51 51 

