#    Name: 6f19_1_EEE
#    Modification time : Fri May 22 19:27:33 2020

@<TRIPOS>MOLECULE
6f19_1_EEE
    6     5     1     0     0
SMALL
NO_CHARGES


@<TRIPOS>ATOM
      1 C1         -3.0720    5.7730   -9.2070 C.2       1 EEE201      0.0000 
      2 C2         -3.0550    5.2110  -10.5550 C.3       1 EEE201      0.0000 
      3 O1         -2.8990    4.9890   -8.3140 O.2       1 EEE201      0.0000 
      4 O2         -3.3950    7.0940   -9.1140 O.3       1 EEE201      0.0000 
      5 C3         -2.5220    7.9940   -8.4100 C.3       1 EEE201      0.0000 
      6 C4         -2.9700    9.4550   -8.5010 C.3       1 EEE201      0.0000 
@<TRIPOS>BOND
     1    1    2 1    
     2    1    3 2    
     3    1    4 1    
     4    4    5 1    
     5    5    6 1    
@<TRIPOS>SUBSTRUCTURE
     1 EEE201      1 GROUP   
@<TRIPOS>SET

