#    Name: 6qvj_5_GDP
#    Modification time : Fri May 22 19:38:27 2020

@<TRIPOS>MOLECULE
6qvj_5_GDP
   28    30     1     0     1
SMALL
NO_CHARGES


@<TRIPOS>ATOM
      1 PB        182.4700  331.7820  361.1800 P.3       1 GDP501      0.0000 
      2 O1B       182.1410  331.9740  359.7080 O.co2     1 GDP501      0.0000 
      3 O2B       183.9480  332.0660  361.3730 O.co2     1 GDP501      0.0000 
      4 O3B       181.5980  332.5570  362.0740 O.co2     1 GDP501      0.0000 
      5 O3A       182.3120  330.2270  361.4580 O.3       1 GDP501      0.0000 
      6 PA        182.9360  329.0100  360.6530 P.3       1 GDP501      0.0000 
      7 O1A       183.3980  329.5640  359.3310 O.co2     1 GDP501      0.0000 
      8 O2A       184.0920  328.4840  361.3940 O.co2     1 GDP501      0.0000 
      9 O5'       181.7540  327.9880  360.4000 O.3       1 GDP501      0.0000 
     10 C5'       181.6740  326.6490  360.9250 C.3       1 GDP501      0.0000 
     11 C4'       181.4730  325.6970  359.7760 C.3       1 GDP501      0.0000 
     12 O4'       182.6170  325.7580  358.8970 O.3       1 GDP501      0.0000 
     13 C3'       181.3020  324.2300  360.1580 C.3       1 GDP501      0.0000 
     14 O3'       180.3090  323.6190  359.3490 O.3       1 GDP501      0.0000 
     15 C2'       182.6880  323.6440  359.8970 C.3       1 GDP501      0.0000 
     16 O2'       182.6180  322.2790  359.5080 O.3       1 GDP501      0.0000 
     17 C1'       183.1330  324.4600  358.6970 C.3       1 GDP501      0.0000 
     18 N9        184.5890  324.5550  358.5820 N.pl3     1 GDP501      0.0000 
     19 C8        185.4420  325.2010  359.4300 C.2       1 GDP501      0.0000 
     20 N7        186.6950  325.1060  359.0690 N.2       1 GDP501      0.0000 
     21 C5        186.6570  324.3510  357.9100 C.2       1 GDP501      0.0000 
     22 C6        187.6900  323.9500  357.0500 C.2       1 GDP501      0.0000 
     23 O6        188.8890  324.1620  357.1870 O.2       1 GDP501      0.0000 
     24 N1        187.2230  323.2490  355.9640 N.am      1 GDP501      0.0000 
     25 C2        185.9140  322.9590  355.7220 C.2       1 GDP501      0.0000 
     26 N2        185.6320  322.3110  354.5930 N.pl3     1 GDP501      0.0000 
     27 N3        184.9300  323.3190  356.5390 N.2       1 GDP501      0.0000 
     28 C4        185.3700  324.0100  357.6000 C.2       1 GDP501      0.0000 
@<TRIPOS>BOND
     1    1    2 ar   
     2    1    3 ar   
     3    1    4 ar   
     4    1    5 1    
     5    5    6 1    
     6    6    7 ar   
     7    6    8 ar   
     8    6    9 1    
     9    9   10 1    
    10   10   11 1    
    11   11   12 1    
    12   11   13 1    
    13   12   17 1    
    14   13   14 1    
    15   13   15 1    
    16   15   16 1    
    17   15   17 1    
    18   17   18 1    
    19   18   19 1    
    20   18   28 1    
    21   19   20 2    
    22   20   21 1    
    23   21   22 1    
    24   21   28 2    
    25   22   23 2    
    26   22   24 am   
    27   24   25 1    
    28   25   26 1    
    29   25   27 2    
    30   27   28 1    
@<TRIPOS>SUBSTRUCTURE
     1 GDP501      1 GROUP   
@<TRIPOS>SET
ATOM$ORANGE STATIC     ATOMS   COLORGROUP SYSTEM 
20 10 10 11 11 13 13 15 15 17 17 19 19 21 21 22 22 25 \
25 28 28 

