#    Name: 6qvj_4_GDP
#    Modification time : Fri May 22 19:38:23 2020

@<TRIPOS>MOLECULE
6qvj_4_GDP
   28    30     1     0     1
SMALL
NO_CHARGES


@<TRIPOS>ATOM
      1 PB        180.4540  277.4540  352.4080 P.3       1 GDP501      0.0000 
      2 O1B       180.0740  277.4840  350.9360 O.co2     1 GDP501      0.0000 
      3 O2B       181.6610  278.3480  352.6040 O.co2     1 GDP501      0.0000 
      4 O3B       179.3280  277.7730  353.2990 O.co2     1 GDP501      0.0000 
      5 O3A       180.9810  275.9820  352.6860 O.3       1 GDP501      0.0000 
      6 PA        182.0730  275.1550  351.8820 P.3       1 GDP501      0.0000 
      7 O1A       182.2520  275.8560  350.5600 O.co2     1 GDP501      0.0000 
      8 O2A       183.3440  275.1820  352.6240 O.co2     1 GDP501      0.0000 
      9 O5'       181.4510  273.7220  351.6270 O.3       1 GDP501      0.0000 
     10 C5'       181.9590  272.4800  352.1520 C.3       1 GDP501      0.0000 
     11 C4'       182.1910  271.5360  351.0030 C.3       1 GDP501      0.0000 
     12 O4'       183.1980  272.0880  350.1270 O.3       1 GDP501      0.0000 
     13 C3'       182.6740  270.1400  351.3880 C.3       1 GDP501      0.0000 
     14 O3'       182.0450  269.1590  350.5750 O.3       1 GDP501      0.0000 
     15 C2'       184.1770  270.2120  351.1250 C.3       1 GDP501      0.0000 
     16 O2'       184.7050  268.9520  350.7350 O.3       1 GDP501      0.0000 
     17 C1'       184.2250  271.1420  349.9270 C.3       1 GDP501      0.0000 
     18 N9        185.4960  271.8580  349.8120 N.pl3     1 GDP501      0.0000 
     19 C8        185.9850  272.8070  350.6600 C.2       1 GDP501      0.0000 
     20 N7        187.1560  273.2650  350.3000 N.2       1 GDP501      0.0000 
     21 C5        187.4500  272.5730  349.1400 C.2       1 GDP501      0.0000 
     22 C6        188.5550  272.6580  348.2820 C.2       1 GDP501      0.0000 
     23 O6        189.5410  273.3710  348.4220 O.2       1 GDP501      0.0000 
     24 N1        188.4390  271.8250  347.1940 N.am      1 GDP501      0.0000 
     25 C2        187.3840  270.9970  346.9520 C.2       1 GDP501      0.0000 
     26 N2        187.4130  270.2900  345.8240 N.pl3     1 GDP501      0.0000 
     27 N3        186.3410  270.8930  347.7680 N.2       1 GDP501      0.0000 
     28 C4        186.4380  271.7070  348.8300 C.2       1 GDP501      0.0000 
@<TRIPOS>BOND
     1    1    2 ar   
     2    1    3 ar   
     3    1    4 ar   
     4    1    5 1    
     5    5    6 1    
     6    6    7 ar   
     7    6    8 ar   
     8    6    9 1    
     9    9   10 1    
    10   10   11 1    
    11   11   12 1    
    12   11   13 1    
    13   12   17 1    
    14   13   14 1    
    15   13   15 1    
    16   15   16 1    
    17   15   17 1    
    18   17   18 1    
    19   18   19 1    
    20   18   28 1    
    21   19   20 2    
    22   20   21 1    
    23   21   22 1    
    24   21   28 2    
    25   22   23 2    
    26   22   24 am   
    27   24   25 1    
    28   25   26 1    
    29   25   27 2    
    30   27   28 1    
@<TRIPOS>SUBSTRUCTURE
     1 GDP501      1 GROUP   
@<TRIPOS>SET
ATOM$ORANGE STATIC     ATOMS   COLORGROUP SYSTEM 
20 10 10 11 11 13 13 15 15 17 17 19 19 21 21 22 22 25 \
25 28 28 

