#    Name: 6qvj_3_GTP
#    Modification time : Fri May 22 19:38:19 2020

@<TRIPOS>MOLECULE
6qvj_3_GTP
   32    34     1     0     1
SMALL
NO_CHARGES


@<TRIPOS>ATOM
      1 PG        180.0660  277.7820  313.6060 P.3       1 GTP501      0.0000 
      2 O1G       181.4570  277.5550  314.0640 O.co2     1 GTP501      0.0000 
      3 O2G       179.5560  279.1760  313.8790 O.co2     1 GTP501      0.0000 
      4 O3G       179.0780  276.7580  314.1420 O.co2     1 GTP501      0.0000 
      5 O3B       180.0170  277.6470  312.0270 O.3       1 GTP501      0.0000 
      6 PB        181.2010  277.1930  311.0750 P.3       1 GTP501      0.0000 
      7 O1B       182.3900  278.0020  311.3310 O.co2     1 GTP501      0.0000 
      8 O2B       180.7400  277.3180  309.6490 O.co2     1 GTP501      0.0000 
      9 O3A       181.5110  275.6590  311.3480 O.3       1 GTP501      0.0000 
     10 PA        181.9960  274.5920  310.2740 P.3       1 GTP501      0.0000 
     11 O1A       183.4590  274.4600  310.3660 O.co2     1 GTP501      0.0000 
     12 O2A       181.6390  275.1510  308.9240 O.co2     1 GTP501      0.0000 
     13 O5'       181.1880  273.2450  310.4250 O.3       1 GTP501      0.0000 
     14 C5'       181.7720  272.0010  310.8530 C.3       1 GTP501      0.0000 
     15 C4'       182.2100  271.2170  309.6450 C.3       1 GTP501      0.0000 
     16 O4'       183.3470  271.8620  309.0270 O.3       1 GTP501      0.0000 
     17 C3'       182.6220  269.7700  309.9250 C.3       1 GTP501      0.0000 
     18 O3'       181.9740  268.8840  309.0210 O.3       1 GTP501      0.0000 
     19 C2'       184.1360  269.7850  309.7130 C.3       1 GTP501      0.0000 
     20 O2'       184.6030  268.5630  309.1620 O.3       1 GTP501      0.0000 
     21 C1'       184.2800  270.8730  308.6640 C.3       1 GTP501      0.0000 
     22 N9        185.6140  271.4720  308.6320 N.pl3     1 GTP501      0.0000 
     23 C8        186.1800  272.2890  309.5670 C.2       1 GTP501      0.0000 
     24 N7        187.4000  272.6530  309.2630 N.2       1 GTP501      0.0000 
     25 C5        187.6480  272.0380  308.0510 C.2       1 GTP501      0.0000 
     26 C6        188.7990  272.0450  307.2280 C.2       1 GTP501      0.0000 
     27 O6        189.8560  272.6210  307.4420 O.2       1 GTP501      0.0000 
     28 N1        188.6400  271.2740  306.1000 N.am      1 GTP501      0.0000 
     29 C2        187.5150  270.5700  305.7890 C.2       1 GTP501      0.0000 
     30 N2        187.5480  269.8370  304.6780 N.pl3     1 GTP501      0.0000 
     31 N3        186.4240  270.5640  306.5490 N.2       1 GTP501      0.0000 
     32 C4        186.5590  271.3090  307.6530 C.2       1 GTP501      0.0000 
@<TRIPOS>BOND
     1    1    2 ar   
     2    1    3 ar   
     3    1    4 ar   
     4    1    5 1    
     5    5    6 1    
     6    6    7 ar   
     7    6    8 ar   
     8    6    9 1    
     9    9   10 1    
    10   10   11 ar   
    11   10   12 ar   
    12   10   13 1    
    13   13   14 1    
    14   14   15 1    
    15   15   16 1    
    16   15   17 1    
    17   16   21 1    
    18   17   18 1    
    19   17   19 1    
    20   19   20 1    
    21   19   21 1    
    22   21   22 1    
    23   22   23 1    
    24   22   32 1    
    25   23   24 2    
    26   24   25 1    
    27   25   26 1    
    28   25   32 2    
    29   26   27 2    
    30   26   28 am   
    31   28   29 1    
    32   29   30 1    
    33   29   31 2    
    34   31   32 1    
@<TRIPOS>SUBSTRUCTURE
     1 GTP501      1 GROUP   
@<TRIPOS>SET
ATOM$ORANGE STATIC     ATOMS   COLORGROUP SYSTEM 
20 14 14 15 15 17 17 19 19 21 21 23 23 25 25 26 26 29 \
29 32 32 

