#    Name: 6qvj_2_TA1
#    Modification time : Fri May 22 19:38:11 2020

@<TRIPOS>MOLECULE
6qvj_2_TA1
   62    68     1     0     0
SMALL
NO_CHARGES


@<TRIPOS>ATOM
      1 O01       199.8840  314.0410  346.9490 O.3       1 TA1502      0.0000 
      2 C01       199.7090  313.8030  345.5460 C.3       1 TA1502      0.0000 
      3 C02       198.5440  312.5680  345.4250 C.3       1 TA1502      0.0000 
      4 O02       197.4070  313.0470  346.1860 O.3       1 TA1502      0.0000 
      5 C03       197.2230  312.6410  347.4490 C.2       1 TA1502      0.0000 
      6 O03       197.9200  311.8230  347.9870 O.2       1 TA1502      0.0000 
      7 C04       195.9890  313.2050  348.0570 C.ar      1 TA1502      0.0000 
      8 C05       194.9560  313.7920  347.3320 C.ar      1 TA1502      0.0000 
      9 C06       193.9180  314.4370  347.9840 C.ar      1 TA1502      0.0000 
     10 C07       193.9130  314.5340  349.3580 C.ar      1 TA1502      0.0000 
     11 C08       194.9420  313.9780  350.0860 C.ar      1 TA1502      0.0000 
     12 C09       195.9670  313.3030  349.4440 C.ar      1 TA1502      0.0000 
     13 C10       198.0500  312.0640  343.9860 C.3       1 TA1502      0.0000 
     14 C11       196.4150  312.0310  343.7510 C.3       1 TA1502      0.0000 
     15 O04       195.7860  313.3340  343.9810 O.3       1 TA1502      0.0000 
     16 C12       195.9610  314.4350  343.2170 C.2       1 TA1502      0.0000 
     17 O05       196.6860  314.4930  342.2680 O.2       1 TA1502      0.0000 
     18 C13       195.1100  315.5480  343.7310 C.3       1 TA1502      0.0000 
     19 C14       195.4980  311.1170  344.5440 C.3       1 TA1502      0.0000 
     20 O06       195.0790  310.4080  343.3740 O.3       1 TA1502      0.0000 
     21 C15       195.8660  311.2910  342.5240 C.3       1 TA1502      0.0000 
     22 C16       196.8390  310.5220  341.6570 C.3       1 TA1502      0.0000 
     23 C17       198.3150  310.8870  341.8160 C.3       1 TA1502      0.0000 
     24 O07       199.0980  310.0730  340.9400 O.3       1 TA1502      0.0000 
     25 C18       198.8270  310.8100  343.2850 C.3       1 TA1502      0.0000 
     26 C19       198.6240  309.4160  343.9060 C.3       1 TA1502      0.0000 
     27 C20       200.4290  310.8320  343.1570 C.2       1 TA1502      0.0000 
     28 O08       201.0590  309.8400  343.4530 O.2       1 TA1502      0.0000 
     29 C21       201.4030  312.0460  342.7360 C.3       1 TA1502      0.0000 
     30 O09       202.7620  311.5520  342.8710 O.3       1 TA1502      0.0000 
     31 C22       203.5290  311.3650  341.7770 C.2       1 TA1502      0.0000 
     32 O10       203.1200  311.4950  340.6600 O.2       1 TA1502      0.0000 
     33 C23       204.9190  310.9910  342.1600 C.3       1 TA1502      0.0000 
     34 C24       201.1780  313.3930  343.4520 C.2       1 TA1502      0.0000 
     35 C25       200.4550  314.3440  342.8170 C.2       1 TA1502      0.0000 
     36 C26       199.8650  315.5280  343.5880 C.3       1 TA1502      0.0000 
     37 O11       198.9650  316.4290  342.8850 O.3       1 TA1502      0.0000 
     38 C27       199.5150  317.5460  342.3860 C.2       1 TA1502      0.0000 
     39 O12       200.6800  317.8220  342.4580 O.2       1 TA1502      0.0000 
     40 C28       198.4840  318.4130  341.7280 C.3       1 TA1502      0.0000 
     41 O13       199.1070  319.5440  341.1490 O.3       1 TA1502      0.0000 
     42 C29       197.5240  318.8240  342.8050 C.3       1 TA1502      0.0000 
     43 N01       198.2940  319.4760  343.8480 N.am      1 TA1502      0.0000 
     44 C30       197.9170  319.3820  345.1270 C.2       1 TA1502      0.0000 
     45 O14       196.8500  318.8680  345.4490 O.2       1 TA1502      0.0000 
     46 C31       198.8610  319.9160  346.1550 C.ar      1 TA1502      0.0000 
     47 C32       199.2320  321.2550  346.1350 C.ar      1 TA1502      0.0000 
     48 C33       200.1090  321.7530  347.0820 C.ar      1 TA1502      0.0000 
     49 C34       200.6220  320.9260  348.0600 C.ar      1 TA1502      0.0000 
     50 C35       200.2610  319.5970  348.0900 C.ar      1 TA1502      0.0000 
     51 C36       199.3900  319.0890  347.1430 C.ar      1 TA1502      0.0000 
     52 C37       196.3780  319.6660  342.2870 C.ar      1 TA1502      0.0000 
     53 C38       195.1970  319.0720  341.8700 C.ar      1 TA1502      0.0000 
     54 C39       194.1670  319.8370  341.3540 C.ar      1 TA1502      0.0000 
     55 C40       194.3030  321.2010  341.2480 C.ar      1 TA1502      0.0000 
     56 C41       195.4670  321.8020  341.6600 C.ar      1 TA1502      0.0000 
     57 C42       196.4980  321.0430  342.1850 C.ar      1 TA1502      0.0000 
     58 C43       199.2100  315.1140  344.9130 C.3       1 TA1502      0.0000 
     59 C44       200.1760  314.3130  341.3440 C.3       1 TA1502      0.0000 
     60 C45       201.2450  313.3400  345.0360 C.3       1 TA1502      0.0000 
     61 C46       202.4420  314.1360  345.5870 C.3       1 TA1502      0.0000 
     62 C47       201.7510  312.2140  345.9470 C.3       1 TA1502      0.0000 
@<TRIPOS>BOND
     1    1    2 1    
     2    2    3 1    
     3    2   58 1    
     4    2   60 1    
     5    3    4 1    
     6    3   13 1    
     7    4    5 1    
     8    5    6 2    
     9    5    7 1    
    10    7    8 ar   
    11    7   12 ar   
    12    8    9 ar   
    13    9   10 ar   
    14   10   11 ar   
    15   11   12 ar   
    16   13   14 1    
    17   13   25 1    
    18   14   15 1    
    19   14   19 1    
    20   14   21 1    
    21   15   16 1    
    22   16   17 2    
    23   16   18 1    
    24   19   20 1    
    25   20   21 1    
    26   21   22 1    
    27   22   23 1    
    28   23   24 1    
    29   23   25 1    
    30   25   26 1    
    31   25   27 1    
    32   27   28 2    
    33   27   29 1    
    34   29   30 1    
    35   29   34 1    
    36   30   31 1    
    37   31   32 2    
    38   31   33 1    
    39   34   35 2    
    40   34   60 1    
    41   35   36 1    
    42   35   59 1    
    43   36   37 1    
    44   36   58 1    
    45   37   38 1    
    46   38   39 2    
    47   38   40 1    
    48   40   41 1    
    49   40   42 1    
    50   42   43 1    
    51   42   52 1    
    52   43   44 am   
    53   44   45 2    
    54   44   46 1    
    55   46   47 ar   
    56   46   51 ar   
    57   47   48 ar   
    58   48   49 ar   
    59   49   50 ar   
    60   50   51 ar   
    61   52   53 ar   
    62   52   57 ar   
    63   53   54 ar   
    64   54   55 ar   
    65   55   56 ar   
    66   56   57 ar   
    67   60   61 1    
    68   60   62 1    
@<TRIPOS>SUBSTRUCTURE
     1 TA1502      1 GROUP   
@<TRIPOS>SET

