#    Name: 6qvj_6_GTP
#    Modification time : Fri May 22 19:38:35 2020

@<TRIPOS>MOLECULE
6qvj_6_GTP
   32    34     1     0     1
SMALL
NO_CHARGES


@<TRIPOS>ATOM
      1 PG        182.5300  332.4380  322.9480 P.3       1 GTP501      0.0000 
      2 O1G       183.7740  331.6500  323.0540 O.co2     1 GTP501      0.0000 
      3 O2G       182.6480  333.8300  323.5350 O.co2     1 GTP501      0.0000 
      4 O3G       181.2990  331.7510  323.5240 O.co2     1 GTP501      0.0000 
      5 O3B       182.2050  332.6630  321.4110 O.3       1 GTP501      0.0000 
      6 PB        182.7000  331.8480  320.1430 P.3       1 GTP501      0.0000 
      7 O1B       184.1210  332.1080  319.8970 O.co2     1 GTP501      0.0000 
      8 O2B       181.8660  332.2800  318.9760 O.co2     1 GTP501      0.0000 
      9 O3A       182.4850  330.2850  320.3150 O.3       1 GTP501      0.0000 
     10 PA        183.0820  329.1360  319.3920 P.3       1 GTP501      0.0000 
     11 O1A       184.1350  328.4180  320.1240 O.co2     1 GTP501      0.0000 
     12 O2A       183.7110  329.8190  318.1990 O.co2     1 GTP501      0.0000 
     13 O5'       181.9150  328.2070  318.8610 O.3       1 GTP501      0.0000 
     14 C5'       181.6290  326.9240  319.4480 C.3       1 GTP501      0.0000 
     15 C4'       181.6310  325.8560  318.3830 C.3       1 GTP501      0.0000 
     16 O4'       182.9000  325.8500  317.6900 O.3       1 GTP501      0.0000 
     17 C3'       181.4170  324.4330  318.9050 C.3       1 GTP501      0.0000 
     18 O3'       180.4040  323.7590  318.1730 O.3       1 GTP501      0.0000 
     19 C2'       182.7850  323.7760  318.7170 C.3       1 GTP501      0.0000 
     20 O2'       182.6690  322.3910  318.4270 O.3       1 GTP501      0.0000 
     21 C1'       183.3040  324.5140  317.5010 C.3       1 GTP501      0.0000 
     22 N9        184.7640  324.4750  317.3920 N.pl3     1 GTP501      0.0000 
     23 C8        185.6650  325.0140  318.2620 C.2       1 GTP501      0.0000 
     24 N7        186.9090  324.7860  317.9210 N.2       1 GTP501      0.0000 
     25 C5        186.8120  324.0560  316.7510 C.2       1 GTP501      0.0000 
     26 C6        187.8120  323.5320  315.9090 C.2       1 GTP501      0.0000 
     27 O6        189.0250  323.6090  316.0670 O.2       1 GTP501      0.0000 
     28 N1        187.2920  322.8670  314.8230 N.am      1 GTP501      0.0000 
     29 C2        185.9610  322.7160  314.5680 C.2       1 GTP501      0.0000 
     30 N2        185.6280  322.0420  313.4720 N.pl3     1 GTP501      0.0000 
     31 N3        185.0090  323.2080  315.3550 N.2       1 GTP501      0.0000 
     32 C4        185.5020  323.8590  316.4170 C.2       1 GTP501      0.0000 
@<TRIPOS>BOND
     1    1    2 ar   
     2    1    3 ar   
     3    1    4 ar   
     4    1    5 1    
     5    5    6 1    
     6    6    7 ar   
     7    6    8 ar   
     8    6    9 1    
     9    9   10 1    
    10   10   11 ar   
    11   10   12 ar   
    12   10   13 1    
    13   13   14 1    
    14   14   15 1    
    15   15   16 1    
    16   15   17 1    
    17   16   21 1    
    18   17   18 1    
    19   17   19 1    
    20   19   20 1    
    21   19   21 1    
    22   21   22 1    
    23   22   23 1    
    24   22   32 1    
    25   23   24 2    
    26   24   25 1    
    27   25   26 1    
    28   25   32 2    
    29   26   27 2    
    30   26   28 am   
    31   28   29 1    
    32   29   30 1    
    33   29   31 2    
    34   31   32 1    
@<TRIPOS>SUBSTRUCTURE
     1 GTP501      1 GROUP   
@<TRIPOS>SET
ATOM$ORANGE STATIC     ATOMS   COLORGROUP SYSTEM 
20 14 14 15 15 17 17 19 19 21 21 23 23 25 25 26 26 29 \
29 32 32 

