#    Name: 6qvj_1_TA1
#    Modification time : Fri May 22 19:38:07 2020

@<TRIPOS>MOLECULE
6qvj_1_TA1
   62    68     1     0     0
SMALL
NO_CHARGES


@<TRIPOS>ATOM
      1 O01       203.8460  269.0180  338.1910 O.3       1 TA1502      0.0000 
      2 C01       203.7920  268.7290  336.7870 C.3       1 TA1502      0.0000 
      3 C02       203.2780  267.1100  336.6650 C.3       1 TA1502      0.0000 
      4 O02       202.0440  267.0490  337.4260 O.3       1 TA1502      0.0000 
      5 C03       202.0530  266.6020  338.6890 C.2       1 TA1502      0.0000 
      6 O03       203.0370  266.1670  339.2270 O.2       1 TA1502      0.0000 
      7 C04       200.6980  266.5760  339.2980 C.ar      1 TA1502      0.0000 
      8 C05       199.5130  266.6580  338.5700 C.ar      1 TA1502      0.0000 
      9 C06       198.2980  266.7900  339.2210 C.ar      1 TA1502      0.0000 
     10 C07       198.2510  266.8750  340.5950 C.ar      1 TA1502      0.0000 
     11 C08       199.4180  266.8190  341.3250 C.ar      1 TA1502      0.0000 
     12 C09       200.6340  266.6550  340.6850 C.ar      1 TA1502      0.0000 
     13 C10       203.0520  266.4450  335.2260 C.3       1 TA1502      0.0000 
     14 C11       201.5940  265.7030  334.9920 C.3       1 TA1502      0.0000 
     15 O04       200.4620  266.6050  335.2210 O.3       1 TA1502      0.0000 
     16 C12       200.1420  267.6740  334.4560 C.2       1 TA1502      0.0000 
     17 O05       200.7710  268.0400  333.5080 O.2       1 TA1502      0.0000 
     18 C13       198.8950  268.3080  334.9710 C.3       1 TA1502      0.0000 
     19 C14       201.1640  264.4810  335.7830 C.3       1 TA1502      0.0000 
     20 O06       201.0950  263.6620  334.6130 O.3       1 TA1502      0.0000 
     21 C15       201.4210  264.8000  333.7620 C.3       1 TA1502      0.0000 
     22 C16       202.6320  264.5290  332.8960 C.3       1 TA1502      0.0000 
     23 C17       203.8040  265.4990  333.0560 C.3       1 TA1502      0.0000 
     24 O07       204.8640  265.1040  332.1820 O.3       1 TA1502      0.0000 
     25 C18       204.2970  265.6500  334.5260 C.3       1 TA1502      0.0000 
     26 C19       204.7190  264.3070  335.1480 C.3       1 TA1502      0.0000 
     27 C20       205.7310  266.3650  334.3990 C.2       1 TA1502      0.0000 
     28 O08       206.7290  265.7450  334.6960 O.2       1 TA1502      0.0000 
     29 C21       206.0850  267.8810  333.9800 C.3       1 TA1502      0.0000 
     30 O09       207.5230  268.0250  334.1160 O.3       1 TA1502      0.0000 
     31 C22       208.2950  268.1890  333.0230 C.2       1 TA1502      0.0000 
     32 O10       207.8700  268.1290  331.9060 O.2       1 TA1502      0.0000 
     33 C23       209.7100  268.4550  333.4070 C.3       1 TA1502      0.0000 
     34 C24       205.2960  268.9970  334.6970 C.2       1 TA1502      0.0000 
     35 C25       204.2330  269.5400  334.0600 C.2       1 TA1502      0.0000 
     36 C26       203.1860  270.3510  334.8300 C.3       1 TA1502      0.0000 
     37 O11       201.9850  270.7740  334.1250 O.3       1 TA1502      0.0000 
     38 C27       201.9960  272.0190  333.6270 C.2       1 TA1502      0.0000 
     39 O12       202.9260  272.7720  333.7000 O.2       1 TA1502      0.0000 
     40 C28       200.6910  272.3540  332.9680 C.3       1 TA1502      0.0000 
     41 O13       200.7640  273.6420  332.3900 O.3       1 TA1502      0.0000 
     42 C29       199.6490  272.3070  334.0430 C.3       1 TA1502      0.0000 
     43 N01       200.0610  273.2270  335.0890 N.am      1 TA1502      0.0000 
     44 C30       199.7590  272.9790  336.3670 C.2       1 TA1502      0.0000 
     45 O14       199.0210  272.0540  336.6880 O.2       1 TA1502      0.0000 
     46 C31       200.3780  273.8700  337.3970 C.ar      1 TA1502      0.0000 
     47 C32       200.1310  275.2370  337.3780 C.ar      1 TA1502      0.0000 
     48 C33       200.7050  276.0660  338.3250 C.ar      1 TA1502      0.0000 
     49 C34       201.5260  275.5430  339.3020 C.ar      1 TA1502      0.0000 
     50 C35       201.7770  274.1890  339.3320 C.ar      1 TA1502      0.0000 
     51 C36       201.2140  273.3540  338.3840 C.ar      1 TA1502      0.0000 
     52 C37       198.2500  272.5680  333.5280 C.ar      1 TA1502      0.0000 
     53 C38       197.4430  271.5210  333.1090 C.ar      1 TA1502      0.0000 
     54 C39       196.1850  271.7650  332.5890 C.ar      1 TA1502      0.0000 
     55 C40       195.7170  273.0520  332.4850 C.ar      1 TA1502      0.0000 
     56 C41       196.5050  274.0990  332.9000 C.ar      1 TA1502      0.0000 
     57 C42       197.7620  273.8610  333.4270 C.ar      1 TA1502      0.0000 
     58 C43       202.7760  269.6940  336.1550 C.3       1 TA1502      0.0000 
     59 C44       203.9960  269.3920  332.5880 C.3       1 TA1502      0.0000 
     60 C45       205.3780  268.9790  336.2800 C.3       1 TA1502      0.0000 
     61 C46       206.1120  270.2150  336.8310 C.3       1 TA1502      0.0000 
     62 C47       206.3200  268.1830  337.1900 C.3       1 TA1502      0.0000 
@<TRIPOS>BOND
     1    1    2 1    
     2    2    3 1    
     3    2   58 1    
     4    2   60 1    
     5    3    4 1    
     6    3   13 1    
     7    4    5 1    
     8    5    6 2    
     9    5    7 1    
    10    7    8 ar   
    11    7   12 ar   
    12    8    9 ar   
    13    9   10 ar   
    14   10   11 ar   
    15   11   12 ar   
    16   13   14 1    
    17   13   25 1    
    18   14   15 1    
    19   14   19 1    
    20   14   21 1    
    21   15   16 1    
    22   16   17 2    
    23   16   18 1    
    24   19   20 1    
    25   20   21 1    
    26   21   22 1    
    27   22   23 1    
    28   23   24 1    
    29   23   25 1    
    30   25   26 1    
    31   25   27 1    
    32   27   28 2    
    33   27   29 1    
    34   29   30 1    
    35   29   34 1    
    36   30   31 1    
    37   31   32 2    
    38   31   33 1    
    39   34   35 2    
    40   34   60 1    
    41   35   36 1    
    42   35   59 1    
    43   36   37 1    
    44   36   58 1    
    45   37   38 1    
    46   38   39 2    
    47   38   40 1    
    48   40   41 1    
    49   40   42 1    
    50   42   43 1    
    51   42   52 1    
    52   43   44 am   
    53   44   45 2    
    54   44   46 1    
    55   46   47 ar   
    56   46   51 ar   
    57   47   48 ar   
    58   48   49 ar   
    59   49   50 ar   
    60   50   51 ar   
    61   52   53 ar   
    62   52   57 ar   
    63   53   54 ar   
    64   54   55 ar   
    65   55   56 ar   
    66   56   57 ar   
    67   60   61 1    
    68   60   62 1    
@<TRIPOS>SUBSTRUCTURE
     1 TA1502      1 GROUP   
@<TRIPOS>SET

