#    Name: 6qvj_5_GDP_CAVITY_N1_6
#    Modification time : Fri May 22 19:38:28 2020

@<TRIPOS>MOLECULE
6qvj_5_GDP_CAVITY_N1_6
  114     0     6     0     0
SMALL
NO_CHARGES


@<TRIPOS>ATOM
      1 OG        181.5200  325.3100  357.4400 O.3       1 SER1        0.0000 
      2 OG        183.0800  323.4700  359.7700 O.3       1 SER1        0.0000 
      3 OG        184.5600  323.2700  359.5900 O.3       1 SER1        0.0000 
      4 OG        178.9200  325.3100  361.1200 O.3       1 SER1        0.0000 
      5 OG        180.4000  325.1100  360.9400 O.3       1 SER1        0.0000 
      6 OG        180.4400  324.2900  362.1900 O.3       1 SER1        0.0000 
      7 OG        181.7800  326.5500  358.2400 O.3       1 SER1        0.0000 
      8 OG        184.8200  324.5100  360.3900 O.3       1 SER1        0.0000 
      9 OG        184.8700  323.6900  361.6500 O.3       1 SER1        0.0000 
     10 OG        180.6600  326.3500  361.7400 O.3       1 SER1        0.0000 
     11 OG        180.7100  325.5300  362.9900 O.3       1 SER1        0.0000 
     12 OG        182.0500  327.7900  359.0400 O.3       1 SER1        0.0000 
     13 OG        180.9700  326.7700  363.7900 O.3       1 SER1        0.0000 
     14 OG        183.1200  332.7500  362.2400 O.3       1 SER1        0.0000 
     15 OG        183.1600  331.9300  363.5000 O.3       1 SER1        0.0000 
     16 OG        183.4300  333.1700  364.3000 O.3       1 SER1        0.0000 
     17 O         179.8200  323.4500  358.0800 O.2       2 ALA2        0.0000 
     18 O         179.8600  322.6300  359.3400 O.2       2 ALA2        0.0000 
     19 O         181.3400  322.4300  359.1500 O.2       2 ALA2        0.0000 
     20 O         182.8100  322.2300  358.9700 O.2       2 ALA2        0.0000 
     21 N         184.2000  323.6700  356.2800 N.am      2 ALA2        0.0000 
     22 O         184.2500  322.8500  357.5300 O.2       2 ALA2        0.0000 
     23 N         185.6800  323.4700  356.1000 N.am      2 ALA2        0.0000 
     24 O         181.5600  324.4900  358.7000 O.2       2 ALA2        0.0000 
     25 N         182.9900  325.1100  357.2600 N.am      2 ALA2        0.0000 
     26 O         183.0400  324.2900  358.5200 O.2       2 ALA2        0.0000 
     27 N         184.5100  324.0900  358.3300 N.am      2 ALA2        0.0000 
     28 N         185.9400  324.7100  356.9000 N.am      2 ALA2        0.0000 
     29 N         187.4200  324.5100  356.7200 N.am      2 ALA2        0.0000 
     30 O         180.3500  325.9300  359.6800 O.2       2 ALA2        0.0000 
     31 N         187.7300  324.9300  358.7700 N.am      2 ALA2        0.0000 
     32 N         189.2500  323.9100  359.8400 N.am      2 ALA2        0.0000 
     33 O         180.5800  327.9900  359.2200 O.2       2 ALA2        0.0000 
     34 O         180.6200  327.1700  360.4800 O.2       2 ALA2        0.0000 
     35 N         188.0000  326.1700  359.5700 N.am      2 ALA2        0.0000 
     36 N         188.0400  325.3500  360.8300 N.am      2 ALA2        0.0000 
     37 O         183.7900  328.8300  359.6600 O.2       2 ALA2        0.0000 
     38 N         183.8800  327.1900  362.1700 N.am      2 ALA2        0.0000 
     39 N         185.3600  326.9900  361.9900 N.am      2 ALA2        0.0000 
     40 O         186.8300  326.7900  361.8100 O.2       2 ALA2        0.0000 
     41 O         181.2000  328.8300  363.3400 O.2       2 ALA2        0.0000 
     42 O         184.0600  330.0700  360.4600 O.2       2 ALA2        0.0000 
     43 N         184.1500  328.4300  362.9700 N.am      2 ALA2        0.0000 
     44 O         181.4200  330.8900  362.8800 O.2       2 ALA2        0.0000 
     45 O         182.8500  331.5100  361.4400 O.2       2 ALA2        0.0000 
     46 O         184.3300  331.3100  361.2600 O.2       2 ALA2        0.0000 
     47 O         184.5900  332.5500  362.0600 O.2       2 ALA2        0.0000 
     48 N         184.6400  331.7300  363.3200 N.am      2 ALA2        0.0000 
     49 N         184.6800  330.9100  364.5700 N.am      2 ALA2        0.0000 
     50 O         183.4700  332.3500  365.5500 O.2       2 ALA2        0.0000 
     51 NZ        178.3400  323.6500  358.2600 N.4       3 LYS4        0.0000 
     52 NZ        178.3900  322.8300  359.5200 N.4       3 LYS4        0.0000 
     53 NZ        178.6100  324.8900  359.0600 N.4       3 LYS4        0.0000 
     54 NZ        178.6500  324.0700  360.3200 N.4       3 LYS4        0.0000 
     55 NZ        180.1300  323.8700  360.1400 N.4       3 LYS4        0.0000 
     56 NZ        181.6100  323.6700  359.9500 N.4       3 LYS4        0.0000 
     57 NZ        183.1200  322.6500  361.0300 N.4       3 LYS4        0.0000 
     58 NZ        181.9200  324.0900  362.0100 N.4       3 LYS4        0.0000 
     59 NZ        183.3900  323.8900  361.8300 N.4       3 LYS4        0.0000 
     60 NZ        182.2300  324.5100  364.0700 N.4       3 LYS4        0.0000 
     61 NZ        184.9500  332.1500  365.3700 N.4       3 LYS4        0.0000 
     62 CZ        185.7200  322.6500  357.3500 C.ar      4 PHE5        0.0000 
     63 CZ        185.9900  323.8900  358.1500 C.ar      4 PHE5        0.0000 
     64 CZ        187.4600  323.6900  357.9700 C.ar      4 PHE5        0.0000 
     65 CZ        186.3000  324.3100  360.2100 C.ar      4 PHE5        0.0000 
     66 CZ        186.3400  323.4900  361.4600 C.ar      4 PHE5        0.0000 
     67 CZ        187.7700  324.1100  360.0300 C.ar      4 PHE5        0.0000 
     68 CZ        187.8200  323.2900  361.2800 C.ar      4 PHE5        0.0000 
     69 CZ        189.2900  323.0900  361.1000 C.ar      4 PHE5        0.0000 
     70 CA        180.0400  325.5100  357.6200 C.3       5 GLY6        0.0000 
     71 CA        180.1700  323.0500  361.3900 C.3       5 GLY6        0.0000 
     72 CA        178.8800  326.1300  359.8600 C.3       5 GLY6        0.0000 
     73 CA        180.3100  326.7500  358.4200 C.3       5 GLY6        0.0000 
     74 CA        183.2600  326.3500  358.0600 C.3       5 GLY6        0.0000 
     75 CA        183.3000  325.5300  359.3200 C.3       5 GLY6        0.0000 
     76 CA        184.7800  325.3300  359.1300 C.3       5 GLY6        0.0000 
     77 CA        186.2100  325.9500  357.7000 C.3       5 GLY6        0.0000 
     78 CA        186.2500  325.1300  358.9500 C.3       5 GLY6        0.0000 
     79 CA        187.6900  325.7500  357.5200 C.3       5 GLY6        0.0000 
     80 CA        183.5700  326.7700  360.1200 C.3       5 GLY6        0.0000 
     81 CA        185.0500  326.5700  359.9300 C.3       5 GLY6        0.0000 
     82 CA        186.5200  326.3700  359.7500 C.3       5 GLY6        0.0000 
     83 CA        180.8900  328.4100  361.2800 C.3       5 GLY6        0.0000 
     84 CA        180.9300  327.5900  362.5400 C.3       5 GLY6        0.0000 
     85 CA        182.2800  329.8500  358.5900 C.3       5 GLY6        0.0000 
     86 CA        182.3200  329.0300  359.8400 C.3       5 GLY6        0.0000 
     87 CA        182.3600  328.2100  361.1000 C.3       5 GLY6        0.0000 
     88 CA        183.8400  328.0100  360.9200 C.3       5 GLY6        0.0000 
     89 CA        185.3100  327.8100  360.7300 C.3       5 GLY6        0.0000 
     90 CA        182.5900  330.2700  360.6400 C.3       5 GLY6        0.0000 
     91 CA        182.6300  329.4500  361.9000 C.3       5 GLY6        0.0000 
     92 CA        184.1000  329.2500  361.7200 C.3       5 GLY6        0.0000 
     93 CA        181.4600  330.0700  364.1400 C.3       5 GLY6        0.0000 
     94 CA        184.3700  330.4900  362.5200 C.3       5 GLY6        0.0000 
     95 CA        181.6900  332.1300  363.6800 C.3       5 GLY6        0.0000 
     96 CA        181.7300  331.3100  364.9400 C.3       5 GLY6        0.0000 
     97 CA        183.2100  331.1100  364.7500 C.3       5 GLY6        0.0000 
     98 DU        180.0900  324.6900  358.8800 H         6 CUB7        0.0000 
     99 DU        181.8300  325.7300  359.5000 H         6 CUB7        0.0000 
    100 DU        181.8700  324.9100  360.7500 H         6 CUB7        0.0000 
    101 DU        183.3500  324.7100  360.5700 H         6 CUB7        0.0000 
    102 DU        182.1000  326.9700  360.3000 H         6 CUB7        0.0000 
    103 DU        182.1400  326.1500  361.5500 H         6 CUB7        0.0000 
    104 DU        182.1800  325.3300  362.8100 H         6 CUB7        0.0000 
    105 DU        183.6600  325.1300  362.6300 H         6 CUB7        0.0000 
    106 DU        185.0900  325.7500  361.1900 H         6 CUB7        0.0000 
    107 DU        185.1300  324.9300  362.4500 H         6 CUB7        0.0000 
    108 DU        186.5700  325.5500  361.0100 H         6 CUB7        0.0000 
    109 DU        186.6100  324.7300  362.2600 H         6 CUB7        0.0000 
    110 DU        182.4100  327.3900  362.3500 H         6 CUB7        0.0000 
    111 DU        182.4500  326.5700  363.6100 H         6 CUB7        0.0000 
    112 DU        182.6700  328.6300  363.1500 H         6 CUB7        0.0000 
    113 DU        182.9000  330.6900  362.7000 H         6 CUB7        0.0000 
    114 DU        182.9400  329.8700  363.9500 H         6 CUB7        0.0000 
@<TRIPOS>BOND
@<TRIPOS>SUBSTRUCTURE
     1 SER1        1 GROUP   
     2 ALA2       17 GROUP   
     3 LYS4       51 GROUP   
     4 PHE5       62 GROUP   
     5 GLY6       70 GROUP   
     6 CUB7       98 GROUP   
@<TRIPOS>SET

