#    Name: 6qvj_4_GDP_CAVITY_N1_12
#    Modification time : Fri May 22 19:38:24 2020

@<TRIPOS>MOLECULE
6qvj_4_GDP_CAVITY_N1_12
  146     0     6     0     0
SMALL
NO_CHARGES


@<TRIPOS>ATOM
      1 OG        181.8100  265.9500  350.9500 O.3       1 SER1        0.0000 
      2 OG        186.2800  264.5300  351.6600 O.3       1 SER1        0.0000 
      3 OG        187.8000  263.5100  352.7300 O.3       1 SER1        0.0000 
      4 OG        186.5500  265.7700  352.4600 O.3       1 SER1        0.0000 
      5 OG        188.0700  264.7500  353.5300 O.3       1 SER1        0.0000 
      6 OG        180.7400  271.0800  348.9700 O.3       1 SER1        0.0000 
      7 OG        182.2200  270.8800  348.7800 O.3       1 SER1        0.0000 
      8 OG        185.2600  268.8500  350.9300 O.3       1 SER1        0.0000 
      9 OG        186.8200  267.0100  353.2600 O.3       1 SER1        0.0000 
     10 OG        179.6200  270.8900  352.4600 O.3       1 SER1        0.0000 
     11 OG        181.0100  272.3300  349.7700 O.3       1 SER1        0.0000 
     12 OG        181.1000  270.6900  352.2800 O.3       1 SER1        0.0000 
     13 OG        181.1400  269.8700  353.5300 O.3       1 SER1        0.0000 
     14 OG        182.4800  272.1300  349.5800 O.3       1 SER1        0.0000 
     15 OG        185.4800  270.9100  350.4800 O.3       1 SER1        0.0000 
     16 OG        185.5200  270.0900  351.7300 O.3       1 SER1        0.0000 
     17 OG        179.8900  272.1300  353.2600 O.3       1 SER1        0.0000 
     18 OG        181.2800  273.5700  350.5700 O.3       1 SER1        0.0000 
     19 OG        181.3600  271.9300  353.0800 O.3       1 SER1        0.0000 
     20 OG        181.4100  271.1100  354.3300 O.3       1 SER1        0.0000 
     21 OG        182.7500  273.3700  350.3800 O.3       1 SER1        0.0000 
     22 OG        185.7900  271.3300  352.5300 O.3       1 SER1        0.0000 
     23 OG        187.2600  271.1300  352.3500 O.3       1 SER1        0.0000 
     24 OG        180.2000  272.5500  355.3200 O.3       1 SER1        0.0000 
     25 OG        181.5000  275.6300  350.1100 O.3       1 SER1        0.0000 
     26 OG        181.6700  272.3500  355.1300 O.3       1 SER1        0.0000 
     27 OG        181.7200  271.5300  356.3900 O.3       1 SER1        0.0000 
     28 OG        180.8700  278.7300  353.9500 O.3       1 SER1        0.0000 
     29 OG        181.1400  279.9700  354.7500 O.3       1 SER1        0.0000 
     30 O         181.7700  266.7700  349.7000 O.2       2 ALA2        0.0000 
     31 O         183.2900  265.7500  350.7700 O.2       2 ALA2        0.0000 
     32 O         184.7700  265.5500  350.5900 O.2       2 ALA2        0.0000 
     33 N         180.4800  269.8400  348.1700 N.am      2 ALA2        0.0000 
     34 O         181.9900  268.8200  349.2400 O.2       2 ALA2        0.0000 
     35 O         182.0400  268.0100  350.5000 O.2       2 ALA2        0.0000 
     36 O         185.0300  266.7900  351.3900 O.2       2 ALA2        0.0000 
     37 O         182.2600  270.0700  350.0400 O.2       2 ALA2        0.0000 
     38 O         183.6900  270.6800  348.6000 O.2       2 ALA2        0.0000 
     39 O         183.7400  269.8700  349.8600 O.2       2 ALA2        0.0000 
     40 O         183.7800  269.0500  351.1100 O.2       2 ALA2        0.0000 
     41 N         185.1200  271.3000  347.1600 N.am      2 ALA2        0.0000 
     42 O         185.1700  270.4800  348.4200 O.2       2 ALA2        0.0000 
     43 O         185.2100  269.6600  349.6800 O.2       2 ALA2        0.0000 
     44 O         179.5800  271.7100  351.2000 O.2       2 ALA2        0.0000 
     45 N         183.9600  271.9200  349.4000 N.am      2 ALA2        0.0000 
     46 N         185.4400  271.7200  349.2200 N.am      2 ALA2        0.0000 
     47 N         186.8700  272.3400  347.7800 N.am      2 ALA2        0.0000 
     48 O         181.3200  272.7500  351.8200 O.2       2 ALA2        0.0000 
     49 N         187.1300  273.5800  348.5800 N.am      2 ALA2        0.0000 
     50 O         183.0200  274.6100  351.1800 O.2       2 ALA2        0.0000 
     51 O         184.4900  274.4100  351.0000 O.2       2 ALA2        0.0000 
     52 N         188.9600  272.9900  351.7100 N.am      2 ALA2        0.0000 
     53 O         180.4200  274.6100  354.8600 O.2       2 ALA2        0.0000 
     54 O         181.7700  276.8700  350.9100 O.2       2 ALA2        0.0000 
     55 O         181.9400  273.5900  355.9300 O.2       2 ALA2        0.0000 
     56 N         183.3300  275.0300  353.2400 N.am      2 ALA2        0.0000 
     57 N         183.3700  274.2100  354.5000 N.am      2 ALA2        0.0000 
     58 N         184.8000  274.8300  353.0600 N.am      2 ALA2        0.0000 
     59 N         184.8500  274.0100  354.3100 N.am      2 ALA2        0.0000 
     60 N         186.2800  274.6300  352.8800 N.am      2 ALA2        0.0000 
     61 O         187.7600  274.4300  352.6900 O.2       2 ALA2        0.0000 
     62 N         189.2300  274.2300  352.5100 N.am      2 ALA2        0.0000 
     63 O         179.1700  276.8700  354.5900 O.2       2 ALA2        0.0000 
     64 O         180.6000  277.4900  353.1500 O.2       2 ALA2        0.0000 
     65 O         180.6400  276.6700  354.4000 O.2       2 ALA2        0.0000 
     66 N         182.1200  276.4700  354.2200 N.am      2 ALA2        0.0000 
     67 N         182.1600  275.6500  355.4800 N.am      2 ALA2        0.0000 
     68 O         179.4400  278.1100  355.3900 O.2       2 ALA2        0.0000 
     69 N         182.3900  277.7100  355.0200 N.am      2 ALA2        0.0000 
     70 O         179.7000  279.3500  356.1900 O.2       2 ALA2        0.0000 
     71 O         181.2200  278.3300  357.2600 O.2       2 ALA2        0.0000 
     72 NZ        179.0400  269.2300  349.6000 N.4       3 LYS4        0.0000 
     73 NZ        180.5200  269.0300  349.4200 N.4       3 LYS4        0.0000 
     74 NZ        180.5600  268.2100  350.6800 N.4       3 LYS4        0.0000 
     75 NZ        180.6100  267.3900  351.9300 N.4       3 LYS4        0.0000 
     76 NZ        185.0800  265.9700  352.6400 N.4       3 LYS4        0.0000 
     77 NZ        185.1200  265.1500  353.9000 N.4       3 LYS4        0.0000 
     78 NZ        180.8300  269.4500  351.4800 N.4       3 LYS4        0.0000 
     79 NZ        182.5700  270.4900  352.1000 N.4       3 LYS4        0.0000 
     80 NZ        182.6200  269.6700  353.3500 N.4       3 LYS4        0.0000 
     81 NZ        184.0500  270.2900  351.9100 N.4       3 LYS4        0.0000 
     82 NZ        182.8800  270.9100  354.1500 N.4       3 LYS4        0.0000 
     83 NZ        182.9300  270.0900  355.4100 N.4       3 LYS4        0.0000 
     84 NZ        184.3100  271.5300  352.7100 N.4       3 LYS4        0.0000 
     85 NZ        181.1800  279.1500  356.0000 N.4       3 LYS4        0.0000 
     86 NZ        182.6100  279.7700  354.5700 N.4       3 LYS4        0.0000 
     87 NZ        182.6500  278.9500  355.8200 N.4       3 LYS4        0.0000 
     88 NZ        181.4900  279.5700  358.0600 N.4       3 LYS4        0.0000 
     89 CZ        186.6400  270.2800  348.2400 C.ar      4 PHE5        0.0000 
     90 CZ        186.9100  271.5200  349.0400 C.ar      4 PHE5        0.0000 
     91 CZ        186.9500  270.7100  350.2900 C.ar      4 PHE5        0.0000 
     92 CZ        187.2200  271.9500  351.0900 C.ar      4 PHE5        0.0000 
     93 CZ        188.6500  272.5600  349.6600 C.ar      4 PHE5        0.0000 
     94 CZ        187.5300  272.3700  353.1500 C.ar      4 PHE5        0.0000 
     95 CZ        189.0100  272.1700  352.9700 C.ar      4 PHE5        0.0000 
     96 CA        186.0200  263.2900  350.8600 C.3       5 GLY6        0.0000 
     97 CA        180.2500  267.7800  348.6200 C.3       5 GLY6        0.0000 
     98 CA        180.3000  266.9700  349.8800 C.3       5 GLY6        0.0000 
     99 CA        183.3300  264.9300  352.0200 C.3       5 GLY6        0.0000 
    100 CA        184.8100  264.7300  351.8400 C.3       5 GLY6        0.0000 
    101 CA        184.8500  263.9100  353.1000 C.3       5 GLY6        0.0000 
    102 CA        186.3300  263.7100  352.9200 C.3       5 GLY6        0.0000 
    103 CA        182.0800  267.1900  351.7500 C.3       5 GLY6        0.0000 
    104 CA        183.5600  266.9900  351.5700 C.3       5 GLY6        0.0000 
    105 CA        185.1600  264.3300  355.1500 C.3       5 GLY6        0.0000 
    106 CA        179.3100  270.4700  350.4000 C.3       5 GLY6        0.0000 
    107 CA        180.8700  268.6300  352.7300 C.3       5 GLY6        0.0000 
    108 CA        182.3000  269.2500  351.3000 C.3       5 GLY6        0.0000 
    109 CA        184.2300  273.1700  350.2000 C.3       5 GLY6        0.0000 
    110 CA        185.7000  272.9700  350.0200 C.3       5 GLY6        0.0000 
    111 CA        180.1500  273.3700  354.0600 C.3       5 GLY6        0.0000 
    112 CA        181.5400  274.8100  351.3700 C.3       5 GLY6        0.0000 
    113 CA        181.5900  273.9900  352.6200 C.3       5 GLY6        0.0000 
    114 CA        182.9700  275.4300  349.9300 C.3       5 GLY6        0.0000 
    115 CA        185.9700  274.2100  350.8200 C.3       5 GLY6        0.0000 
    116 CA        180.3300  276.2500  352.3500 C.3       5 GLY6        0.0000 
    117 CA        180.3800  275.4300  353.6000 C.3       5 GLY6        0.0000 
    118 CA        181.8100  276.0500  352.1700 C.3       5 GLY6        0.0000 
    119 CA        183.2900  275.8500  351.9800 C.3       5 GLY6        0.0000 
    120 CA        184.7600  275.6500  351.8000 C.3       5 GLY6        0.0000 
    121 CA        180.6900  275.8500  355.6600 C.3       5 GLY6        0.0000 
    122 CA        182.0800  277.2900  352.9700 C.3       5 GLY6        0.0000 
    123 CA        180.9600  277.0900  356.4600 C.3       5 GLY6        0.0000 
    124 CA        182.3400  278.5300  353.7700 C.3       5 GLY6        0.0000 
    125 DU        186.6000  264.9500  353.7200 H         6 CUB7        0.0000 
    126 DU        180.7900  270.2700  350.2200 H         6 CUB7        0.0000 
    127 DU        181.0500  271.5100  351.0200 H         6 CUB7        0.0000 
    128 DU        182.5300  271.3100  350.8400 H         6 CUB7        0.0000 
    129 DU        184.0000  271.1100  350.6600 H         6 CUB7        0.0000 
    130 DU        182.7900  272.5500  351.6400 H         6 CUB7        0.0000 
    131 DU        182.8400  271.7300  352.9000 H         6 CUB7        0.0000 
    132 DU        184.2700  272.3500  351.4600 H         6 CUB7        0.0000 
    133 DU        185.7500  272.1500  351.2800 H         6 CUB7        0.0000 
    134 DU        187.1800  272.7600  349.8400 H         6 CUB7        0.0000 
    135 DU        181.6300  273.1700  353.8800 H         6 CUB7        0.0000 
    136 DU        183.0600  273.7900  352.4400 H         6 CUB7        0.0000 
    137 DU        183.1100  272.9700  353.7000 H         6 CUB7        0.0000 
    138 DU        183.1500  272.1500  354.9500 H         6 CUB7        0.0000 
    139 DU        184.5400  273.5900  352.2600 H         6 CUB7        0.0000 
    140 DU        184.5800  272.7700  353.5100 H         6 CUB7        0.0000 
    141 DU        186.0100  273.3900  352.0800 H         6 CUB7        0.0000 
    142 DU        186.0600  272.5700  353.3300 H         6 CUB7        0.0000 
    143 DU        187.4900  273.1900  351.8900 H         6 CUB7        0.0000 
    144 DU        181.8500  275.2300  353.4200 H         6 CUB7        0.0000 
    145 DU        181.9000  274.4100  354.6800 H         6 CUB7        0.0000 
    146 DU        180.9100  277.9100  355.2000 H         6 CUB7        0.0000 
@<TRIPOS>BOND
@<TRIPOS>SUBSTRUCTURE
     1 SER1        1 GROUP   
     2 ALA2       30 GROUP   
     3 LYS4       72 GROUP   
     4 PHE5       89 GROUP   
     5 GLY6       96 GROUP   
     6 CUB7      125 GROUP   
@<TRIPOS>SET

