#    Name: 5nzz_1_AGS
#    Modification time : Fri May 22 19:12:12 2020

@<TRIPOS>MOLECULE
5nzz_1_AGS
   31    33     1     0     0
SMALL
NO_CHARGES


@<TRIPOS>ATOM
      1 PG         62.7010   88.1600   32.3490 P.3       1 AGS401      0.0000 
      2 S1G        60.8390   87.9340   32.9120 S.2       1 AGS401      0.0000 
      3 O2G        63.0500   86.8200   31.6190 O.3       1 AGS401      0.0000 
      4 O3G        63.7110   88.3300   33.5300 O.3       1 AGS401      0.0000 
      5 PB         62.0820   90.8060   31.2340 P.3       1 AGS401      0.0000 
      6 O1B        60.6600   90.7510   31.6600 O.co2     1 AGS401      0.0000 
      7 O2B        62.8860   91.8860   31.9650 O.co2     1 AGS401      0.0000 
      8 O3B        62.8780   89.3910   31.3640 O.3       1 AGS401      0.0000 
      9 PA         61.0330   91.2420   28.7050 P.3       1 AGS401      0.0000 
     10 O1A        61.4250   90.4600   27.5330 O.co2     1 AGS401      0.0000 
     11 O2A        59.7170   90.8270   29.3830 O.co2     1 AGS401      0.0000 
     12 O3A        62.2060   91.2300   29.7390 O.3       1 AGS401      0.0000 
     13 O5'        61.0210   92.7870   28.2810 O.3       1 AGS401      0.0000 
     14 C5'        61.0600   93.9160   29.2060 C.3       1 AGS401      0.0000 
     15 C4'        60.3630   95.0500   28.5010 C.3       1 AGS401      0.0000 
     16 O4'        61.1900   95.5600   27.4350 O.3       1 AGS401      0.0000 
     17 C3'        59.0530   94.6930   27.8160 C.3       1 AGS401      0.0000 
     18 O3'        57.9950   94.6920   28.7660 O.3       1 AGS401      0.0000 
     19 C2'        58.9310   95.8010   26.7680 C.3       1 AGS401      0.0000 
     20 O2'        58.5520   97.0550   27.3200 O.3       1 AGS401      0.0000 
     21 C1'        60.3830   95.9460   26.3290 C.3       1 AGS401      0.0000 
     22 N9         60.7580   95.1410   25.1570 N.pl3     1 AGS401      0.0000 
     23 C8         61.3680   93.9100   25.1570 C.2       1 AGS401      0.0000 
     24 N7         61.5950   93.4340   23.9600 N.2       1 AGS401      0.0000 
     25 C5         61.1030   94.4090   23.1070 C.ar      1 AGS401      0.0000 
     26 C6         61.0320   94.5030   21.7080 C.ar      1 AGS401      0.0000 
     27 N6         61.5030   93.5660   20.8840 N.pl3     1 AGS401      0.0000 
     28 N1         60.4770   95.6220   21.1740 N.ar      1 AGS401      0.0000 
     29 C2         60.0220   96.5670   22.0030 C.ar      1 AGS401      0.0000 
     30 N3         60.0290   96.5840   23.3420 N.ar      1 AGS401      0.0000 
     31 C4         60.5830   95.4700   23.8390 C.ar      1 AGS401      0.0000 
@<TRIPOS>BOND
     1    1    2 2    
     2    1    3 1    
     3    1    4 1    
     4    1    8 1    
     5    5    6 ar   
     6    5    7 ar   
     7    5    8 1    
     8    5   12 1    
     9    9   10 ar   
    10    9   11 ar   
    11    9   12 1    
    12    9   13 1    
    13   13   14 1    
    14   14   15 1    
    15   15   16 1    
    16   15   17 1    
    17   16   21 1    
    18   17   18 1    
    19   17   19 1    
    20   19   20 1    
    21   19   21 1    
    22   21   22 1    
    23   22   23 1    
    24   22   31 1    
    25   23   24 2    
    26   24   25 1    
    27   25   26 ar   
    28   25   31 ar   
    29   26   27 1    
    30   26   28 ar   
    31   28   29 ar   
    32   29   30 ar   
    33   30   31 ar   
@<TRIPOS>SUBSTRUCTURE
     1 AGS401      1 GROUP   
@<TRIPOS>SET

