#    Name: 5nzz_3_AGS
#    Modification time : Fri May 22 19:12:25 2020

@<TRIPOS>MOLECULE
5nzz_3_AGS
   31    33     1     0     0
SMALL
NO_CHARGES


@<TRIPOS>ATOM
      1 PG         84.5370   84.9220  107.3620 P.3       1 AGS500      0.0000 
      2 S1G        82.9150   85.9910  107.1100 S.2       1 AGS500      0.0000 
      3 O2G        85.5510   85.8260  108.1380 O.3       1 AGS500      0.0000 
      4 O3G        85.1370   84.6760  105.9400 O.3       1 AGS500      0.0000 
      5 PB         83.1980   82.6820  108.8110 P.3       1 AGS500      0.0000 
      6 O1B        83.1400   81.3320  108.0890 O.co2     1 AGS500      0.0000 
      7 O2B        81.8590   83.3000  108.7740 O.co2     1 AGS500      0.0000 
      8 O3B        84.4080   83.5550  108.1710 O.3       1 AGS500      0.0000 
      9 PA         83.0360   82.7960  111.7010 P.3       1 AGS500      0.0000 
     10 O1A        81.8300   83.6910  111.3770 O.co2     1 AGS500      0.0000 
     11 O2A        84.1920   83.3960  112.4190 O.co2     1 AGS500      0.0000 
     12 O3A        83.6010   82.2420  110.2960 O.3       1 AGS500      0.0000 
     13 O5'        82.6060   81.4820  112.4670 O.3       1 AGS500      0.0000 
     14 C5'        81.6470   80.6070  111.8410 C.3       1 AGS500      0.0000 
     15 C4'        81.0110   79.7130  112.8810 C.3       1 AGS500      0.0000 
     16 O4'        82.0180   78.8530  113.4580 O.3       1 AGS500      0.0000 
     17 C3'        80.3600   80.4310  114.0640 C.3       1 AGS500      0.0000 
     18 O3'        78.9950   80.7640  113.8280 O.3       1 AGS500      0.0000 
     19 C2'        80.4670   79.3940  115.1810 C.3       1 AGS500      0.0000 
     20 O2'        79.3180   78.5530  115.1390 O.3       1 AGS500      0.0000 
     21 C1'        81.7930   78.6860  114.8460 C.3       1 AGS500      0.0000 
     22 N9         82.9580   79.2110  115.5670 N.pl3     1 AGS500      0.0000 
     23 C8         83.7600   80.2610  115.1960 C.2       1 AGS500      0.0000 
     24 N7         84.7290   80.5190  116.0430 N.2       1 AGS500      0.0000 
     25 C5         84.5490   79.5770  117.0450 C.ar      1 AGS500      0.0000 
     26 C6         85.2420   79.3210  118.2460 C.ar      1 AGS500      0.0000 
     27 N6         86.3080   80.0120  118.6550 N.pl3     1 AGS500      0.0000 
     28 N1         84.8050   78.3010  119.0160 N.ar      1 AGS500      0.0000 
     29 C2         83.7390   77.6020  118.6150 C.ar      1 AGS500      0.0000 
     30 N3         83.0000   77.7570  117.5130 N.ar      1 AGS500      0.0000 
     31 C4         83.4600   78.7640  116.7640 C.ar      1 AGS500      0.0000 
@<TRIPOS>BOND
     1    1    2 2    
     2    1    3 1    
     3    1    4 1    
     4    1    8 1    
     5    5    6 ar   
     6    5    7 ar   
     7    5    8 1    
     8    5   12 1    
     9    9   10 ar   
    10    9   11 ar   
    11    9   12 1    
    12    9   13 1    
    13   13   14 1    
    14   14   15 1    
    15   15   16 1    
    16   15   17 1    
    17   16   21 1    
    18   17   18 1    
    19   17   19 1    
    20   19   20 1    
    21   19   21 1    
    22   21   22 1    
    23   22   23 1    
    24   22   31 1    
    25   23   24 2    
    26   24   25 1    
    27   25   26 ar   
    28   25   31 ar   
    29   26   27 1    
    30   26   28 ar   
    31   28   29 ar   
    32   29   30 ar   
    33   30   31 ar   
@<TRIPOS>SUBSTRUCTURE
     1 AGS500      1 GROUP   
@<TRIPOS>SET

