#    Name: 5nzz_2_AGS
#    Modification time : Fri May 22 19:12:19 2020

@<TRIPOS>MOLECULE
5nzz_2_AGS
   31    33     1     0     0
SMALL
NO_CHARGES


@<TRIPOS>ATOM
      1 PG         58.6030   34.7880   39.3810 P.3       1 AGS401      0.0000 
      2 S1G        56.7470   35.3270   39.0670 S.2       1 AGS401      0.0000 
      3 O2G        59.2840   35.6670   40.4950 O.3       1 AGS401      0.0000 
      4 O3G        59.4470   35.1050   38.0900 O.3       1 AGS401      0.0000 
      5 PB         57.4870   32.1710   40.2350 P.3       1 AGS401      0.0000 
      6 O1B        57.9570   31.0090   39.3670 O.co2     1 AGS401      0.0000 
      7 O2B        56.0680   32.5380   40.0700 O.co2     1 AGS401      0.0000 
      8 O3B        58.6250   33.2630   39.8400 O.3       1 AGS401      0.0000 
      9 PA         56.5710   31.9120   42.9800 P.3       1 AGS401      0.0000 
     10 O1A        55.4030   32.7420   42.4620 O.co2     1 AGS401      0.0000 
     11 O2A        57.2400   32.5690   44.0440 O.co2     1 AGS401      0.0000 
     12 O3A        57.6170   31.6670   41.7550 O.3       1 AGS401      0.0000 
     13 O5'        56.0290   30.4890   43.4860 O.3       1 AGS401      0.0000 
     14 C5'        55.7520   29.3840   42.5720 C.3       1 AGS401      0.0000 
     15 C4'        54.9370   28.3300   43.2800 C.3       1 AGS401      0.0000 
     16 O4'        55.7590   27.6430   44.2440 O.3       1 AGS401      0.0000 
     17 C3'        53.7770   28.8580   44.1060 C.3       1 AGS401      0.0000 
     18 O3'        52.6550   29.1650   43.2870 O.3       1 AGS401      0.0000 
     19 C2'        53.5620   27.7100   45.0930 C.3       1 AGS401      0.0000 
     20 O2'        52.9000   26.5990   44.4980 O.3       1 AGS401      0.0000 
     21 C1'        55.0120   27.3380   45.4080 C.3       1 AGS401      0.0000 
     22 N9         55.5670   28.0850   46.5370 N.pl3     1 AGS401      0.0000 
     23 C8         56.2960   29.2530   46.4840 C.2       1 AGS401      0.0000 
     24 N7         56.6310   29.7210   47.6610 N.2       1 AGS401      0.0000 
     25 C5         56.0810   28.8100   48.5570 C.ar      1 AGS401      0.0000 
     26 C6         56.0760   28.7390   49.9600 C.ar      1 AGS401      0.0000 
     27 N6         56.6720   29.6300   50.7520 N.pl3     1 AGS401      0.0000 
     28 N1         55.4420   27.6920   50.5340 N.ar      1 AGS401      0.0000 
     29 C2         54.8450   26.7940   49.7460 C.ar      1 AGS401      0.0000 
     30 N3         54.7850   26.7550   48.4140 N.ar      1 AGS401      0.0000 
     31 C4         55.4230   27.8010   47.8680 C.ar      1 AGS401      0.0000 
@<TRIPOS>BOND
     1    1    2 2    
     2    1    3 1    
     3    1    4 1    
     4    1    8 1    
     5    5    6 ar   
     6    5    7 ar   
     7    5    8 1    
     8    5   12 1    
     9    9   10 ar   
    10    9   11 ar   
    11    9   12 1    
    12    9   13 1    
    13   13   14 1    
    14   14   15 1    
    15   15   16 1    
    16   15   17 1    
    17   16   21 1    
    18   17   18 1    
    19   17   19 1    
    20   19   20 1    
    21   19   21 1    
    22   21   22 1    
    23   22   23 1    
    24   22   31 1    
    25   23   24 2    
    26   24   25 1    
    27   25   26 ar   
    28   25   31 ar   
    29   26   27 1    
    30   26   28 ar   
    31   28   29 ar   
    32   29   30 ar   
    33   30   31 ar   
@<TRIPOS>SUBSTRUCTURE
     1 AGS401      1 GROUP   
@<TRIPOS>SET

