#    Name: 5nzz_4_AGS
#    Modification time : Fri May 22 19:12:32 2020

@<TRIPOS>MOLECULE
5nzz_4_AGS
   31    33     1     0     0
SMALL
NO_CHARGES


@<TRIPOS>ATOM
      1 PG         64.4740   42.7610  -36.3250 P.3       1 AGS500      0.0000 
      2 S1G        63.1630   41.3100  -36.2120 S.2       1 AGS500      0.0000 
      3 O2G        65.7760   42.1460  -36.9350 O.3       1 AGS500      0.0000 
      4 O3G        64.8590   43.2670  -34.8980 O.3       1 AGS500      0.0000 
      5 PB         62.5210   44.2670  -37.8420 P.3       1 AGS500      0.0000 
      6 O1B        61.7140   43.0400  -38.0400 O.co2     1 AGS500      0.0000 
      7 O2B        61.8100   45.2820  -36.9460 O.co2     1 AGS500      0.0000 
      8 O3B        63.9730   43.9910  -37.1880 O.3       1 AGS500      0.0000 
      9 PA         62.2150   44.3570  -40.6420 P.3       1 AGS500      0.0000 
     10 O1A        63.3690   44.2550  -41.5730 O.co2     1 AGS500      0.0000 
     11 O2A        61.5000   43.0410  -40.3110 O.co2     1 AGS500      0.0000 
     12 O3A        62.7180   44.9990  -39.2520 O.3       1 AGS500      0.0000 
     13 O5'        61.1560   45.3470  -41.2860 O.3       1 AGS500      0.0000 
     14 C5'        59.8300   45.4890  -40.7230 C.3       1 AGS500      0.0000 
     15 C4'        58.9540   46.2770  -41.6680 C.3       1 AGS500      0.0000 
     16 O4'        59.6940   47.3940  -42.2040 O.3       1 AGS500      0.0000 
     17 C3'        58.4560   45.5020  -42.8810 C.3       1 AGS500      0.0000 
     18 O3'        57.2460   44.8310  -42.5580 O.3       1 AGS500      0.0000 
     19 C2'        58.2480   46.6040  -43.9260 C.3       1 AGS500      0.0000 
     20 O2'        56.9410   47.1680  -43.8360 O.3       1 AGS500      0.0000 
     21 C1'        59.3400   47.6210  -43.5570 C.3       1 AGS500      0.0000 
     22 N9         60.5640   47.5600  -44.3650 N.pl3     1 AGS500      0.0000 
     23 C8         61.8170   47.2020  -43.9310 C.2       1 AGS500      0.0000 
     24 N7         62.7330   47.2570  -44.8670 N.2       1 AGS500      0.0000 
     25 C5         62.0490   47.6880  -45.9920 C.ar      1 AGS500      0.0000 
     26 C6         62.4490   47.9490  -47.3120 C.ar      1 AGS500      0.0000 
     27 N6         63.7050   47.8040  -47.7430 N.pl3     1 AGS500      0.0000 
     28 N1         61.5060   48.3640  -48.1870 N.ar      1 AGS500      0.0000 
     29 C2         60.2480   48.5100  -47.7560 C.ar      1 AGS500      0.0000 
     30 N3         59.7480   48.2940  -46.5390 N.ar      1 AGS500      0.0000 
     31 C4         60.7010   47.8820  -45.6920 C.ar      1 AGS500      0.0000 
@<TRIPOS>BOND
     1    1    2 2    
     2    1    3 1    
     3    1    4 1    
     4    1    8 1    
     5    5    6 ar   
     6    5    7 ar   
     7    5    8 1    
     8    5   12 1    
     9    9   10 ar   
    10    9   11 ar   
    11    9   12 1    
    12    9   13 1    
    13   13   14 1    
    14   14   15 1    
    15   15   16 1    
    16   15   17 1    
    17   16   21 1    
    18   17   18 1    
    19   17   19 1    
    20   19   20 1    
    21   19   21 1    
    22   21   22 1    
    23   22   23 1    
    24   22   31 1    
    25   23   24 2    
    26   24   25 1    
    27   25   26 ar   
    28   25   31 ar   
    29   26   27 1    
    30   26   28 ar   
    31   28   29 ar   
    32   29   30 ar   
    33   30   31 ar   
@<TRIPOS>SUBSTRUCTURE
     1 AGS500      1 GROUP   
@<TRIPOS>SET

