#    Name: 5zi4_1_NAD
#    Modification time : Fri May 22 19:23:44 2020

@<TRIPOS>MOLECULE
5zi4_1_NAD
   44    48     1     0     1
SMALL
NO_CHARGES


@<TRIPOS>ATOM
      1 PA        -14.7070   10.0610   12.0000 P.3       1 NAD402      0.0000 
      2 O1A       -15.9980    9.6120   12.5970 O.co2     1 NAD402      0.0000 
      3 O2A       -13.9400   11.3070   12.2490 O.co2     1 NAD402      0.0000 
      4 O5B       -13.7220    8.8100   11.8260 O.3       1 NAD402      0.0000 
      5 C5B       -12.3580    8.9570   11.5570 C.3       1 NAD402      0.0000 
      6 C4B       -11.5910    7.7850   12.1820 C.3       1 NAD402      0.0000 
      7 O4B       -10.3280    7.7560   11.5060 O.3       1 NAD402      0.0000 
      8 C3B       -11.4040    7.9560   13.6970 C.3       1 NAD402      0.0000 
      9 O3B       -11.6720    6.7310   14.4590 O.3       1 NAD402      0.0000 
     10 C2B        -9.9510    8.3630   13.6700 C.3       1 NAD402      0.0000 
     11 O2B        -9.2880    8.0170   14.8330 O.3       1 NAD402      0.0000 
     12 C1B        -9.3650    7.5820   12.5020 C.3       1 NAD402      0.0000 
     13 N9A        -7.9950    7.9800   12.0800 N.pl3     1 NAD402      0.0000 
     14 C8A        -7.4750    9.2020   11.7700 C.2       1 NAD402      0.0000 
     15 N7A        -6.1470    9.0930   11.4620 N.2       1 NAD402      0.0000 
     16 C5A        -5.8070    7.7940   11.6110 C.ar      1 NAD402      0.0000 
     17 C6A        -4.6000    6.9990   11.4440 C.ar      1 NAD402      0.0000 
     18 N6A        -3.5210    7.6440   11.0750 N.pl3     1 NAD402      0.0000 
     19 N1A        -4.5860    5.6670   11.6290 N.ar      1 NAD402      0.0000 
     20 C2A        -5.7410    5.0810   12.0140 C.ar      1 NAD402      0.0000 
     21 N3A        -6.9060    5.7480   12.1720 N.ar      1 NAD402      0.0000 
     22 C4A        -7.0020    7.0710   11.9990 C.ar      1 NAD402      0.0000 
     23 O3        -15.0050   10.1900   10.4050 O.3       1 NAD402      0.0000 
     24 PN        -15.9720    9.3480    9.4570 P.3       1 NAD402      0.0000 
     25 O1N       -15.8420    7.9150    9.7910 O.co2     1 NAD402      0.0000 
     26 O2N       -17.3260   10.0100    9.4040 O.co2     1 NAD402      0.0000 
     27 O5D       -15.3000    9.6630    8.0670 O.3       1 NAD402      0.0000 
     28 C5D       -14.2140    8.8370    7.6190 C.3       1 NAD402      0.0000 
     29 C4D       -13.7320    9.2540    6.2340 C.3       1 NAD402      0.0000 
     30 O4D       -14.5680    8.6410    5.2240 O.3       1 NAD402      0.0000 
     31 C3D       -13.7680   10.7790    5.9920 C.3       1 NAD402      0.0000 
     32 O3D       -12.5670   11.1710    5.2920 O.3       1 NAD402      0.0000 
     33 C2D       -15.0520   10.9090    5.1750 C.3       1 NAD402      0.0000 
     34 O2D       -15.2450   12.0390    4.3470 O.3       1 NAD402      0.0000 
     35 C1D       -14.9870    9.6700    4.3150 C.3       1 NAD402      0.0000 
     36 N1N       -16.2550    9.3000    3.6630 N.pl3     1 NAD402      0.0000 
     37 C2N       -16.1600    8.8090    2.4210 C.ar      1 NAD402      0.0000 
     38 C3N       -17.2720    8.4140    1.7060 C.ar      1 NAD402      0.0000 
     39 C7N       -17.1370    7.8830    0.3000 C.2       1 NAD402      0.0000 
     40 O7N       -18.1530    7.9020   -0.4040 O.2       1 NAD402      0.0000 
     41 N7N       -15.9660    7.3670   -0.1490 N.am      1 NAD402      0.0000 
     42 C4N       -18.5210    8.5010    2.3170 C.ar      1 NAD402      0.0000 
     43 C5N       -18.6370    8.9840    3.5980 C.ar      1 NAD402      0.0000 
     44 C6N       -17.4770    9.3910    4.2480 C.ar      1 NAD402      0.0000 
@<TRIPOS>BOND
     1    1    2 ar   
     2    1    3 ar   
     3    1    4 1    
     4    1   23 1    
     5    4    5 1    
     6    5    6 1    
     7    6    7 1    
     8    6    8 1    
     9    7   12 1    
    10    8    9 1    
    11    8   10 1    
    12   10   11 1    
    13   10   12 1    
    14   12   13 1    
    15   13   14 1    
    16   13   22 1    
    17   14   15 2    
    18   15   16 1    
    19   16   17 ar   
    20   16   22 ar   
    21   17   18 1    
    22   17   19 ar   
    23   19   20 ar   
    24   20   21 ar   
    25   21   22 ar   
    26   23   24 1    
    27   24   25 ar   
    28   24   26 ar   
    29   24   27 1    
    30   27   28 1    
    31   28   29 1    
    32   29   30 1    
    33   29   31 1    
    34   30   35 1    
    35   31   32 1    
    36   31   33 1    
    37   33   34 1    
    38   33   35 1    
    39   35   36 1    
    40   36   37 ar   
    41   36   44 ar   
    42   37   38 ar   
    43   38   39 1    
    44   38   42 ar   
    45   39   40 2    
    46   39   41 am   
    47   42   43 ar   
    48   43   44 ar   
@<TRIPOS>SUBSTRUCTURE
     1 NAD402      1 GROUP   
@<TRIPOS>SET
ATOM$ORANGE STATIC     ATOMS   COLORGROUP SYSTEM 
42 5 5 6 6 8 8 10 10 12 12 14 14 16 16 17 17 20 \
20 22 22 28 28 29 29 31 31 33 33 35 35 37 37 38 38 39 \
39 42 42 43 43 44 44 

