#    Name: 6i5y_1_YSA_CAVITY_N1_12
#    Modification time : Fri May 22 19:28:13 2020

@<TRIPOS>MOLECULE
6i5y_1_YSA_CAVITY_N1_12
   74     0     6     0     0
SMALL
NO_CHARGES


@<TRIPOS>ATOM
      1 OG        -56.7600    2.9100  -45.2400 O.3       1 SER1        0.0000 
      2 OG        -56.9800    4.3900  -45.1200 O.3       1 SER1        0.0000 
      3 OG        -53.0200    1.7300  -42.5700 O.3       1 SER1        0.0000 
      4 OG        -50.7100    0.5800  -42.9400 O.3       1 SER1        0.0000 
      5 OG        -50.9300    2.0600  -42.8200 O.3       1 SER1        0.0000 
      6 O         -58.6700   10.7000  -50.9400 O.2       2 ALA2        0.0000 
      7 N         -56.1500    8.0700  -51.4200 N.am      2 ALA2        0.0000 
      8 N         -57.0500    7.8400  -50.2500 N.am      2 ALA2        0.0000 
      9 N         -55.6600    6.4600  -49.4400 N.am      2 ALA2        0.0000 
     10 O         -54.4800    6.5600  -48.5200 O.2       2 ALA2        0.0000 
     11 N         -54.7300    1.8900  -47.7000 N.am      2 ALA2        0.0000 
     12 N         -54.9500    3.3700  -47.5800 N.am      2 ALA2        0.0000 
     13 N         -53.7700    3.4700  -46.6500 N.am      2 ALA2        0.0000 
     14 N         -54.4600    1.7600  -45.6000 N.am      2 ALA2        0.0000 
     15 N         -54.6800    3.2400  -45.4800 N.am      2 ALA2        0.0000 
     16 O         -55.5900    3.0100  -44.3100 O.2       2 ALA2        0.0000 
     17 N         -53.2800    1.8600  -44.6700 N.am      2 ALA2        0.0000 
     18 N         -53.5000    3.3400  -44.5500 N.am      2 ALA2        0.0000 
     19 O         -53.7200    4.8200  -44.4300 O.2       2 ALA2        0.0000 
     20 O         -54.4100    3.1100  -43.3800 O.2       2 ALA2        0.0000 
     21 O         -54.6300    4.5900  -43.2600 O.2       2 ALA2        0.0000 
     22 N         -51.4200    3.6700  -44.8000 N.am      2 ALA2        0.0000 
     23 N         -52.1100    1.9600  -43.7500 N.am      2 ALA2        0.0000 
     24 N         -52.3300    3.4400  -43.6300 N.am      2 ALA2        0.0000 
     25 N         -49.8100    0.8100  -44.1100 N.am      2 ALA2        0.0000 
     26 N         -50.0300    2.2900  -43.9900 N.am      2 ALA2        0.0000 
     27 NZ        -54.7000    8.0400  -48.4000 N.4       3 LYS4        0.0000 
     28 NZ        -53.3100    6.6600  -47.5900 N.4       3 LYS4        0.0000 
     29 NZ        -53.2300    3.2100  -42.4500 N.4       3 LYS4        0.0000 
     30 CZ        -58.8600    7.3800  -47.9000 C.ar      4 PHE5        0.0000 
     31 CZ        -56.1200    3.2700  -48.5100 C.ar      4 PHE5        0.0000 
     32 CZ        -56.3400    4.7500  -48.3900 C.ar      4 PHE5        0.0000 
     33 CZ        -56.5600    6.2300  -48.2700 C.ar      4 PHE5        0.0000 
     34 CZ        -57.4700    6.0000  -47.1000 C.ar      4 PHE5        0.0000 
     35 CZ        -58.5900    7.2500  -45.8000 C.ar      4 PHE5        0.0000 
     36 CZ        -55.1700    4.8500  -47.4600 C.ar      4 PHE5        0.0000 
     37 CZ        -55.8500    3.1400  -46.4100 C.ar      4 PHE5        0.0000 
     38 CZ        -56.0700    4.6200  -46.2900 C.ar      4 PHE5        0.0000 
     39 CA        -58.4500    9.2200  -51.0600 C.3       5 GLY6        0.0000 
     40 CA        -59.3500    8.9900  -49.8800 C.3       5 GLY6        0.0000 
     41 CA        -57.2700    9.3200  -50.1300 C.3       5 GLY6        0.0000 
     42 CA        -57.4900   10.8000  -50.0100 C.3       5 GLY6        0.0000 
     43 CA        -57.7400    6.1300  -49.2000 C.3       5 GLY6        0.0000 
     44 CA        -57.9600    7.6100  -49.0800 C.3       5 GLY6        0.0000 
     45 CA        -58.1800    9.0900  -48.9600 C.3       5 GLY6        0.0000 
     46 CA        -58.4000   10.5700  -48.8400 C.3       5 GLY6        0.0000 
     47 CA        -58.6200   12.0500  -48.7200 C.3       5 GLY6        0.0000 
     48 CA        -54.7500    6.6900  -50.6200 C.3       5 GLY6        0.0000 
     49 CA        -54.9700    8.1700  -50.5000 C.3       5 GLY6        0.0000 
     50 CA        -55.2200    3.5000  -49.6800 C.3       5 GLY6        0.0000 
     51 CA        -55.4400    4.9800  -49.5600 C.3       5 GLY6        0.0000 
     52 CA        -55.8800    7.9400  -49.3200 C.3       5 GLY6        0.0000 
     53 CA        -56.7800    7.7100  -48.1500 C.3       5 GLY6        0.0000 
     54 CA        -57.0000    9.1900  -48.0300 C.3       5 GLY6        0.0000 
     55 CA        -57.4400   12.1500  -47.7900 C.3       5 GLY6        0.0000 
     56 CA        -57.6600   13.6300  -47.6700 C.3       5 GLY6        0.0000 
     57 CA        -53.3600    5.3100  -49.8100 C.3       5 GLY6        0.0000 
     58 CA        -54.0400    3.6000  -48.7600 C.3       5 GLY6        0.0000 
     59 CA        -54.2600    5.0800  -48.6400 C.3       5 GLY6        0.0000 
     60 CA        -55.8300    9.2900  -47.1000 C.3       5 GLY6        0.0000 
     61 CA        -55.6300    1.6600  -46.5300 C.3       5 GLY6        0.0000 
     62 CA        -56.9500   10.5400  -45.8100 C.3       5 GLY6        0.0000 
     63 CA        -53.0900    5.1800  -47.7100 C.3       5 GLY6        0.0000 
     64 CA        -53.9900    4.9500  -46.5400 C.3       5 GLY6        0.0000 
     65 CA        -52.8200    5.0500  -45.6100 C.3       5 GLY6        0.0000 
     66 CA        -51.8900    0.4800  -43.8700 C.3       5 GLY6        0.0000 
     67 CA        -49.5900   -0.6700  -44.2300 C.3       5 GLY6        0.0000 
     68 DU        -59.5200   11.8200  -47.5400 H         6 CUB7        0.0000 
     69 DU        -57.6900    7.4800  -46.9800 H         6 CUB7        0.0000 
     70 DU        -57.9100    8.9600  -46.8600 H         6 CUB7        0.0000 
     71 DU        -55.3900    6.3300  -47.3400 H         6 CUB7        0.0000 
     72 DU        -54.9000    4.7200  -45.3600 H         6 CUB7        0.0000 
     73 DU        -55.8000    4.4900  -44.1900 H         6 CUB7        0.0000 
     74 DU        -56.9300    5.7400  -42.9000 H         6 CUB7        0.0000 
@<TRIPOS>BOND
@<TRIPOS>SUBSTRUCTURE
     1 SER1        1 GROUP   
     2 ALA2        6 GROUP   
     3 LYS4       27 GROUP   
     4 PHE5       30 GROUP   
     5 GLY6       39 GROUP   
     6 CUB7       68 GROUP   
@<TRIPOS>SET

