#    Name: 6i5y_1_YSA
#    Modification time : Fri May 22 19:28:10 2020

@<TRIPOS>MOLECULE
6i5y_1_YSA
   35    38     1     0     0
SMALL
NO_CHARGES


@<TRIPOS>ATOM
      1 CD1       -49.7020    1.0290  -44.6500 C.ar      1 YSA501      0.0000 
      2 CE1       -48.4710    0.3930  -44.6960 C.ar      1 YSA501      0.0000 
      3 CZ        -48.1600   -0.5760  -43.7520 C.ar      1 YSA501      0.0000 
      4 OH        -46.9300   -1.1530  -43.7310 O.3       1 YSA501      0.0000 
      5 CE2       -49.0990   -0.9310  -42.7930 C.ar      1 YSA501      0.0000 
      6 CD2       -50.3390   -0.3200  -42.7820 C.ar      1 YSA501      0.0000 
      7 CG        -50.6560    0.6740  -43.7000 C.ar      1 YSA501      0.0000 
      8 CB        -52.0060    1.3440  -43.6650 C.3       1 YSA501      0.0000 
      9 CA        -51.9450    2.8590  -43.4680 C.3       1 YSA501      0.0000 
     10 N         -51.1840    3.2170  -42.2660 N.4       1 YSA501      0.0000 
     11 C         -53.3800    3.3010  -43.2510 C.2       1 YSA501      0.0000 
     12 O         -53.8940    3.4270  -42.1400 O.2       1 YSA501      0.0000 
     13 NAT       -54.1000    3.5490  -44.3980 N.am      1 YSA501      0.0000 
     14 SBI       -55.6830    3.4480  -44.5870 S.o2      1 YSA501      0.0000 
     15 OAD       -56.2570    4.5210  -43.8580 O.2       1 YSA501      0.0000 
     16 OAE       -56.1690    2.1240  -44.4490 O.2       1 YSA501      0.0000 
     17 O5'       -55.8370    3.8290  -46.1250 O.3       1 YSA501      0.0000 
     18 C5'       -55.2200    2.9230  -47.1010 C.3       1 YSA501      0.0000 
     19 C4'       -54.5790    3.7850  -48.1630 C.3       1 YSA501      0.0000 
     20 O4'       -55.5890    4.5720  -48.8370 O.3       1 YSA501      0.0000 
     21 C3'       -53.5250    4.7800  -47.6620 C.3       1 YSA501      0.0000 
     22 O3'       -52.4010    4.7800  -48.5390 O.3       1 YSA501      0.0000 
     23 C2'       -54.2760    6.1060  -47.6910 C.3       1 YSA501      0.0000 
     24 O2'       -53.4450    7.2380  -47.8540 O.3       1 YSA501      0.0000 
     25 C1'       -55.1180    5.8990  -48.9390 C.3       1 YSA501      0.0000 
     26 N9        -56.2540    6.8070  -49.0670 N.pl3     1 YSA501      0.0000 
     27 C8        -57.3030    6.9810  -48.1990 C.2       1 YSA501      0.0000 
     28 N7        -58.1300    7.9400  -48.5440 N.2       1 YSA501      0.0000 
     29 C5        -57.5910    8.4300  -49.7240 C.ar      1 YSA501      0.0000 
     30 C4        -56.4430    7.7290  -50.0680 C.ar      1 YSA501      0.0000 
     31 N3        -55.6760    7.9280  -51.1470 N.ar      1 YSA501      0.0000 
     32 C2        -56.1400    8.9400  -51.8900 C.ar      1 YSA501      0.0000 
     33 N1        -57.2220    9.7010  -51.6840 N.ar      1 YSA501      0.0000 
     34 C6        -57.9810    9.4740  -50.5870 C.ar      1 YSA501      0.0000 
     35 N6        -59.0140   10.2920  -50.3430 N.pl3     1 YSA501      0.0000 
@<TRIPOS>BOND
     1    1    2 ar   
     2    1    7 ar   
     3    2    3 ar   
     4    3    4 1    
     5    3    5 ar   
     6    5    6 ar   
     7    6    7 ar   
     8    7    8 1    
     9    8    9 1    
    10    9   10 1    
    11    9   11 1    
    12   11   12 2    
    13   11   13 am   
    14   13   14 1    
    15   14   15 2    
    16   14   16 2    
    17   14   17 1    
    18   17   18 1    
    19   18   19 1    
    20   19   20 1    
    21   19   21 1    
    22   20   25 1    
    23   21   22 1    
    24   21   23 1    
    25   23   24 1    
    26   23   25 1    
    27   25   26 1    
    28   26   27 1    
    29   26   30 1    
    30   27   28 2    
    31   28   29 1    
    32   29   30 ar   
    33   29   34 ar   
    34   30   31 ar   
    35   31   32 ar   
    36   32   33 ar   
    37   33   34 ar   
    38   34   35 1    
@<TRIPOS>SUBSTRUCTURE
     1 YSA501      1 GROUP   
@<TRIPOS>SET

