#    Name: 6ciq_1_TPP_CAVITY_N1_12
#    Modification time : Fri May 22 19:40:22 2020

@<TRIPOS>MOLECULE
6ciq_1_TPP_CAVITY_N1_12
   64     0     5     0     0
SMALL
NO_CHARGES


@<TRIPOS>ATOM
      1 OG        -33.9500  -56.8600   38.7900 O.3       1 SER1        0.0000 
      2 OG        -28.1300  -54.7500   40.2300 O.3       1 SER1        0.0000 
      3 OG        -27.4900  -54.6700   42.2500 O.3       1 SER1        0.0000 
      4 OG        -27.9800  -55.2700   43.5400 O.3       1 SER1        0.0000 
      5 N         -32.2000  -59.2500   38.3300 N.am      2 ALA2        0.0000 
      6 N         -33.0800  -58.0600   38.5600 N.am      2 ALA2        0.0000 
      7 N         -33.5600  -58.6600   39.8500 N.am      2 ALA2        0.0000 
      8 N         -34.0500  -59.2600   41.1400 N.am      2 ALA2        0.0000 
      9 O         -35.4100  -58.6700   42.6500 O.2       2 ALA2        0.0000 
     10 N         -30.6000  -57.9700   37.7900 N.am      2 ALA2        0.0000 
     11 N         -31.4800  -56.7800   38.0200 N.am      2 ALA2        0.0000 
     12 N         -30.2100  -59.7700   38.8400 N.am      2 ALA2        0.0000 
     13 N         -31.0800  -58.5800   39.0700 N.am      2 ALA2        0.0000 
     14 N         -31.9600  -57.3800   39.3000 N.am      2 ALA2        0.0000 
     15 N         -32.4500  -57.9800   40.5900 N.am      2 ALA2        0.0000 
     16 N         -29.0000  -56.6900   37.2400 N.am      2 ALA2        0.0000 
     17 O         -29.4800  -57.3000   38.5300 O.2       2 ALA2        0.0000 
     18 N         -30.3600  -56.1000   38.7600 N.am      2 ALA2        0.0000 
     19 N         -31.2400  -54.9100   38.9900 N.am      2 ALA2        0.0000 
     20 O         -29.9700  -57.9000   39.8100 O.2       2 ALA2        0.0000 
     21 N         -27.8800  -56.0200   37.9800 N.am      2 ALA2        0.0000 
     22 N         -28.7600  -54.8200   38.2100 N.am      2 ALA2        0.0000 
     23 O         -27.4900  -57.8100   39.0300 O.2       2 ALA2        0.0000 
     24 O         -28.3700  -56.6200   39.2600 O.2       2 ALA2        0.0000 
     25 N         -29.2400  -55.4200   39.4900 N.am      2 ALA2        0.0000 
     26 N         -30.1200  -54.2300   39.7200 N.am      2 ALA2        0.0000 
     27 N         -25.8900  -56.5300   38.4900 N.am      2 ALA2        0.0000 
     28 N         -26.7700  -55.3400   38.7200 N.am      2 ALA2        0.0000 
     29 O         -26.3700  -57.1400   39.7700 O.2       2 ALA2        0.0000 
     30 N         -27.2500  -55.9400   40.0000 N.am      2 ALA2        0.0000 
     31 N         -26.6200  -55.8700   42.0200 N.am      2 ALA2        0.0000 
     32 CZ        -35.1600  -59.9400   40.4000 C.ar      3 PHE5        0.0000 
     33 CZ        -36.0400  -58.7400   40.6300 C.ar      3 PHE5        0.0000 
     34 CZ        -36.5200  -59.3500   41.9100 C.ar      3 PHE5        0.0000 
     35 CZ        -26.2800  -54.7400   37.4300 C.ar      3 PHE5        0.0000 
     36 CA        -36.4300  -56.9500   39.5700 C.3       4 GLY6        0.0000 
     37 CA        -37.3100  -55.7500   39.8000 C.3       4 GLY6        0.0000 
     38 CA        -37.7900  -56.3500   41.0900 C.3       4 GLY6        0.0000 
     39 CA        -37.4000  -58.1500   42.1400 C.3       4 GLY6        0.0000 
     40 CA        -32.5900  -57.4500   37.2800 C.3       4 GLY6        0.0000 
     41 CA        -35.3200  -56.2700   40.3100 C.3       4 GLY6        0.0000 
     42 CA        -35.8000  -56.8700   41.6000 C.3       4 GLY6        0.0000 
     43 CA        -36.6800  -55.6800   41.8300 C.3       4 GLY6        0.0000 
     44 CA        -36.2800  -57.4800   42.8800 C.3       4 GLY6        0.0000 
     45 CA        -37.1600  -56.2800   43.1100 C.3       4 GLY6        0.0000 
     46 CA        -32.8400  -56.1900   39.5300 C.3       4 GLY6        0.0000 
     47 CA        -33.3200  -56.7900   40.8200 C.3       4 GLY6        0.0000 
     48 CA        -33.8100  -57.3900   42.1000 C.3       4 GLY6        0.0000 
     49 CA        -34.6800  -56.2000   42.3300 C.3       4 GLY6        0.0000 
     50 CA        -28.6100  -58.4900   38.3000 C.3       4 GLY6        0.0000 
     51 CA        -30.8400  -56.7000   40.0400 C.3       4 GLY6        0.0000 
     52 CA        -31.7200  -55.5100   40.2700 C.3       4 GLY6        0.0000 
     53 CA        -30.6000  -54.8300   41.0100 C.3       4 GLY6        0.0000 
     54 CA        -27.6400  -54.1400   38.9500 C.3       4 GLY6        0.0000 
     55 CA        -29.0000  -53.5500   40.4600 C.3       4 GLY6        0.0000 
     56 CA        -27.7300  -56.5400   41.2900 C.3       4 GLY6        0.0000 
     57 CA        -28.6100  -55.3500   41.5200 C.3       4 GLY6        0.0000 
     58 CA        -29.4900  -54.1500   41.7500 C.3       4 GLY6        0.0000 
     59 DU        -34.6800  -59.3400   39.1100 H         5 CUB7        0.0000 
     60 DU        -35.5600  -58.1400   39.3400 H         5 CUB7        0.0000 
     61 DU        -36.9200  -57.5500   40.8600 H         5 CUB7        0.0000 
     62 DU        -34.4400  -57.4700   40.0800 H         5 CUB7        0.0000 
     63 DU        -34.9200  -58.0700   41.3700 H         5 CUB7        0.0000 
     64 DU        -27.0100  -57.2100   37.7500 H         5 CUB7        0.0000 
@<TRIPOS>BOND
@<TRIPOS>SUBSTRUCTURE
     1 SER1        1 GROUP   
     2 ALA2        5 GROUP   
     3 PHE5       32 GROUP   
     4 GLY6       36 GROUP   
     5 CUB7       59 GROUP   
@<TRIPOS>SET

