#    Name: 6ciq_1_TPP_CAVITY_N1_6
#    Modification time : Fri May 22 19:40:22 2020

@<TRIPOS>MOLECULE
6ciq_1_TPP_CAVITY_N1_6
    1     0     1     0     0
SMALL
NO_CHARGES


@<TRIPOS>ATOM
      1 OG        -27.9800  -55.2700   43.5400 O.3       1 SER1        0.0000 
@<TRIPOS>BOND
@<TRIPOS>SUBSTRUCTURE
     1 SER1        1 GROUP   
@<TRIPOS>SET

