#    Name: 6ciq_1_TPP_CAVITY_N1_8
#    Modification time : Fri May 22 19:40:22 2020

@<TRIPOS>MOLECULE
6ciq_1_TPP_CAVITY_N1_8
    9     0     3     0     0
SMALL
NO_CHARGES


@<TRIPOS>ATOM
      1 OG        -27.4900  -54.6700   42.2500 O.3       1 SER1        0.0000 
      2 OG        -27.9800  -55.2700   43.5400 O.3       1 SER1        0.0000 
      3 N         -26.6200  -55.8700   42.0200 N.am      2 ALA2        0.0000 
      4 CA        -37.1600  -56.2800   43.1100 C.3       3 GLY6        0.0000 
      5 CA        -33.8100  -57.3900   42.1000 C.3       3 GLY6        0.0000 
      6 CA        -34.6800  -56.2000   42.3300 C.3       3 GLY6        0.0000 
      7 CA        -30.6000  -54.8300   41.0100 C.3       3 GLY6        0.0000 
      8 CA        -28.6100  -55.3500   41.5200 C.3       3 GLY6        0.0000 
      9 CA        -29.4900  -54.1500   41.7500 C.3       3 GLY6        0.0000 
@<TRIPOS>BOND
@<TRIPOS>SUBSTRUCTURE
     1 SER1        1 GROUP   
     2 ALA2        3 GROUP   
     3 GLY6        4 GROUP   
@<TRIPOS>SET

