#    Name: 6ciq_1_TPP
#    Modification time : Fri May 22 19:40:21 2020

@<TRIPOS>MOLECULE
6ciq_1_TPP
   26    27     1     0     1
SMALL
NO_CHARGES


@<TRIPOS>ATOM
      1 N1'       -29.4910  -52.9290   52.4030 N.ar      1 TPP1204     0.0000 
      2 C2'       -28.5950  -53.4710   51.6010 C.ar      1 TPP1204     0.0000 
      3 CM2       -27.1660  -53.6790   52.1220 C.3       1 TPP1204     0.0000 
      4 N3'       -28.8900  -53.8380   50.3630 N.ar      1 TPP1204     0.0000 
      5 C4'       -30.1330  -53.6710   49.8690 C.ar      1 TPP1204     0.0000 
      6 N4'       -30.4610  -54.0660   48.5340 N.pl3     1 TPP1204     0.0000 
      7 C5'       -31.1170  -53.0980   50.6800 C.ar      1 TPP1204     0.0000 
      8 C6'       -30.7470  -52.7290   51.9990 C.ar      1 TPP1204     0.0000 
      9 C7'       -32.5830  -52.9010   50.1420 C.3       1 TPP1204     0.0000 
     10 N3        -32.7720  -51.7580   49.3170 N.pl3     1 TPP1204     0.0000 
     11 C2        -32.7940  -51.7170   47.9240 C.2       1 TPP1204     0.0000 
     12 S1        -33.0700  -50.2630   47.2360 S.3       1 TPP1204     0.0000 
     13 C5        -33.1870  -49.6200   48.7290 C.2       1 TPP1204     0.0000 
     14 C4        -33.0190  -50.5150   49.7850 C.2       1 TPP1204     0.0000 
     15 CM4       -33.0940  -50.1270   51.2600 C.3       1 TPP1204     0.0000 
     16 C6        -33.4710  -48.1400   48.9400 C.3       1 TPP1204     0.0000 
     17 C7        -33.5040  -47.2760   47.6440 C.3       1 TPP1204     0.0000 
     18 O7        -33.7160  -45.9150   48.0580 O.3       1 TPP1204     0.0000 
     19 PA        -32.8720  -44.7910   47.3430 P.3       1 TPP1204     0.0000 
     20 O1A       -31.4080  -44.9750   47.6720 O.co2     1 TPP1204     0.0000 
     21 O2A       -33.2950  -43.4290   47.8020 O.co2     1 TPP1204     0.0000 
     22 O3A       -33.0880  -44.9480   45.7740 O.3       1 TPP1204     0.0000 
     23 PB        -34.4820  -44.7160   45.0360 P.3       1 TPP1204     0.0000 
     24 O1B       -34.2070  -44.1650   43.6640 O.co2     1 TPP1204     0.0000 
     25 O2B       -35.2400  -46.0250   44.9240 O.co2     1 TPP1204     0.0000 
     26 O3B       -35.3190  -43.7440   45.8190 O.co2     1 TPP1204     0.0000 
@<TRIPOS>BOND
     1    1    2 ar   
     2    1    8 ar   
     3    2    3 1    
     4    2    4 ar   
     5    4    5 ar   
     6    5    6 1    
     7    5    7 ar   
     8    7    8 ar   
     9    7    9 1    
    10    9   10 1    
    11   10   11 2    
    12   10   14 1    
    13   11   12 1    
    14   12   13 1    
    15   13   14 2    
    16   13   16 1    
    17   14   15 1    
    18   16   17 1    
    19   17   18 1    
    20   18   19 1    
    21   19   20 ar   
    22   19   21 ar   
    23   19   22 1    
    24   22   23 1    
    25   23   24 ar   
    26   23   25 ar   
    27   23   26 ar   
@<TRIPOS>SUBSTRUCTURE
     1 TPP1204     1 GROUP   
@<TRIPOS>SET
ATOM$ORANGE STATIC     ATOMS   COLORGROUP SYSTEM 
24 2 2 3 3 5 5 7 7 8 8 9 9 11 11 13 13 14 \
14 15 15 16 16 17 17 

