#    Name: 6e6c_1_GNP_CAVITY_N1_8
#    Modification time : Fri May 22 19:26:18 2020

@<TRIPOS>MOLECULE
6e6c_1_GNP_CAVITY_N1_8
   77     0     6     0     0
SMALL
NO_CHARGES


@<TRIPOS>ATOM
      1 N          37.9900  -40.7500  -89.9600 N.am      1 ALA2        0.0000 
      2 N          36.1500  -39.8500  -89.4100 N.am      1 ALA2        0.0000 
      3 N          37.1400  -39.6400  -90.5200 N.am      1 ALA2        0.0000 
      4 N          38.1400  -39.4400  -91.6200 N.am      1 ALA2        0.0000 
      5 N          34.3100  -38.9500  -88.8600 N.am      1 ALA2        0.0000 
      6 N          35.3100  -38.7400  -89.9700 N.am      1 ALA2        0.0000 
      7 N          36.3000  -38.5400  -91.0700 N.am      1 ALA2        0.0000 
      8 O          39.5800  -40.8700  -88.5600 O.2       1 ALA2        0.0000 
      9 N          36.0500  -37.7500  -89.1200 N.am      1 ALA2        0.0000 
     10 O          40.3200  -39.8800  -87.7100 O.2       1 ALA2        0.0000 
     11 O          41.6000  -37.0500  -92.1400 O.2       1 ALA2        0.0000 
     12 N          39.3700  -36.6700  -87.9700 N.am      1 ALA2        0.0000 
     13 N          38.5200  -35.5700  -88.5300 N.am      1 ALA2        0.0000 
     14 OD1        38.7700  -36.3500  -90.4800 O.co2     2 ASP3        0.0000 
     15 OD1        36.9300  -35.4500  -89.9300 O.co2     2 ASP3        0.0000 
     16 OD1        37.9300  -35.2400  -91.0300 O.co2     2 ASP3        0.0000 
     17 OD1        38.0700  -33.9300  -92.7000 O.co2     2 ASP3        0.0000 
     18 OD1        40.0600  -39.0900  -85.7600 O.co2     2 ASP3        0.0000 
     19 OD1        40.8100  -38.1000  -84.9100 O.co2     2 ASP3        0.0000 
     20 NZ         35.1600  -40.0500  -88.3100 N.4       3 LYS4        0.0000 
     21 NZ         38.5800  -35.5000  -96.6000 N.4       3 LYS4        0.0000 
     22 NZ         37.7300  -34.4000  -97.1600 N.4       3 LYS4        0.0000 
     23 NZ         35.9000  -39.0600  -87.4600 N.4       3 LYS4        0.0000 
     24 NZ         35.0500  -37.9600  -88.0100 N.4       3 LYS4        0.0000 
     25 NZ         40.1600  -35.6200  -95.2000 N.4       3 LYS4        0.0000 
     26 NZ         39.3200  -34.5100  -95.7500 N.4       3 LYS4        0.0000 
     27 NZ         37.6300  -37.8700  -87.7100 N.4       3 LYS4        0.0000 
     28 NZ         36.7900  -36.7600  -88.2700 N.4       3 LYS4        0.0000 
     29 NZ         39.2200  -37.9900  -86.3100 N.4       3 LYS4        0.0000 
     30 NZ         38.3700  -36.8800  -86.8700 N.4       3 LYS4        0.0000 
     31 NZ         37.5300  -35.7700  -87.4200 N.4       3 LYS4        0.0000 
     32 CZ         36.8400  -36.7000  -96.3500 C.ar      4 PHE5        0.0000 
     33 CZ         37.2900  -38.3300  -92.1800 C.ar      4 PHE5        0.0000 
     34 CZ         37.4400  -37.0200  -93.8400 C.ar      4 PHE5        0.0000 
     35 CZ         38.4300  -36.8200  -94.9400 C.ar      4 PHE5        0.0000 
     36 CZ         36.5900  -35.9100  -94.3900 C.ar      4 PHE5        0.0000 
     37 CZ         37.5800  -35.7100  -95.5000 C.ar      4 PHE5        0.0000 
     38 CZ         40.8600  -38.0400  -92.9900 C.ar      4 PHE5        0.0000 
     39 CZ         39.0200  -37.1400  -92.4300 C.ar      4 PHE5        0.0000 
     40 CZ         40.0200  -36.9300  -93.5400 C.ar      4 PHE5        0.0000 
     41 CA         36.0000  -35.5900  -96.9000 C.3       5 GLY6        0.0000 
     42 CA         36.9900  -35.3900  -98.0100 C.3       5 GLY6        0.0000 
     43 CA         37.0000  -40.9600  -88.8600 C.3       5 GLY6        0.0000 
     44 CA         40.2700  -37.7200  -95.4900 C.3       5 GLY6        0.0000 
     45 CA         39.4200  -36.6100  -96.0500 C.3       5 GLY6        0.0000 
     46 CA         38.5800  -41.0700  -87.4500 C.3       5 GLY6        0.0000 
     47 CA         37.7400  -39.9700  -88.0100 C.3       5 GLY6        0.0000 
     48 CA         38.7300  -39.7600  -89.1100 C.3       5 GLY6        0.0000 
     49 CA         38.8800  -38.4500  -90.7700 C.3       5 GLY6        0.0000 
     50 CA         39.8700  -38.2400  -91.8800 C.3       5 GLY6        0.0000 
     51 CA         41.0100  -36.7300  -94.6500 C.3       5 GLY6        0.0000 
     52 CA         39.1700  -35.8200  -94.0900 C.3       5 GLY6        0.0000 
     53 CA         38.3300  -34.7200  -94.6500 C.3       5 GLY6        0.0000 
     54 CA         37.4800  -33.6100  -95.2000 C.3       5 GLY6        0.0000 
     55 CA         39.3200  -40.0800  -86.6100 C.3       5 GLY6        0.0000 
     56 CA         38.4800  -38.9800  -87.1600 C.3       5 GLY6        0.0000 
     57 CA         39.4700  -38.7700  -88.2700 C.3       5 GLY6        0.0000 
     58 CA         40.4600  -38.5700  -89.3700 C.3       5 GLY6        0.0000 
     59 CA         39.6200  -37.4600  -89.9300 C.3       5 GLY6        0.0000 
     60 CA         40.6100  -37.2500  -91.0300 C.3       5 GLY6        0.0000 
     61 CA         39.7600  -36.1500  -91.5900 C.3       5 GLY6        0.0000 
     62 CA         40.7600  -35.9400  -92.6900 C.3       5 GLY6        0.0000 
     63 CA         38.9200  -35.0400  -92.1400 C.3       5 GLY6        0.0000 
     64 CA         39.0700  -33.7300  -93.8000 C.3       5 GLY6        0.0000 
     65 CA         41.0600  -38.8900  -86.8600 C.3       5 GLY6        0.0000 
     66 CA         40.2100  -37.7800  -87.4200 C.3       5 GLY6        0.0000 
     67 DU         36.7400  -34.6000  -96.0500 H         6 CUB7        0.0000 
     68 DU         36.8900  -38.8600  -88.5600 H         6 CUB7        0.0000 
     69 DU         37.8800  -38.6500  -89.6700 H         6 CUB7        0.0000 
     70 DU         37.0400  -37.5500  -90.2200 H         6 CUB7        0.0000 
     71 DU         38.0300  -37.3400  -91.3300 H         6 CUB7        0.0000 
     72 DU         36.1900  -36.4400  -90.7800 H         6 CUB7        0.0000 
     73 DU         37.1900  -36.2300  -91.8800 H         6 CUB7        0.0000 
     74 DU         38.1800  -36.0300  -92.9900 H         6 CUB7        0.0000 
     75 DU         37.3300  -34.9200  -93.5400 H         6 CUB7        0.0000 
     76 DU         38.6300  -37.6600  -88.8200 H         6 CUB7        0.0000 
     77 DU         37.7800  -36.5600  -89.3700 H         6 CUB7        0.0000 
@<TRIPOS>BOND
@<TRIPOS>SUBSTRUCTURE
     1 ALA2        1 GROUP   
     2 ASP3       14 GROUP   
     3 LYS4       20 GROUP   
     4 PHE5       32 GROUP   
     5 GLY6       41 GROUP   
     6 CUB7       67 GROUP   
@<TRIPOS>SET

