#    Name: 6e6c_1_GNP
#    Modification time : Fri May 22 19:26:16 2020

@<TRIPOS>MOLECULE
6e6c_1_GNP
   32    34     1     0     1
SMALL
NO_CHARGES


@<TRIPOS>ATOM
      1 PG         40.4410  -37.8820  -82.3240 P.3       1 GNP202      0.0000 
      2 O1G        40.7620  -39.3360  -82.0940 O.co2     1 GNP202      0.0000 
      3 O2G        39.1150  -37.4030  -81.7710 O.co2     1 GNP202      0.0000 
      4 O3G        41.4660  -36.9460  -81.7760 O.co2     1 GNP202      0.0000 
      5 N3B        40.3350  -37.6830  -83.9180 N.3       1 GNP202      0.0000 
      6 PB         41.3260  -38.2710  -85.0280 P.3       1 GNP202      0.0000 
      7 O1B        42.5560  -37.4320  -85.1230 O.co2     1 GNP202      0.0000 
      8 O2B        41.5020  -39.7240  -84.7850 O.co2     1 GNP202      0.0000 
      9 O3A        40.6840  -38.0630  -86.3890 O.3       1 GNP202      0.0000 
     10 PA         39.7150  -38.9510  -87.1650 P.3       1 GNP202      0.0000 
     11 O1A        40.4620  -40.0450  -87.8170 O.co2     1 GNP202      0.0000 
     12 O2A        38.5910  -39.4010  -86.3070 O.co2     1 GNP202      0.0000 
     13 O5'        39.1630  -38.0220  -88.3350 O.3       1 GNP202      0.0000 
     14 C5'        38.4340  -36.8050  -88.0800 C.3       1 GNP202      0.0000 
     15 C4'        37.5040  -36.4890  -89.2410 C.3       1 GNP202      0.0000 
     16 O4'        38.3200  -36.0800  -90.3670 O.3       1 GNP202      0.0000 
     17 C3'        36.6650  -37.6690  -89.7560 C.3       1 GNP202      0.0000 
     18 O3'        35.3290  -37.2890  -90.1190 O.3       1 GNP202      0.0000 
     19 C2'        37.4380  -38.1650  -90.9780 C.3       1 GNP202      0.0000 
     20 O2'        36.6320  -38.7830  -91.9660 O.3       1 GNP202      0.0000 
     21 C1'        37.9990  -36.8600  -91.5050 C.3       1 GNP202      0.0000 
     22 N9         39.2650  -37.0240  -92.2050 N.pl3     1 GNP202      0.0000 
     23 C8         40.3950  -37.6450  -91.7140 C.2       1 GNP202      0.0000 
     24 N7         41.4030  -37.6150  -92.5480 N.2       1 GNP202      0.0000 
     25 C5         40.9110  -36.9370  -93.6470 C.2       1 GNP202      0.0000 
     26 C6         41.5410  -36.6130  -94.8610 C.2       1 GNP202      0.0000 
     27 O6         42.7060  -36.8650  -95.1910 O.2       1 GNP202      0.0000 
     28 N1         40.6920  -35.9120  -95.7130 N.am      1 GNP202      0.0000 
     29 C2         39.3890  -35.5790  -95.4040 C.2       1 GNP202      0.0000 
     30 N2         38.6950  -34.9030  -96.3260 N.pl3     1 GNP202      0.0000 
     31 N3         38.7860  -35.8880  -94.2780 N.2       1 GNP202      0.0000 
     32 C4         39.5990  -36.5640  -93.4490 C.2       1 GNP202      0.0000 
@<TRIPOS>BOND
     1    1    2 ar   
     2    1    3 ar   
     3    1    4 ar   
     4    1    5 1    
     5    5    6 1    
     6    6    7 ar   
     7    6    8 ar   
     8    6    9 1    
     9    9   10 1    
    10   10   11 ar   
    11   10   12 ar   
    12   10   13 1    
    13   13   14 1    
    14   14   15 1    
    15   15   16 1    
    16   15   17 1    
    17   16   21 1    
    18   17   18 1    
    19   17   19 1    
    20   19   20 1    
    21   19   21 1    
    22   21   22 1    
    23   22   23 1    
    24   22   32 1    
    25   23   24 2    
    26   24   25 1    
    27   25   26 1    
    28   25   32 2    
    29   26   27 2    
    30   26   28 am   
    31   28   29 1    
    32   29   30 1    
    33   29   31 2    
    34   31   32 1    
@<TRIPOS>SUBSTRUCTURE
     1 GNP202      1 GROUP   
@<TRIPOS>SET
ATOM$ORANGE STATIC     ATOMS   COLORGROUP SYSTEM 
20 14 14 15 15 17 17 19 19 21 21 23 23 25 25 26 26 29 \
29 32 32 

