#    Name: 6cy3_1_COD
#    Modification time : Fri May 22 19:23:56 2020

@<TRIPOS>MOLECULE
6cy3_1_COD
   44    46     1     0     0
SMALL
NO_CHARGES


@<TRIPOS>ATOM
      1 N1         16.2720    3.8450   36.6710 N.ar      1 COD403      0.0000 
      2 C2         16.6550    5.0440   36.2090 C.ar      1 COD403      0.0000 
      3 N3         16.5330    5.3890   34.9110 N.ar      1 COD403      0.0000 
      4 C4         16.0050    4.5430   33.9970 C.ar      1 COD403      0.0000 
      5 C5         15.5730    3.2120   34.4200 C.ar      1 COD403      0.0000 
      6 C6         15.7470    2.9010   35.8490 C.ar      1 COD403      0.0000 
      7 N7         15.3780    1.7000   36.3360 N.pl3     1 COD403      0.0000 
      8 N8         15.1020    2.5850   33.3200 N.2       1 COD403      0.0000 
      9 C9         15.2300    3.4390   32.2720 C.2       1 COD403      0.0000 
     10 N10        15.7740    4.6020   32.6940 N.pl3     1 COD403      0.0000 
     11 C11        16.0860    5.8120   31.8980 C.3       1 COD403      0.0000 
     12 C12        16.6240    5.6010   30.4740 C.3       1 COD403      0.0000 
     13 O13        18.0480    5.4610   30.4220 O.3       1 COD403      0.0000 
     14 C14        16.1790    6.8750   29.7690 C.3       1 COD403      0.0000 
     15 O15        17.2800    7.7850   29.5760 O.3       1 COD403      0.0000 
     16 C16        15.1350    7.5130   30.6970 C.3       1 COD403      0.0000 
     17 O17        14.9080    6.5860   31.7600 O.3       1 COD403      0.0000 
     18 C18        13.7980    7.8970   30.0800 C.3       1 COD403      0.0000 
     19 O19        13.9890    8.5420   28.8320 O.3       1 COD403      0.0000 
     20 P20        13.4280    7.9310   27.4670 P.3       1 COD403      0.0000 
     21 O21        13.2060    6.4590   27.7000 O.co2     1 COD403      0.0000 
     22 O22        14.4030    8.3410   26.4050 O.co2     1 COD403      0.0000 
     23 O23        12.0890    8.7710   27.2190 O.3       1 COD403      0.0000 
     24 P24        11.9830   10.3900   27.2590 P.3       1 COD403      0.0000 
     25 O25        11.6670   10.9010   25.8880 O.co2     1 COD403      0.0000 
     26 O26        13.0330   11.0830   28.0630 O.co2     1 COD403      0.0000 
     27 O27        10.6210   10.5870   28.0970 O.3       1 COD403      0.0000 
     28 C28         9.3380   10.2180   27.5720 C.3       1 COD403      0.0000 
     29 C29         8.3060    9.8440   28.6430 C.3       1 COD403      0.0000 
     30 C30         8.8680    8.6990   29.4710 C.3       1 COD403      0.0000 
     31 C31         8.0540   11.0680   29.5280 C.3       1 COD403      0.0000 
     32 C32         6.9920    9.4130   27.9530 C.3       1 COD403      0.0000 
     33 O33         7.0820    8.0440   27.5150 O.3       1 COD403      0.0000 
     34 C34         5.7790    9.5100   28.8460 C.2       1 COD403      0.0000 
     35 O35         5.5170    8.5860   29.5900 O.2       1 COD403      0.0000 
     36 N36         5.0000   10.5900   28.7830 N.am      1 COD403      0.0000 
     37 C37         3.7420   10.6560   29.5410 C.3       1 COD403      0.0000 
     38 C38         2.8220   11.8330   29.1660 C.3       1 COD403      0.0000 
     39 C39         1.9430   11.5320   27.9610 C.2       1 COD403      0.0000 
     40 O40         1.4860   10.4250   27.7660 O.2       1 COD403      0.0000 
     41 N41         1.7370   12.5110   27.0970 N.am      1 COD403      0.0000 
     42 C42         1.1810   12.2890   25.7630 C.3       1 COD403      0.0000 
     43 C43         2.1800   12.7020   24.6710 C.3       1 COD403      0.0000 
     44 S44         3.8170   11.9070   24.8210 S.3       1 COD403      0.0000 
@<TRIPOS>BOND
     1    1    2 ar   
     2    1    6 ar   
     3    2    3 ar   
     4    3    4 ar   
     5    4    5 ar   
     6    4   10 1    
     7    5    6 ar   
     8    5    8 1    
     9    6    7 1    
    10    8    9 2    
    11    9   10 1    
    12   10   11 1    
    13   11   12 1    
    14   11   17 1    
    15   12   13 1    
    16   12   14 1    
    17   14   15 1    
    18   14   16 1    
    19   16   17 1    
    20   16   18 1    
    21   18   19 1    
    22   19   20 1    
    23   20   21 ar   
    24   20   22 ar   
    25   20   23 1    
    26   23   24 1    
    27   24   25 ar   
    28   24   26 ar   
    29   24   27 1    
    30   27   28 1    
    31   28   29 1    
    32   29   30 1    
    33   29   31 1    
    34   29   32 1    
    35   32   33 1    
    36   32   34 1    
    37   34   35 2    
    38   34   36 am   
    39   36   37 1    
    40   37   38 1    
    41   38   39 1    
    42   39   40 2    
    43   39   41 am   
    44   41   42 1    
    45   42   43 1    
    46   43   44 1    
@<TRIPOS>SUBSTRUCTURE
     1 COD403      1 GROUP   
@<TRIPOS>SET

