#    Name: 6fho_1_FAD
#    Modification time : Fri May 22 19:29:01 2020

@<TRIPOS>MOLECULE
6fho_1_FAD
   53    58     1     0     1
SMALL
NO_CHARGES


@<TRIPOS>ATOM
      1 PA         23.1820   36.7830   24.7050 P.3       1 FAD401      0.0000 
      2 O1A        23.5400   37.4240   23.4050 O.co2     1 FAD401      0.0000 
      3 O2A        22.4400   35.4990   24.9870 O.co2     1 FAD401      0.0000 
      4 O5B        24.5610   36.6760   25.4980 O.3       1 FAD401      0.0000 
      5 C5B        24.7040   35.9810   26.7730 C.3       1 FAD401      0.0000 
      6 C4B        26.1310   35.5530   26.9640 C.3       1 FAD401      0.0000 
      7 O4B        26.2130   35.0170   28.2820 O.3       1 FAD401      0.0000 
      8 C3B        26.5610   34.4530   25.9960 C.3       1 FAD401      0.0000 
      9 O3B        27.8490   34.8020   25.5090 O.3       1 FAD401      0.0000 
     10 C2B        26.6380   33.1910   26.8590 C.3       1 FAD401      0.0000 
     11 O2B        27.6130   32.2760   26.4250 O.3       1 FAD401      0.0000 
     12 C1B        26.9760   33.8390   28.1990 C.3       1 FAD401      0.0000 
     13 N9A        26.5520   33.0730   29.3870 N.pl3     1 FAD401      0.0000 
     14 C8A        25.3560   32.4920   29.6050 C.2       1 FAD401      0.0000 
     15 N7A        25.3980   31.8690   30.8170 N.2       1 FAD401      0.0000 
     16 C5A        26.5780   32.1070   31.3910 C.ar      1 FAD401      0.0000 
     17 C6A        27.2660   31.7300   32.6540 C.ar      1 FAD401      0.0000 
     18 N6A        26.6280   30.9960   33.5740 N.pl3     1 FAD401      0.0000 
     19 N1A        28.5110   32.1690   32.8330 N.ar      1 FAD401      0.0000 
     20 C2A        29.1360   32.9300   31.9100 C.ar      1 FAD401      0.0000 
     21 N3A        28.6010   33.2630   30.7140 N.ar      1 FAD401      0.0000 
     22 C4A        27.3470   32.8760   30.4110 C.ar      1 FAD401      0.0000 
     23 N1         16.1160   38.0510   18.5440 N.2       1 FAD401      0.0000 
     24 C2         15.2010   38.7130   17.8000 C.2       1 FAD401      0.0000 
     25 O2         14.5400   39.6180   18.3240 O.2       1 FAD401      0.0000 
     26 N3         14.9430   38.4780   16.4930 N.am      1 FAD401      0.0000 
     27 C4         15.5300   37.4870   15.8370 C.2       1 FAD401      0.0000 
     28 O4         15.2870   37.2100   14.6440 O.2       1 FAD401      0.0000 
     29 C4X        16.5200   36.7190   16.5870 C.2       1 FAD401      0.0000 
     30 N5         17.2030   35.7380   15.9700 N.2       1 FAD401      0.0000 
     31 C5X        18.0080   34.9110   16.6810 C.ar      1 FAD401      0.0000 
     32 C6         18.6120   33.8400   16.0570 C.ar      1 FAD401      0.0000 
     33 C7         19.4390   32.9820   16.7730 C.ar      1 FAD401      0.0000 
     34 C7M        20.0890   31.8370   16.0260 C.3       1 FAD401      0.0000 
     35 C8         19.6580   33.2110   18.2190 C.ar      1 FAD401      0.0000 
     36 C8M        20.6730   32.3920   19.0280 C.3       1 FAD401      0.0000 
     37 C9         19.1040   34.3160   18.8380 C.ar      1 FAD401      0.0000 
     38 C9A        18.2530   35.1820   18.1190 C.ar      1 FAD401      0.0000 
     39 N10        17.6040   36.2740   18.7020 N.pl3     1 FAD401      0.0000 
     40 C10        16.7460   37.0410   17.9670 C.2       1 FAD401      0.0000 
     41 C1'        17.8100   36.6840   20.0960 C.3       1 FAD401      0.0000 
     42 C2'        18.9290   37.7450   20.1670 C.3       1 FAD401      0.0000 
     43 O2'        20.1730   37.2240   19.6100 O.3       1 FAD401      0.0000 
     44 C3'        19.1860   38.0060   21.6530 C.3       1 FAD401      0.0000 
     45 O3'        18.0560   38.6200   22.1740 O.3       1 FAD401      0.0000 
     46 C4'        20.3840   38.8570   22.0410 C.3       1 FAD401      0.0000 
     47 O4'        21.6530   38.2400   21.7100 O.3       1 FAD401      0.0000 
     48 C5'        20.3660   39.1240   23.5440 C.3       1 FAD401      0.0000 
     49 O5'        21.6660   39.6320   23.9150 O.3       1 FAD401      0.0000 
     50 P          22.1660   39.4730   25.4220 P.3       1 FAD401      0.0000 
     51 O1P        21.1960   39.8550   26.4380 O.co2     1 FAD401      0.0000 
     52 O2P        23.5000   40.1310   25.4820 O.co2     1 FAD401      0.0000 
     53 O3P        22.4250   37.8990   25.5770 O.3       1 FAD401      0.0000 
@<TRIPOS>BOND
     1    1    2 ar   
     2    1    3 ar   
     3    1    4 1    
     4    1   53 1    
     5    4    5 1    
     6    5    6 1    
     7    6    7 1    
     8    6    8 1    
     9    7   12 1    
    10    8    9 1    
    11    8   10 1    
    12   10   11 1    
    13   10   12 1    
    14   12   13 1    
    15   13   14 1    
    16   13   22 1    
    17   14   15 2    
    18   15   16 1    
    19   16   17 ar   
    20   16   22 ar   
    21   17   18 1    
    22   17   19 ar   
    23   19   20 ar   
    24   20   21 ar   
    25   21   22 ar   
    26   23   24 1    
    27   23   40 2    
    28   24   25 2    
    29   24   26 am   
    30   26   27 am   
    31   27   28 2    
    32   27   29 1    
    33   29   30 2    
    34   29   40 1    
    35   30   31 1    
    36   31   32 ar   
    37   31   38 ar   
    38   32   33 ar   
    39   33   34 1    
    40   33   35 ar   
    41   35   36 1    
    42   35   37 ar   
    43   37   38 ar   
    44   38   39 1    
    45   39   40 1    
    46   39   41 1    
    47   41   42 1    
    48   42   43 1    
    49   42   44 1    
    50   44   45 1    
    51   44   46 1    
    52   46   47 1    
    53   46   48 1    
    54   48   49 1    
    55   49   50 1    
    56   50   51 ar   
    57   50   52 ar   
    58   50   53 1    
@<TRIPOS>SUBSTRUCTURE
     1 FAD401      1 GROUP   
@<TRIPOS>SET
ATOM$ORANGE STATIC     ATOMS   COLORGROUP SYSTEM 
54 5 5 6 6 8 8 10 10 12 12 14 14 16 16 17 17 20 \
20 22 22 24 24 27 27 29 29 31 31 32 32 33 33 34 34 35 \
35 36 36 37 37 38 38 40 40 41 41 42 42 44 44 46 46 48 \
48 

