#    Name: 6gj4_3_GTP
#    Modification time : Fri May 22 19:32:34 2020

@<TRIPOS>MOLECULE
6gj4_3_GTP
   32    34     1     0     1
SMALL
NO_CHARGES


@<TRIPOS>ATOM
      1 PG         20.1310   18.6700  -16.8850 P.3       1 GTP501      0.0000 
      2 O1G        18.9830   18.8170  -17.8500 O.co2     1 GTP501      0.0000 
      3 O2G        21.4140   19.1260  -17.5490 O.co2     1 GTP501      0.0000 
      4 O3G        20.2860   17.2320  -16.4710 O.co2     1 GTP501      0.0000 
      5 O3B        19.8540   19.5820  -15.5830 O.3       1 GTP501      0.0000 
      6 PB         18.5540   20.5050  -15.3810 P.3       1 GTP501      0.0000 
      7 O1B        18.2140   21.2550  -16.6290 O.co2     1 GTP501      0.0000 
      8 O2B        18.7790   21.4800  -14.2590 O.co2     1 GTP501      0.0000 
      9 O3A        17.3680   19.4710  -15.0570 O.3       1 GTP501      0.0000 
     10 PA         15.9220   19.8420  -14.4400 P.3       1 GTP501      0.0000 
     11 O1A        14.9000   19.6340  -15.5260 O.co2     1 GTP501      0.0000 
     12 O2A        15.8400   21.2420  -13.8610 O.co2     1 GTP501      0.0000 
     13 O5'        15.8040   18.6980  -13.3040 O.3       1 GTP501      0.0000 
     14 C5'        14.7390   17.7720  -13.2440 C.3       1 GTP501      0.0000 
     15 C4'        13.9470   18.0290  -11.9730 C.3       1 GTP501      0.0000 
     16 O4'        13.4800   19.3620  -11.9650 O.3       1 GTP501      0.0000 
     17 C3'        12.7360   17.1340  -11.9080 C.3       1 GTP501      0.0000 
     18 O3'        12.5700   16.8160  -10.5470 O.3       1 GTP501      0.0000 
     19 C2'        11.6040   18.0160  -12.3890 C.3       1 GTP501      0.0000 
     20 O2'        10.3900   17.6780  -11.7640 O.3       1 GTP501      0.0000 
     21 C1'        12.0650   19.3930  -11.9510 C.3       1 GTP501      0.0000 
     22 N9         11.6570   20.4750  -12.8590 N.pl3     1 GTP501      0.0000 
     23 C8         12.0930   20.7220  -14.1420 C.2       1 GTP501      0.0000 
     24 N7         11.4810   21.8480  -14.5840 N.2       1 GTP501      0.0000 
     25 C5         10.6690   22.3210  -13.6030 C.2       1 GTP501      0.0000 
     26 C6          9.8200   23.4220  -13.5140 C.2       1 GTP501      0.0000 
     27 O6          9.6960   24.2110  -14.4540 O.2       1 GTP501      0.0000 
     28 N1          9.1150   23.6280  -12.3460 N.am      1 GTP501      0.0000 
     29 C2          9.2520   22.7570  -11.2820 C.2       1 GTP501      0.0000 
     30 N2          8.5710   22.9530  -10.1610 N.pl3     1 GTP501      0.0000 
     31 N3         10.0890   21.6740  -11.3830 N.2       1 GTP501      0.0000 
     32 C4         10.7830   21.4650  -12.5180 C.2       1 GTP501      0.0000 
@<TRIPOS>BOND
     1    1    2 ar   
     2    1    3 ar   
     3    1    4 ar   
     4    1    5 1    
     5    5    6 1    
     6    6    7 ar   
     7    6    8 ar   
     8    6    9 1    
     9    9   10 1    
    10   10   11 ar   
    11   10   12 ar   
    12   10   13 1    
    13   13   14 1    
    14   14   15 1    
    15   15   16 1    
    16   15   17 1    
    17   16   21 1    
    18   17   18 1    
    19   17   19 1    
    20   19   20 1    
    21   19   21 1    
    22   21   22 1    
    23   22   23 1    
    24   22   32 1    
    25   23   24 2    
    26   24   25 1    
    27   25   26 1    
    28   25   32 2    
    29   26   27 2    
    30   26   28 am   
    31   28   29 1    
    32   29   30 1    
    33   29   31 2    
    34   31   32 1    
@<TRIPOS>SUBSTRUCTURE
     1 GTP501      1 GROUP   
@<TRIPOS>SET
ATOM$ORANGE STATIC     ATOMS   COLORGROUP SYSTEM 
20 14 14 15 15 17 17 19 19 21 21 23 23 25 25 26 26 29 \
29 32 32 

