#    Name: 6gj4_1_GTP
#    Modification time : Fri May 22 19:32:22 2020

@<TRIPOS>MOLECULE
6gj4_1_GTP
   32    34     1     0     1
SMALL
NO_CHARGES


@<TRIPOS>ATOM
      1 PG         26.9550   73.7760   46.2220 P.3       1 GTP501      0.0000 
      2 O1G        28.1200   73.8850   45.2780 O.co2     1 GTP501      0.0000 
      3 O2G        25.7350   74.4060   45.5980 O.co2     1 GTP501      0.0000 
      4 O3G        26.7470   72.3180   46.5590 O.co2     1 GTP501      0.0000 
      5 O3B        27.3120   74.5900   47.5620 O.3       1 GTP501      0.0000 
      6 PB         26.3820   75.7660   48.1590 P.3       1 GTP501      0.0000 
      7 O1B        26.0630   76.8000   47.0960 O.co2     1 GTP501      0.0000 
      8 O2B        27.1440   76.3780   49.3050 O.co2     1 GTP501      0.0000 
      9 O3A        25.0160   75.0450   48.6230 O.3       1 GTP501      0.0000 
     10 PA         23.9050   75.7570   49.5600 P.3       1 GTP501      0.0000 
     11 O1A        22.6750   76.1370   48.7750 O.co2     1 GTP501      0.0000 
     12 O2A        24.4370   76.9940   50.2440 O.co2     1 GTP501      0.0000 
     13 O5'        23.6050   74.5670   50.5990 O.3       1 GTP501      0.0000 
     14 C5'        22.3390   73.9810   50.7780 C.3       1 GTP501      0.0000 
     15 C4'        21.8770   74.2070   52.2120 C.3       1 GTP501      0.0000 
     16 O4'        21.8270   75.5910   52.4790 O.3       1 GTP501      0.0000 
     17 C3'        20.4770   73.6790   52.4280 C.3       1 GTP501      0.0000 
     18 O3'        20.4460   73.2260   53.7580 O.3       1 GTP501      0.0000 
     19 C2'        19.5950   74.8930   52.2710 C.3       1 GTP501      0.0000 
     20 O2'        18.4240   74.7590   53.0410 O.3       1 GTP501      0.0000 
     21 C1'        20.5070   76.0010   52.7740 C.3       1 GTP501      0.0000 
     22 N9         20.3060   77.2910   52.0900 N.pl3     1 GTP501      0.0000 
     23 C8         20.6370   77.6250   50.8000 C.2       1 GTP501      0.0000 
     24 N7         20.2990   78.9210   50.6000 N.2       1 GTP501      0.0000 
     25 C5         19.7770   79.4100   51.7490 C.2       1 GTP501      0.0000 
     26 C6         19.2830   80.6520   52.1020 C.2       1 GTP501      0.0000 
     27 O6         19.2740   81.5580   51.2740 O.2       1 GTP501      0.0000 
     28 N1         18.8020   80.8640   53.3790 N.am      1 GTP501      0.0000 
     29 C2         18.8160   79.8380   54.2990 C.2       1 GTP501      0.0000 
     30 N2         18.3550   80.0320   55.5260 N.pl3     1 GTP501      0.0000 
     31 N3         19.3130   78.6080   53.9430 N.2       1 GTP501      0.0000 
     32 C4         19.7800   78.3990   52.6910 C.2       1 GTP501      0.0000 
@<TRIPOS>BOND
     1    1    2 ar   
     2    1    3 ar   
     3    1    4 ar   
     4    1    5 1    
     5    5    6 1    
     6    6    7 ar   
     7    6    8 ar   
     8    6    9 1    
     9    9   10 1    
    10   10   11 ar   
    11   10   12 ar   
    12   10   13 1    
    13   13   14 1    
    14   14   15 1    
    15   15   16 1    
    16   15   17 1    
    17   16   21 1    
    18   17   18 1    
    19   17   19 1    
    20   19   20 1    
    21   19   21 1    
    22   21   22 1    
    23   22   23 1    
    24   22   32 1    
    25   23   24 2    
    26   24   25 1    
    27   25   26 1    
    28   25   32 2    
    29   26   27 2    
    30   26   28 am   
    31   28   29 1    
    32   29   30 1    
    33   29   31 2    
    34   31   32 1    
@<TRIPOS>SUBSTRUCTURE
     1 GTP501      1 GROUP   
@<TRIPOS>SET
ATOM$ORANGE STATIC     ATOMS   COLORGROUP SYSTEM 
20 14 14 15 15 17 17 19 19 21 21 23 23 25 25 26 26 29 \
29 32 32 

