#    Name: 6gj4_3_GTP_CAVITY_N1_12
#    Modification time : Fri May 22 19:32:36 2020

@<TRIPOS>MOLECULE
6gj4_3_GTP_CAVITY_N1_12
  109     0     7     0     0
SMALL
NO_CHARGES


@<TRIPOS>ATOM
      1 OG          7.9400   15.6100  -16.5000 O.3       1 SER1        0.0000 
      2 OG          6.7300   16.9300  -15.3600 O.3       1 SER1        0.0000 
      3 OG          2.0800   14.6800  -13.7500 O.3       1 SER1        0.0000 
      4 N           6.7300   14.6700  -22.6700 N.am      2 ALA2        0.0000 
      5 O           6.0800   13.5000  -22.0000 O.2       2 ALA2        0.0000 
      6 N           6.1600   17.1700  -22.2100 N.am      2 ALA2        0.0000 
      7 N           6.9000   12.3800  -19.8100 N.am      2 ALA2        0.0000 
      8 N           5.5500   13.0100  -20.0000 N.am      2 ALA2        0.0000 
      9 N           4.9000   11.8400  -19.3300 N.am      2 ALA2        0.0000 
     10 N           4.2500   10.6700  -18.6600 N.am      2 ALA2        0.0000 
     11 N           5.7300   10.7200  -17.1400 N.am      2 ALA2        0.0000 
     12 N           6.5500    9.6000  -14.9500 N.am      2 ALA2        0.0000 
     13 N           5.2100   10.2300  -15.1400 N.am      2 ALA2        0.0000 
     14 N           9.2900   14.9700  -16.3000 N.am      2 ALA2        0.0000 
     15 N           2.5600   18.1500  -17.2800 N.am      2 ALA2        0.0000 
     16 N           7.2900   14.4400  -15.8300 N.am      2 ALA2        0.0000 
     17 N           6.6400   13.2600  -15.1600 N.am      2 ALA2        0.0000 
     18 N           7.3300   11.4500  -14.2900 N.am      2 ALA2        0.0000 
     19 N           5.9900   12.0900  -14.4900 N.am      2 ALA2        0.0000 
     20 N           4.6400   12.7200  -14.6800 N.am      2 ALA2        0.0000 
     21 N           3.9900   11.5500  -14.0100 N.am      2 ALA2        0.0000 
     22 O           4.6900   19.3700  -16.4300 O.2       2 ALA2        0.0000 
     23 N           4.0400   18.2000  -15.7600 N.am      2 ALA2        0.0000 
     24 O           7.4200   15.1200  -14.5000 O.2       2 ALA2        0.0000 
     25 N           3.3900   17.0300  -15.0900 N.am      2 ALA2        0.0000 
     26 N           2.7800   12.8700  -12.8800 N.am      2 ALA2        0.0000 
     27 N           4.1700   18.8900  -14.4300 N.am      2 ALA2        0.0000 
     28 OD1         3.5200   15.4600  -21.0700 O.co2     3 ASP3        0.0000 
     29 OD1         4.2100   13.6500  -20.2000 O.co2     3 ASP3        0.0000 
     30 OD1         2.8600   14.2800  -20.4000 O.co2     3 ASP3        0.0000 
     31 OD1         3.5600   12.4800  -19.5300 O.co2     3 ASP3        0.0000 
     32 OD1         4.9900   15.5100  -19.5400 O.co2     3 ASP3        0.0000 
     33 OD1         3.6500   16.1400  -19.7400 O.co2     3 ASP3        0.0000 
     34 OD1         7.0300   13.0600  -18.4800 O.co2     3 ASP3        0.0000 
     35 OD1         5.6800   13.7000  -18.6800 O.co2     3 ASP3        0.0000 
     36 OD1         4.3400   14.3300  -18.8700 O.co2     3 ASP3        0.0000 
     37 OD1         6.3800   11.8900  -17.8100 O.co2     3 ASP3        0.0000 
     38 OD1         5.0300   12.5300  -18.0100 O.co2     3 ASP3        0.0000 
     39 OD1         7.0700   10.0800  -16.9400 O.co2     3 ASP3        0.0000 
     40 OD1         4.3800   11.3500  -17.3400 O.co2     3 ASP3        0.0000 
     41 OD1         3.7800   16.8300  -18.4100 O.co2     3 ASP3        0.0000 
     42 OD1         2.4300   17.4600  -18.6100 O.co2     3 ASP3        0.0000 
     43 OD1         7.1600   13.7500  -17.1500 O.co2     3 ASP3        0.0000 
     44 OD1         6.5100   12.5800  -16.4800 O.co2     3 ASP3        0.0000 
     45 OD1         5.1600   13.2100  -16.6800 O.co2     3 ASP3        0.0000 
     46 OD1         7.2000   10.7700  -15.6200 O.co2     3 ASP3        0.0000 
     47 OD1         5.8600   11.4000  -15.8100 O.co2     3 ASP3        0.0000 
     48 OD1         4.5100   12.0400  -16.0100 O.co2     3 ASP3        0.0000 
     49 OD1         4.6000   15.7100  -16.2200 O.co2     3 ASP3        0.0000 
     50 OD1         3.2600   16.3400  -16.4100 O.co2     3 ASP3        0.0000 
     51 OD1         1.9100   16.9800  -16.6100 O.co2     3 ASP3        0.0000 
     52 OD1         3.9500   14.5300  -15.5500 O.co2     3 ASP3        0.0000 
     53 OD1         2.6000   15.1700  -15.7400 O.co2     3 ASP3        0.0000 
     54 OD1         3.3000   13.3600  -14.8800 O.co2     3 ASP3        0.0000 
     55 OD1         1.9500   13.9900  -15.0700 O.co2     3 ASP3        0.0000 
     56 NZ          3.7300   10.1800  -16.6700 N.4       4 LYS4        0.0000 
     57 NZ          3.8600   10.8700  -15.3400 N.4       4 LYS4        0.0000 
     58 NZ          2.6500   12.1900  -14.2100 N.4       4 LYS4        0.0000 
     59 CZ          5.8600   21.0300  -19.0900 C.ar      5 PHE5        0.0000 
     60 CZ          9.2400   17.9600  -17.8400 C.ar      5 PHE5        0.0000 
     61 CZ          6.5600   19.2300  -18.2300 C.ar      5 PHE5        0.0000 
     62 CZ          5.2100   19.8600  -18.4200 C.ar      5 PHE5        0.0000 
     63 CZ          8.5900   16.7800  -17.1700 C.ar      5 PHE5        0.0000 
     64 CZ          7.2500   17.4200  -17.3600 C.ar      5 PHE5        0.0000 
     65 CZ          5.9000   18.0500  -17.5600 C.ar      5 PHE5        0.0000 
     66 CZ          6.6000   16.2400  -16.6900 C.ar      5 PHE5        0.0000 
     67 CZ          5.3800   17.5700  -15.5600 C.ar      5 PHE5        0.0000 
     68 CZ          5.5100   18.2500  -14.2300 C.ar      5 PHE5        0.0000 
     69 CA          7.4200   12.8700  -21.8100 C.3       6 GLY6        0.0000 
     70 CA          6.8600   15.3600  -21.3400 C.3       6 GLY6        0.0000 
     71 CA          7.5500   13.5500  -20.4800 C.3       6 GLY6        0.0000 
     72 CA          6.2100   14.1900  -20.6700 C.3       6 GLY6        0.0000 
     73 CA          6.2900   17.8500  -20.8800 C.3       6 GLY6        0.0000 
     74 CA          6.9900   16.0500  -20.0200 C.3       6 GLY6        0.0000 
     75 CA          7.6800   14.2400  -19.1500 C.3       6 GLY6        0.0000 
     76 CA          6.3400   14.8700  -19.3500 C.3       6 GLY6        0.0000 
     77 CA          5.0800    9.5400  -16.4700 C.3       6 GLY6        0.0000 
     78 CA          9.1100   17.2700  -19.1600 C.3       6 GLY6        0.0000 
     79 CA          7.7700   17.9100  -19.3600 C.3       6 GLY6        0.0000 
     80 CA          8.4600   16.1000  -18.4900 C.3       6 GLY6        0.0000 
     81 CA          7.1200   16.7300  -18.6900 C.3       6 GLY6        0.0000 
     82 CA          9.1600   14.2900  -17.6300 C.3       6 GLY6        0.0000 
     83 CA          7.8100   14.9200  -17.8200 C.3       6 GLY6        0.0000 
     84 CA         10.5900   17.3200  -17.6400 C.3       6 GLY6        0.0000 
     85 CA          3.8700   20.5000  -18.6200 C.3       6 GLY6        0.0000 
     86 CA          9.9400   16.1500  -16.9700 C.3       6 GLY6        0.0000 
     87 CA          3.2100   19.3200  -17.9500 C.3       6 GLY6        0.0000 
     88 CA          5.9500   15.0700  -16.0200 C.3       6 GLY6        0.0000 
     89 CA          5.2900   13.9000  -15.3500 C.3       6 GLY6        0.0000 
     90 CA          6.0800   15.7600  -14.6900 C.3       6 GLY6        0.0000 
     91 CA          4.7300   16.3900  -14.8900 C.3       6 GLY6        0.0000 
     92 CA          2.7300   15.8500  -14.4200 C.3       6 GLY6        0.0000 
     93 CA          3.4300   14.0500  -13.5500 C.3       6 GLY6        0.0000 
     94 CA          3.5200   17.7100  -13.7600 C.3       6 GLY6        0.0000 
     95 DU          5.5100   16.0000  -21.5400 H         7 CUB7        0.0000 
     96 DU          4.1700   16.6300  -21.7400 H         7 CUB7        0.0000 
     97 DU          4.8600   14.8200  -20.8700 H         7 CUB7        0.0000 
     98 DU          5.6400   16.6800  -20.2100 H         7 CUB7        0.0000 
     99 DU          4.3000   17.3200  -20.4100 H         7 CUB7        0.0000 
    100 DU          7.0800   19.7100  -20.2200 H         7 CUB7        0.0000 
    101 DU          6.4200   18.5400  -19.5500 H         7 CUB7        0.0000 
    102 DU          5.0800   19.1800  -19.7500 H         7 CUB7        0.0000 
    103 DU          5.7700   17.3700  -18.8800 H         7 CUB7        0.0000 
    104 DU          4.4300   18.0000  -19.0800 H         7 CUB7        0.0000 
    105 DU          6.4700   15.5600  -18.0200 H         7 CUB7        0.0000 
    106 DU          5.1200   16.1900  -18.2100 H         7 CUB7        0.0000 
    107 DU          4.5600   18.6900  -17.7500 H         7 CUB7        0.0000 
    108 DU          5.2500   16.8800  -16.8900 H         7 CUB7        0.0000 
    109 DU          3.9100   17.5100  -17.0800 H         7 CUB7        0.0000 
@<TRIPOS>BOND
@<TRIPOS>SUBSTRUCTURE
     1 SER1        1 GROUP   
     2 ALA2        4 GROUP   
     3 ASP3       28 GROUP   
     4 LYS4       56 GROUP   
     5 PHE5       59 GROUP   
     6 GLY6       69 GROUP   
     7 CUB7       95 GROUP   
@<TRIPOS>SET

