#    Name: 6gj4_1_GTP_CAVITY_N1_12
#    Modification time : Fri May 22 19:32:24 2020

@<TRIPOS>MOLECULE
6gj4_1_GTP_CAVITY_N1_12
   86     0     7     0     0
SMALL
NO_CHARGES


@<TRIPOS>ATOM
      1 OG         15.0900   75.5700   48.4300 O.3       1 SER1        0.0000 
      2 N          10.7000   72.4300   45.4000 N.am      2 ALA2        0.0000 
      3 N          10.8300   73.1200   46.7200 N.am      2 ALA2        0.0000 
      4 N          11.5300   71.3100   47.5900 N.am      2 ALA2        0.0000 
      5 N          10.1800   71.9500   47.3900 N.am      2 ALA2        0.0000 
      6 N          10.8700   70.1400   48.2600 N.am      2 ALA2        0.0000 
      7 N           9.5300   70.7700   48.0600 N.am      2 ALA2        0.0000 
      8 O          11.5700   68.3300   49.1200 O.2       2 ALA2        0.0000 
      9 N          13.6900   69.5600   49.9800 N.am      2 ALA2        0.0000 
     10 N          11.0000   70.8300   49.5900 N.am      2 ALA2        0.0000 
     11 N          11.7000   69.0200   50.4500 N.am      2 ALA2        0.0000 
     12 N          14.4300   74.4000   49.1000 N.am      2 ALA2        0.0000 
     13 N          13.7800   73.2200   49.7700 N.am      2 ALA2        0.0000 
     14 N          11.7900   72.6800   50.2400 N.am      2 ALA2        0.0000 
     15 N          12.4800   70.8800   51.1100 N.am      2 ALA2        0.0000 
     16 N           9.7900   72.1500   50.7200 N.am      2 ALA2        0.0000 
     17 N          10.4800   70.3400   51.5800 N.am      2 ALA2        0.0000 
     18 N          11.1800   78.1600   49.1700 N.am      2 ALA2        0.0000 
     19 N          10.5300   76.9900   49.8400 N.am      2 ALA2        0.0000 
     20 O          12.6600   78.2100   50.6900 O.2       2 ALA2        0.0000 
     21 OD1        12.1800   72.4900   46.9200 O.co2     3 ASP3        0.0000 
     22 OD1        12.2200   69.5000   48.4500 O.co2     3 ASP3        0.0000 
     23 OD1        13.6500   72.5400   48.4400 O.co2     3 ASP3        0.0000 
     24 OD1        13.0000   71.3600   49.1100 O.co2     3 ASP3        0.0000 
     25 OD1        10.3100   72.6300   48.7200 O.co2     3 ASP3        0.0000 
     26 OD1         8.9700   73.2700   48.5300 O.co2     3 ASP3        0.0000 
     27 OD1        12.3500   70.1900   49.7800 O.co2     3 ASP3        0.0000 
     28 OD1        10.4000   76.3000   48.5100 O.co2     3 ASP3        0.0000 
     29 OD1        11.0900   74.4900   49.3800 O.co2     3 ASP3        0.0000 
     30 OD1         9.7500   75.1300   49.1800 O.co2     3 ASP3        0.0000 
     31 OD1        10.4400   73.3200   50.0500 O.co2     3 ASP3        0.0000 
     32 OD1         9.8800   75.8100   50.5100 O.co2     3 ASP3        0.0000 
     33 NZ          9.6600   71.4600   49.3900 N.4       4 LYS4        0.0000 
     34 NZ          9.0100   70.2900   50.0600 N.4       4 LYS4        0.0000 
     35 CZ         15.0400   78.5500   46.8900 C.ar      5 PHE5        0.0000 
     36 CZ         13.7000   79.1900   46.7000 C.ar      5 PHE5        0.0000 
     37 CZ         14.3900   77.3800   47.5600 C.ar      5 PHE5        0.0000 
     38 CZ         13.0500   78.0100   47.3700 C.ar      5 PHE5        0.0000 
     39 CZ         13.7400   76.2000   48.2300 C.ar      5 PHE5        0.0000 
     40 CZ         14.4800   81.0400   47.3600 C.ar      5 PHE5        0.0000 
     41 CZ         13.8300   79.8700   48.0300 C.ar      5 PHE5        0.0000 
     42 CZ         13.1800   78.7000   48.7000 C.ar      5 PHE5        0.0000 
     43 CZ         13.8700   76.8900   49.5600 C.ar      5 PHE5        0.0000 
     44 CZ         14.0000   77.5800   50.8900 C.ar      5 PHE5        0.0000 
     45 CA         12.6600   75.9500   43.3900 C.3       6 GLY6        0.0000 
     46 CA         12.0000   74.7800   44.0600 C.3       6 GLY6        0.0000 
     47 CA         12.7000   72.9700   44.9200 C.3       6 GLY6        0.0000 
     48 CA         10.0100   74.2400   44.5300 C.3       6 GLY6        0.0000 
     49 CA         12.7900   76.6400   44.7100 C.3       6 GLY6        0.0000 
     50 CA         12.1400   75.4700   45.3800 C.3       6 GLY6        0.0000 
     51 CA         14.1700   73.0200   46.4400 C.3       6 GLY6        0.0000 
     52 CA         12.8300   73.6600   46.2500 C.3       6 GLY6        0.0000 
     53 CA         10.1400   74.9300   45.8600 C.3       6 GLY6        0.0000 
     54 CA         10.2200   68.9700   48.9300 C.3       6 GLY6        0.0000 
     55 CA         14.9100   77.8600   45.5700 C.3       6 GLY6        0.0000 
     56 CA         14.2600   76.6900   46.2400 C.3       6 GLY6        0.0000 
     57 CA         12.9200   77.3300   46.0400 C.3       6 GLY6        0.0000 
     58 CA         13.6100   75.5200   46.9100 C.3       6 GLY6        0.0000 
     59 CA         14.3000   73.7100   47.7700 C.3       6 GLY6        0.0000 
     60 CA         10.2700   75.6100   47.1900 C.3       6 GLY6        0.0000 
     61 CA          9.6200   74.4400   47.8600 C.3       6 GLY6        0.0000 
     62 CA         12.4400   73.8600   49.5700 C.3       6 GLY6        0.0000 
     63 CA         13.1300   72.0500   50.4400 C.3       6 GLY6        0.0000 
     64 CA         13.2200   75.7200   50.2300 C.3       6 GLY6        0.0000 
     65 CA         11.8700   76.3500   50.0400 C.3       6 GLY6        0.0000 
     66 CA         12.5700   74.5400   50.9000 C.3       6 GLY6        0.0000 
     67 CA         11.2200   75.1800   50.7100 C.3       6 GLY6        0.0000 
     68 CA         12.0100   77.0400   51.3600 C.3       6 GLY6        0.0000 
     69 DU         11.3500   73.6100   44.7300 H         7 CUB7        0.0000 
     70 DU         10.7900   76.1000   45.1900 H         7 CUB7        0.0000 
     71 DU         11.4800   74.2900   46.0500 H         7 CUB7        0.0000 
     72 DU         13.5700   78.5000   45.3700 H         7 CUB7        0.0000 
     73 DU         12.2700   76.1500   46.7100 H         7 CUB7        0.0000 
     74 DU         10.9200   76.7900   46.5100 H         7 CUB7        0.0000 
     75 DU         12.9600   74.3400   47.5800 H         7 CUB7        0.0000 
     76 DU         11.6100   74.9800   47.3800 H         7 CUB7        0.0000 
     77 DU         12.3100   73.1700   48.2500 H         7 CUB7        0.0000 
     78 DU         10.9600   73.8100   48.0500 H         7 CUB7        0.0000 
     79 DU         11.6600   72.0000   48.9200 H         7 CUB7        0.0000 
     80 DU         10.3500   69.6500   50.2600 H         7 CUB7        0.0000 
     81 DU         11.7000   78.6500   47.1700 H         7 CUB7        0.0000 
     82 DU         12.4000   76.8400   48.0400 H         7 CUB7        0.0000 
     83 DU         11.0500   77.4700   47.8400 H         7 CUB7        0.0000 
     84 DU         13.0900   75.0300   48.9000 H         7 CUB7        0.0000 
     85 DU         11.7400   75.6700   48.7100 H         7 CUB7        0.0000 
     86 DU         12.5300   77.5200   49.3700 H         7 CUB7        0.0000 
@<TRIPOS>BOND
@<TRIPOS>SUBSTRUCTURE
     1 SER1        1 GROUP   
     2 ALA2        2 GROUP   
     3 ASP3       21 GROUP   
     4 LYS4       33 GROUP   
     5 PHE5       35 GROUP   
     6 GLY6       45 GROUP   
     7 CUB7       69 GROUP   
@<TRIPOS>SET

