#    Name: 6gj4_1_GTP_CAVITY_N1_8
#    Modification time : Fri May 22 19:32:24 2020

@<TRIPOS>MOLECULE
6gj4_1_GTP_CAVITY_N1_8
   34     0     6     0     0
SMALL
NO_CHARGES


@<TRIPOS>ATOM
      1 OG         15.0900   75.5700   48.4300 O.3       1 SER1        0.0000 
      2 N          13.6900   69.5600   49.9800 N.am      2 ALA2        0.0000 
      3 N          14.4300   74.4000   49.1000 N.am      2 ALA2        0.0000 
      4 N          13.7800   73.2200   49.7700 N.am      2 ALA2        0.0000 
      5 N          11.7900   72.6800   50.2400 N.am      2 ALA2        0.0000 
      6 N          12.4800   70.8800   51.1100 N.am      2 ALA2        0.0000 
      7 O          12.6600   78.2100   50.6900 O.2       2 ALA2        0.0000 
      8 OD1        13.6500   72.5400   48.4400 O.co2     3 ASP3        0.0000 
      9 OD1        13.0000   71.3600   49.1100 O.co2     3 ASP3        0.0000 
     10 CZ         15.0400   78.5500   46.8900 C.ar      4 PHE5        0.0000 
     11 CZ         13.7000   79.1900   46.7000 C.ar      4 PHE5        0.0000 
     12 CZ         14.3900   77.3800   47.5600 C.ar      4 PHE5        0.0000 
     13 CZ         13.0500   78.0100   47.3700 C.ar      4 PHE5        0.0000 
     14 CZ         13.7400   76.2000   48.2300 C.ar      4 PHE5        0.0000 
     15 CZ         14.4800   81.0400   47.3600 C.ar      4 PHE5        0.0000 
     16 CZ         13.8300   79.8700   48.0300 C.ar      4 PHE5        0.0000 
     17 CZ         13.1800   78.7000   48.7000 C.ar      4 PHE5        0.0000 
     18 CZ         13.8700   76.8900   49.5600 C.ar      4 PHE5        0.0000 
     19 CZ         14.0000   77.5800   50.8900 C.ar      4 PHE5        0.0000 
     20 CA         14.9100   77.8600   45.5700 C.3       5 GLY6        0.0000 
     21 CA         14.2600   76.6900   46.2400 C.3       5 GLY6        0.0000 
     22 CA         13.6100   75.5200   46.9100 C.3       5 GLY6        0.0000 
     23 CA         14.3000   73.7100   47.7700 C.3       5 GLY6        0.0000 
     24 CA         12.4400   73.8600   49.5700 C.3       5 GLY6        0.0000 
     25 CA         13.1300   72.0500   50.4400 C.3       5 GLY6        0.0000 
     26 CA         13.2200   75.7200   50.2300 C.3       5 GLY6        0.0000 
     27 CA         11.8700   76.3500   50.0400 C.3       5 GLY6        0.0000 
     28 CA         12.5700   74.5400   50.9000 C.3       5 GLY6        0.0000 
     29 CA         11.2200   75.1800   50.7100 C.3       5 GLY6        0.0000 
     30 CA         12.0100   77.0400   51.3600 C.3       5 GLY6        0.0000 
     31 DU         12.9600   74.3400   47.5800 H         6 CUB7        0.0000 
     32 DU         12.3100   73.1700   48.2500 H         6 CUB7        0.0000 
     33 DU         13.0900   75.0300   48.9000 H         6 CUB7        0.0000 
     34 DU         12.5300   77.5200   49.3700 H         6 CUB7        0.0000 
@<TRIPOS>BOND
@<TRIPOS>SUBSTRUCTURE
     1 SER1        1 GROUP   
     2 ALA2        2 GROUP   
     3 ASP3        8 GROUP   
     4 PHE5       10 GROUP   
     5 GLY6       20 GROUP   
     6 CUB7       31 GROUP   
@<TRIPOS>SET

