#    Name: 6gj4_3_GTP_CAVITY_N1_8
#    Modification time : Fri May 22 19:32:36 2020

@<TRIPOS>MOLECULE
6gj4_3_GTP_CAVITY_N1_8
   42     0     6     0     0
SMALL
NO_CHARGES


@<TRIPOS>ATOM
      1 OG          7.9400   15.6100  -16.5000 O.3       1 SER1        0.0000 
      2 OG          6.7300   16.9300  -15.3600 O.3       1 SER1        0.0000 
      3 N           9.2900   14.9700  -16.3000 N.am      2 ALA2        0.0000 
      4 N           7.2900   14.4400  -15.8300 N.am      2 ALA2        0.0000 
      5 N           6.6400   13.2600  -15.1600 N.am      2 ALA2        0.0000 
      6 N           7.3300   11.4500  -14.2900 N.am      2 ALA2        0.0000 
      7 N           5.9900   12.0900  -14.4900 N.am      2 ALA2        0.0000 
      8 O           4.6900   19.3700  -16.4300 O.2       2 ALA2        0.0000 
      9 N           4.0400   18.2000  -15.7600 N.am      2 ALA2        0.0000 
     10 O           7.4200   15.1200  -14.5000 O.2       2 ALA2        0.0000 
     11 N           3.3900   17.0300  -15.0900 N.am      2 ALA2        0.0000 
     12 N           4.1700   18.8900  -14.4300 N.am      2 ALA2        0.0000 
     13 OD1         7.1600   13.7500  -17.1500 O.co2     3 ASP3        0.0000 
     14 OD1         6.5100   12.5800  -16.4800 O.co2     3 ASP3        0.0000 
     15 OD1         4.6000   15.7100  -16.2200 O.co2     3 ASP3        0.0000 
     16 CZ          5.8600   21.0300  -19.0900 C.ar      4 PHE5        0.0000 
     17 CZ          9.2400   17.9600  -17.8400 C.ar      4 PHE5        0.0000 
     18 CZ          6.5600   19.2300  -18.2300 C.ar      4 PHE5        0.0000 
     19 CZ          5.2100   19.8600  -18.4200 C.ar      4 PHE5        0.0000 
     20 CZ          8.5900   16.7800  -17.1700 C.ar      4 PHE5        0.0000 
     21 CZ          7.2500   17.4200  -17.3600 C.ar      4 PHE5        0.0000 
     22 CZ          5.9000   18.0500  -17.5600 C.ar      4 PHE5        0.0000 
     23 CZ          6.6000   16.2400  -16.6900 C.ar      4 PHE5        0.0000 
     24 CZ          5.3800   17.5700  -15.5600 C.ar      4 PHE5        0.0000 
     25 CZ          5.5100   18.2500  -14.2300 C.ar      4 PHE5        0.0000 
     26 CA          9.1100   17.2700  -19.1600 C.3       5 GLY6        0.0000 
     27 CA          7.7700   17.9100  -19.3600 C.3       5 GLY6        0.0000 
     28 CA          8.4600   16.1000  -18.4900 C.3       5 GLY6        0.0000 
     29 CA          7.1200   16.7300  -18.6900 C.3       5 GLY6        0.0000 
     30 CA          9.1600   14.2900  -17.6300 C.3       5 GLY6        0.0000 
     31 CA          7.8100   14.9200  -17.8200 C.3       5 GLY6        0.0000 
     32 CA         10.5900   17.3200  -17.6400 C.3       5 GLY6        0.0000 
     33 CA          9.9400   16.1500  -16.9700 C.3       5 GLY6        0.0000 
     34 CA          5.9500   15.0700  -16.0200 C.3       5 GLY6        0.0000 
     35 CA          5.2900   13.9000  -15.3500 C.3       5 GLY6        0.0000 
     36 CA          6.0800   15.7600  -14.6900 C.3       5 GLY6        0.0000 
     37 CA          4.7300   16.3900  -14.8900 C.3       5 GLY6        0.0000 
     38 CA          3.5200   17.7100  -13.7600 C.3       5 GLY6        0.0000 
     39 DU          7.0800   19.7100  -20.2200 H         6 CUB7        0.0000 
     40 DU          6.4200   18.5400  -19.5500 H         6 CUB7        0.0000 
     41 DU          6.4700   15.5600  -18.0200 H         6 CUB7        0.0000 
     42 DU          5.2500   16.8800  -16.8900 H         6 CUB7        0.0000 
@<TRIPOS>BOND
@<TRIPOS>SUBSTRUCTURE
     1 SER1        1 GROUP   
     2 ALA2        3 GROUP   
     3 ASP3       13 GROUP   
     4 PHE5       16 GROUP   
     5 GLY6       26 GROUP   
     6 CUB7       39 GROUP   
@<TRIPOS>SET

