#    Name: 6gj4_5_ACP
#    Modification time : Fri May 22 19:32:40 2020

@<TRIPOS>MOLECULE
6gj4_5_ACP
   45    47     1     0     1
SMALL
NO_CHARGES


@<TRIPOS>ATOM
      1 PG          8.7900   49.5440   93.9150 P.3       1 ACP401      0.0000 
      2 O1G         8.9990   48.7850   92.6600 O.co2     1 ACP401      0.0000 
      3 O2G         7.2130   49.6560   94.2230 O.co2     1 ACP401      0.0000 
      4 O3G         9.4160   51.0180   93.7430 O.co2     1 ACP401      0.0000 
      5 PB         11.0630   49.6510   95.8580 P.3       1 ACP401      0.0000 
      6 O1B        12.3900   49.0010   95.2130 O.co2     1 ACP401      0.0000 
      7 O2B        10.9590   51.0640   95.4300 O.co2     1 ACP401      0.0000 
      8 C3B         9.6080   48.7160   95.3080 C.3       1 ACP401      0.0000 
      9 PA         10.4240   50.6030   98.4510 P.3       1 ACP401      0.0000 
     10 O1A         9.2720   51.2090   97.6880 O.co2     1 ACP401      0.0000 
     11 O2A        11.4670   51.5270   99.0440 O.co2     1 ACP401      0.0000 
     12 O3A        11.1340   49.5300   97.4690 O.3       1 ACP401      0.0000 
     13 O5'         9.7530   49.6990   99.6140 O.3       1 ACP401      0.0000 
     14 C5'         8.4020   49.9270  100.0850 C.3       1 ACP401      0.0000 
     15 C4'         7.9820   48.7020  100.9050 C.3       1 ACP401      0.0000 
     16 O4'         8.8320   48.6530  102.0820 O.3       1 ACP401      0.0000 
     17 C3'         6.6100   48.5780  101.5440 C.3       1 ACP401      0.0000 
     18 O3'         6.3470   47.1730  101.7530 O.3       1 ACP401      0.0000 
     19 C2'         6.6820   49.2100  102.9240 C.3       1 ACP401      0.0000 
     20 O2'         5.9950   48.3750  103.8740 O.3       1 ACP401      0.0000 
     21 C1'         8.1800   49.2630  103.2410 C.3       1 ACP401      0.0000 
     22 N9          8.7410   50.6000  103.6100 N.pl3     1 ACP401      0.0000 
     23 C8          9.7070   51.2860  102.9600 C.2       1 ACP401      0.0000 
     24 N7         10.0060   52.4440  103.6120 N.2       1 ACP401      0.0000 
     25 C5          9.2420   52.5020  104.7190 C.ar      1 ACP401      0.0000 
     26 C6          9.0500   53.4400  105.8500 C.ar      1 ACP401      0.0000 
     27 N6          9.7590   54.5950  105.9370 N.pl3     1 ACP401      0.0000 
     28 N1          8.1430   53.1080  106.8000 N.ar      1 ACP401      0.0000 
     29 C2          7.4260   51.9680  106.7380 C.ar      1 ACP401      0.0000 
     30 N3          7.5600   51.0810  105.7340 N.ar      1 ACP401      0.0000 
     31 C4          8.4290   51.2820  104.7210 C.ar      1 ACP401      0.0000 
     32 H3B1        8.9040   48.6180   96.1370 H         1 ACP401      0.0000 
     33 H3B2        9.9130   47.7120   95.0060 H         1 ACP401      0.0000 
     34 H5'1        7.7250   50.0670   99.2400 H         1 ACP401      0.0000 
     35 H5'2        8.3630   50.8280  100.7000 H         1 ACP401      0.0000 
     36 H4'         8.0360   47.9310  100.1240 H         1 ACP401      0.0000 
     37 H3'         5.8410   49.0470  100.9150 H         1 ACP401      0.0000 
     38 HO3'        5.4920   47.0660  102.1910 H         1 ACP401      0.0000 
     39 H2'         6.2110   50.2020  102.9690 H         1 ACP401      0.0000 
     40 HO2'        5.0550   48.3390  103.6510 H         1 ACP401      0.0000 
     41 H1'         8.3580   48.7120  104.1750 H         1 ACP401      0.0000 
     42 H8         10.1820   50.9580  102.0430 H         1 ACP401      0.0000 
     43 HN61        9.6120   55.2210  106.7150 H         1 ACP401      0.0000 
     44 HN62       10.4340   54.8280  105.2220 H         1 ACP401      0.0000 
     45 H2          6.7150   51.7580  107.5260 H         1 ACP401      0.0000 
@<TRIPOS>BOND
     1    1    2 ar   
     2    1    3 ar   
     3    1    4 ar   
     4    1    8 1    
     5    5    6 ar   
     6    5    7 ar   
     7    5    8 1    
     8    5   12 1    
     9    8   32 1    
    10    8   33 1    
    11    9   10 ar   
    12    9   11 ar   
    13    9   12 1    
    14    9   13 1    
    15   13   14 1    
    16   14   15 1    
    17   14   34 1    
    18   14   35 1    
    19   15   16 1    
    20   15   17 1    
    21   15   36 1    
    22   16   21 1    
    23   17   18 1    
    24   17   19 1    
    25   17   37 1    
    26   18   38 1    
    27   19   20 1    
    28   19   21 1    
    29   19   39 1    
    30   20   40 1    
    31   21   22 1    
    32   21   41 1    
    33   22   23 1    
    34   22   31 1    
    35   23   24 2    
    36   23   42 1    
    37   24   25 1    
    38   25   26 ar   
    39   25   31 ar   
    40   26   27 1    
    41   26   28 ar   
    42   27   43 1    
    43   27   44 1    
    44   28   29 ar   
    45   29   30 ar   
    46   29   45 1    
    47   30   31 ar   
@<TRIPOS>SUBSTRUCTURE
     1 ACP401      1 GROUP   
@<TRIPOS>SET
ATOM$ORANGE STATIC     ATOMS   COLORGROUP SYSTEM 
22 8 8 14 14 15 15 17 17 19 19 21 21 23 23 25 25 26 \
26 29 29 31 31 

