#    Name: 5zy9_1_2CR
#    Modification time : Fri May 22 19:32:03 2020

@<TRIPOS>MOLECULE
5zy9_1_2CR
   35    36     1     0     0
SMALL
NO_CHARGES


@<TRIPOS>ATOM
      1 C1        -20.0290   25.7680   55.3010           1 2CR501      0.0000 
      2 C2        -19.5150   24.6920   56.2020           1 2CR501      0.0000 
      3 C3        -20.5150   23.5750   56.1450           1 2CR501      0.0000 
      4 C4        -21.2750   23.7490   54.8400           1 2CR501      0.0000 
      5 C5        -21.3060   25.2510   54.6270           1 2CR501      0.0000 
      6 C6        -20.1460   27.1940   55.8470           1 2CR501      0.0000 
      7 C7        -20.7600   27.9720   54.6750           1 2CR501      0.0000 
      8 C8        -20.0160   29.0900   53.9240           1 2CR501      0.0000 
      9 C9        -19.3190   29.0040   52.8140           1 2CR501      0.0000 
     10 C10       -18.8470   30.3070   52.4410           1 2CR501      0.0000 
     11 C11       -18.1480   31.0590   51.5480           1 2CR501      0.0000 
     12 C12       -17.6050   30.8770   50.4350           1 2CR501      0.0000 
     13 C13       -18.1380   32.4950   52.0750           1 2CR501      0.0000 
     14 C14       -16.7500   32.9120   52.4640           1 2CR501      0.0000 
     15 C15       -16.7430   34.3620   53.0130           1 2CR501      0.0000 
     16 C16       -16.2240   31.8980   53.4620           1 2CR501      0.0000 
     17 C17       -14.8560   32.2360   54.0080           1 2CR501      0.0000 
     18 C18       -13.8080   32.2950   52.8790           1 2CR501      0.0000 
     19 C19       -14.3550   31.2410   55.0890           1 2CR501      0.0000 
     20 C20       -15.1280   31.1900   56.4280           1 2CR501      0.0000 
     21 C21       -15.0570   32.5390   57.1170           1 2CR501      0.0000 
     22 C22       -14.5740   30.0620   57.3080           1 2CR501      0.0000 
     23 C23       -15.3270   29.8120   58.6100           1 2CR501      0.0000 
     24 C24       -14.5940   28.7720   59.4190           1 2CR501      0.0000 
     25 C25       -16.7820   29.3660   58.3900           1 2CR501      0.0000 
     26 C26       -16.9120   28.3810   57.1970           1 2CR501      0.0000 
     27 C27       -18.3770   28.0870   57.1090           1 2CR501      0.0000 
     28 O28       -19.1570   28.3550   57.9520           1 2CR501      0.0000 
     29 O29       -18.8100   27.4890   55.9340           1 2CR501      0.0000 
     30 C30       -18.2570   24.0680   55.6760           1 2CR501      0.0000 
     31 O31       -17.2900   23.8970   56.4850           1 2CR501      0.0000 
     32 O32       -18.1910   23.7300   54.4610           1 2CR501      0.0000 
     33 O33       -18.8540   33.3930   51.2480           1 2CR501      0.0000 
     34 O34       -17.4990   30.5470   58.0560           1 2CR501      0.0000 
     35 N35       -17.1950   30.8780   49.3160           1 2CR501      0.0000 
@<TRIPOS>BOND
     1    1    2 du   
     2    1    5 du   
     3    1    6 du   
     4    2    3 du   
     5    2   30 du   
     6    3    4 du   
     7    4    5 du   
     8    6    7 du   
     9    6   29 du   
    10    7    8 du   
    11    8    9 du   
    12    9   10 du   
    13   10   11 du   
    14   11   12 du   
    15   11   13 du   
    16   12   35 du   
    17   13   14 du   
    18   13   33 du   
    19   14   15 du   
    20   14   16 du   
    21   16   17 du   
    22   17   18 du   
    23   17   19 du   
    24   19   20 du   
    25   20   21 du   
    26   20   22 du   
    27   22   23 du   
    28   23   24 du   
    29   23   25 du   
    30   25   26 du   
    31   25   34 du   
    32   26   27 du   
    33   27   28 du   
    34   27   29 du   
    35   30   31 du   
    36   30   32 du   
@<TRIPOS>SUBSTRUCTURE
     1 2CR501      1 GROUP   
@<TRIPOS>SET

