#    Name: 5zy9_3_2CR
#    Modification time : Fri May 22 19:32:13 2020

@<TRIPOS>MOLECULE
5zy9_3_2CR
   35    36     1     0     0
SMALL
NO_CHARGES


@<TRIPOS>ATOM
      1 C1         10.7630   22.9790   14.9410           1 2CR801      0.0000 
      2 C2          9.4070   22.7500   15.6040           1 2CR801      0.0000 
      3 C3          8.8590   24.1230   15.9360           1 2CR801      0.0000 
      4 C4          9.5310   25.0150   14.8600           1 2CR801      0.0000 
      5 C5         10.9620   24.4880   14.6930           1 2CR801      0.0000 
      6 C6         11.8710   22.3230   15.7390           1 2CR801      0.0000 
      7 C7         13.1740   22.6980   15.0910           1 2CR801      0.0000 
      8 C8         13.8630   21.6260   14.2510           1 2CR801      0.0000 
      9 C9         13.8350   21.3490   12.9510           1 2CR801      0.0000 
     10 C10        14.7830   20.2830   12.6660           1 2CR801      0.0000 
     11 C11        15.4210   19.4630   11.7780           1 2CR801      0.0000 
     12 C12        15.3230   19.1600   10.5810           1 2CR801      0.0000 
     13 C13        16.5060   18.6420   12.4960           1 2CR801      0.0000 
     14 C14        16.1810   17.1540   12.5720           1 2CR801      0.0000 
     15 C15        17.2570   16.4700   13.4260           1 2CR801      0.0000 
     16 C16        14.7740   16.9080   13.1810           1 2CR801      0.0000 
     17 C17        14.4050   15.4250   13.3570           1 2CR801      0.0000 
     18 C18        14.3320   14.8590   11.9380           1 2CR801      0.0000 
     19 C19        13.0930   15.3130   14.1420           1 2CR801      0.0000 
     20 C20        13.2210   15.7370   15.6650           1 2CR801      0.0000 
     21 C21        14.0500   14.7780   16.5520           1 2CR801      0.0000 
     22 C22        11.8080   15.9000   16.1870           1 2CR801      0.0000 
     23 C23        11.6790   16.4240   17.6030           1 2CR801      0.0000 
     24 C24        10.2880   16.1290   18.1370           1 2CR801      0.0000 
     25 C25        11.8710   17.9320   17.8040           1 2CR801      0.0000 
     26 C26        11.3130   18.6940   16.6420           1 2CR801      0.0000 
     27 C27        11.6790   20.1610   16.8100           1 2CR801      0.0000 
     28 O28        11.9490   20.6390   17.8850           1 2CR801      0.0000 
     29 O29        11.7110   20.9600   15.6030           1 2CR801      0.0000 
     30 C30         8.4190   22.0750   14.6500           1 2CR801      0.0000 
     31 O31         8.4780   22.2070   13.4020           1 2CR801      0.0000 
     32 O32         7.5020   21.3820   15.1610           1 2CR801      0.0000 
     33 O33        17.8200   18.9560   12.0170           1 2CR801      0.0000 
     34 O34        13.2570   18.2440   17.8590           1 2CR801      0.0000 
     35 N35        15.3940   18.8460    9.4530           1 2CR801      0.0000 
@<TRIPOS>BOND
     1    1    2 du   
     2    1    5 du   
     3    1    6 du   
     4    2    3 du   
     5    2   30 du   
     6    3    4 du   
     7    4    5 du   
     8    6    7 du   
     9    6   29 du   
    10    7    8 du   
    11    8    9 du   
    12    9   10 du   
    13   10   11 du   
    14   11   12 du   
    15   11   13 du   
    16   12   35 du   
    17   13   14 du   
    18   13   33 du   
    19   14   15 du   
    20   14   16 du   
    21   16   17 du   
    22   17   18 du   
    23   17   19 du   
    24   19   20 du   
    25   20   21 du   
    26   20   22 du   
    27   22   23 du   
    28   23   24 du   
    29   23   25 du   
    30   25   26 du   
    31   25   34 du   
    32   26   27 du   
    33   27   28 du   
    34   27   29 du   
    35   30   31 du   
    36   30   32 du   
@<TRIPOS>SUBSTRUCTURE
     1 2CR801      1 GROUP   
@<TRIPOS>SET

