#    Name: 5zy9_2_2CR
#    Modification time : Fri May 22 19:32:08 2020

@<TRIPOS>MOLECULE
5zy9_2_2CR
   35    36     1     0     0
SMALL
NO_CHARGES


@<TRIPOS>ATOM
      1 C1         -3.8500    2.9000   31.3500           1 2CR501      0.0000 
      2 C2         -4.2250    3.9810   30.3900           1 2CR501      0.0000 
      3 C3         -5.6560    3.6810   30.0040           1 2CR501      0.0000 
      4 C4         -6.2740    2.8060   31.1230           1 2CR501      0.0000 
      5 C5         -5.0720    1.9930   31.5510           1 2CR501      0.0000 
      6 C6         -2.5430    2.1470   31.0510           1 2CR501      0.0000 
      7 C7         -2.5810    1.1090   32.1820           1 2CR501      0.0000 
      8 C8         -1.3650    0.9780   33.0480           1 2CR501      0.0000 
      9 C9         -1.3180    1.2640   34.3410           1 2CR501      0.0000 
     10 C10         0.0140    0.9350   34.8110           1 2CR501      0.0000 
     11 C11         0.7920    0.9050   35.9360           1 2CR501      0.0000 
     12 C12         0.5960    1.1840   37.1690           1 2CR501      0.0000 
     13 C13         2.1390    0.3020   35.6360           1 2CR501      0.0000 
     14 C14         3.2290    1.3540   35.7670           1 2CR501      0.0000 
     15 C15         4.5950    0.7100   35.5160           1 2CR501      0.0000 
     16 C16         3.0230    2.4330   34.7180           1 2CR501      0.0000 
     17 C17         4.1440    3.5020   34.6530           1 2CR501      0.0000 
     18 C18         4.3490    4.1040   36.0440           1 2CR501      0.0000 
     19 C19         3.8380    4.6470   33.6520           1 2CR501      0.0000 
     20 C20         3.7090    4.0600   32.2380           1 2CR501      0.0000 
     21 C21         5.0890    3.5020   31.8500           1 2CR501      0.0000 
     22 C22         3.1430    5.1280   31.3240           1 2CR501      0.0000 
     23 C23         3.0280    4.7720   29.8670           1 2CR501      0.0000 
     24 C24         2.7610    6.0000   29.0120           1 2CR501      0.0000 
     25 C25         1.8440    3.8940   29.6120           1 2CR501      0.0000 
     26 C26         0.6580    4.2880   30.4870           1 2CR501      0.0000 
     27 C27        -0.4740    3.2940   30.2460           1 2CR501      0.0000 
     28 O28        -0.5000    2.6100   29.2680           1 2CR501      0.0000 
     29 O29        -1.5100    3.1010   31.2260           1 2CR501      0.0000 
     30 C30        -4.1880    5.2840   31.1860           1 2CR501      0.0000 
     31 O31        -4.6420    5.3100   32.3730           1 2CR501      0.0000 
     32 O32        -3.7570    6.3300   30.6410           1 2CR501      0.0000 
     33 O33         2.2920   -0.8420   36.5110           1 2CR501      0.0000 
     34 O34         2.2530    2.5730   29.8140           1 2CR501      0.0000 
     35 N35         0.5890    1.4620   38.3230           1 2CR501      0.0000 
@<TRIPOS>BOND
     1    1    2 du   
     2    1    5 du   
     3    1    6 du   
     4    2    3 du   
     5    2   30 du   
     6    3    4 du   
     7    4    5 du   
     8    6    7 du   
     9    6   29 du   
    10    7    8 du   
    11    8    9 du   
    12    9   10 du   
    13   10   11 du   
    14   11   12 du   
    15   11   13 du   
    16   12   35 du   
    17   13   14 du   
    18   13   33 du   
    19   14   15 du   
    20   14   16 du   
    21   16   17 du   
    22   17   18 du   
    23   17   19 du   
    24   19   20 du   
    25   20   21 du   
    26   20   22 du   
    27   22   23 du   
    28   23   24 du   
    29   23   25 du   
    30   25   26 du   
    31   25   34 du   
    32   26   27 du   
    33   27   28 du   
    34   27   29 du   
    35   30   31 du   
    36   30   32 du   
@<TRIPOS>SUBSTRUCTURE
     1 2CR501      1 GROUP   
@<TRIPOS>SET

