#    Name: 6hsh_26_DMF
#    Modification time : Fri May 22 19:24:40 2020

@<TRIPOS>MOLECULE
6hsh_26_DMF
    5     4     1     0     0
SMALL
NO_CHARGES


@<TRIPOS>ATOM
      1 C1         69.5130   33.9480   43.1310 C.3       1 DMF510      0.0000 
      2 C2         70.0470   33.0730   40.8070 C.3       1 DMF510      0.0000 
      3 C          70.5140   35.3740   41.4710 C.2       1 DMF510      0.0000 
      4 O          69.7740   36.3560   41.5420 O.2       1 DMF510      0.0000 
      5 N          70.0370   34.1730   41.7810 N.am      1 DMF510      0.0000 
@<TRIPOS>BOND
     1    1    5 1    
     2    2    5 1    
     3    3    4 2    
     4    3    5 am   
@<TRIPOS>SUBSTRUCTURE
     1 DMF510      1 GROUP   
@<TRIPOS>SET

