#    Name: 6hsh_26_DMF_CAVITY_N1_ALL
#    Modification time : Fri May 22 19:24:40 2020

@<TRIPOS>MOLECULE
6hsh_26_DMF_CAVITY_N1_ALL
   72     0     6     0     0
SMALL
NO_CHARGES


@<TRIPOS>ATOM
      1 OG         74.1800   33.8000   40.9800 O.3       1 SER1        0.0000 
      2 OG         73.5300   34.8600   42.7000 O.3       1 SER1        0.0000 
      3 OG         74.8700   34.4300   42.1600 O.3       1 SER1        0.0000 
      4 OG         73.6400   36.1500   41.9500 O.3       1 SER1        0.0000 
      5 OG         74.2200   35.4900   43.8800 O.3       1 SER1        0.0000 
      6 OG         75.5500   35.0600   43.3400 O.3       1 SER1        0.0000 
      7 OG         76.8800   34.6300   42.8000 O.3       1 SER1        0.0000 
      8 OG         74.3200   36.7800   43.1300 O.3       1 SER1        0.0000 
      9 OG         74.9000   36.1100   45.0600 O.3       1 SER1        0.0000 
     10 OG         76.3400   36.9800   43.7700 O.3       1 SER1        0.0000 
     11 OG         75.4700   35.4500   46.9900 O.3       1 SER1        0.0000 
     12 OG         75.5800   36.7400   46.2400 O.3       1 SER1        0.0000 
     13 N          69.4000   33.1600   42.1800 N.am      2 ALA2        0.0000 
     14 N          69.9700   32.5000   44.1100 N.am      2 ALA2        0.0000 
     15 N          68.7500   34.2200   43.9000 N.am      2 ALA2        0.0000 
     16 N          70.0800   33.7900   43.3600 N.am      2 ALA2        0.0000 
     17 N          71.5200   34.6600   42.0700 N.am      2 ALA2        0.0000 
     18 N          70.3000   36.3800   41.8600 N.am      2 ALA2        0.0000 
     19 N          71.6300   35.9500   41.3100 N.am      2 ALA2        0.0000 
     20 N          69.4300   34.8500   45.0800 N.am      2 ALA2        0.0000 
     21 N          69.6500   37.4300   43.5800 N.am      2 ALA2        0.0000 
     22 N          70.9800   37.0000   43.0300 N.am      2 ALA2        0.0000 
     23 N          72.3100   36.5800   42.4900 N.am      2 ALA2        0.0000 
     24 N          72.9900   37.2100   43.6700 N.am      2 ALA2        0.0000 
     25 N          71.7700   38.9300   43.4600 N.am      2 ALA2        0.0000 
     26 NZ         70.2200   36.7700   45.5100 N.4       3 LYS4        0.0000 
     27 NZ         70.3300   38.0600   44.7600 N.4       3 LYS4        0.0000 
     28 NZ         71.6600   37.6300   44.2100 N.4       3 LYS4        0.0000 
     29 NZ         70.9000   37.4000   46.6900 N.4       3 LYS4        0.0000 
     30 NZ         72.3400   38.2600   45.3900 N.4       3 LYS4        0.0000 
     31 CZ         70.7300   32.7300   41.6400 C.ar      4 PHE5        0.0000 
     32 CZ         72.0600   32.3100   41.1000 C.ar      4 PHE5        0.0000 
     33 CZ         73.3900   31.8800   40.5600 C.ar      4 PHE5        0.0000 
     34 CZ         69.5100   34.4500   41.4300 C.ar      4 PHE5        0.0000 
     35 CZ         70.8400   34.0300   40.8900 C.ar      4 PHE5        0.0000 
     36 CZ         70.9500   35.3200   40.1300 C.ar      4 PHE5        0.0000 
     37 CZ         71.4100   33.3600   42.8200 C.ar      4 PHE5        0.0000 
     38 CZ         72.7400   32.9400   42.2800 C.ar      4 PHE5        0.0000 
     39 CZ         74.0800   32.5100   41.7300 C.ar      4 PHE5        0.0000 
     40 CZ         68.8600   35.5100   43.1500 C.ar      4 PHE5        0.0000 
     41 CZ         72.8500   34.2300   41.5200 C.ar      4 PHE5        0.0000 
     42 CZ         68.9700   36.8000   42.4000 C.ar      4 PHE5        0.0000 
     43 CZ         72.9600   35.5200   40.7700 C.ar      4 PHE5        0.0000 
     44 CZ         78.7800   33.5400   44.1900 C.ar      4 PHE5        0.0000 
     45 CZ         72.2300   36.9700   46.1400 C.ar      4 PHE5        0.0000 
     46 CZ         73.5700   36.5400   45.6000 C.ar      4 PHE5        0.0000 
     47 CZ         74.1400   35.8800   47.5300 C.ar      4 PHE5        0.0000 
     48 CA         69.6200   35.7500   40.6800 C.3       5 GLY6        0.0000 
     49 CA         75.4100   32.0800   41.1900 C.3       5 GLY6        0.0000 
     50 CA         77.4500   33.9700   44.7300 C.3       5 GLY6        0.0000 
     51 CA         76.2300   35.6900   44.5200 C.3       5 GLY6        0.0000 
     52 CA         77.5600   35.2600   43.9800 C.3       5 GLY6        0.0000 
     53 CA         73.6700   37.8400   44.8500 C.3       5 GLY6        0.0000 
     54 CA         75.0100   37.4100   44.3100 C.3       5 GLY6        0.0000 
     55 CA         76.8000   35.0200   46.4500 C.3       5 GLY6        0.0000 
     56 CA         76.9100   36.3200   45.7000 C.3       5 GLY6        0.0000 
     57 CA         75.6900   38.0400   45.4900 C.3       5 GLY6        0.0000 
     58 DU         75.3000   30.7900   41.9400 H         6 CUB7        0.0000 
     59 DU         70.1900   35.0800   42.6100 H         6 CUB7        0.0000 
     60 DU         70.7600   34.4200   44.5400 H         6 CUB7        0.0000 
     61 DU         72.0900   33.9900   44.0000 H         6 CUB7        0.0000 
     62 DU         73.4300   33.5600   43.4600 H         6 CUB7        0.0000 
     63 DU         74.7600   33.1400   42.9100 H         6 CUB7        0.0000 
     64 DU         69.5400   36.1400   44.3300 H         6 CUB7        0.0000 
     65 DU         70.8700   35.7100   43.7900 H         6 CUB7        0.0000 
     66 DU         72.2000   35.2800   43.2400 H         6 CUB7        0.0000 
     67 DU         74.1100   34.1900   44.6300 H         6 CUB7        0.0000 
     68 DU         75.4400   33.7700   44.0900 H         6 CUB7        0.0000 
     69 DU         71.5500   36.3400   44.9700 H         6 CUB7        0.0000 
     70 DU         72.8800   35.9100   44.4200 H         6 CUB7        0.0000 
     71 DU         74.7900   34.8200   45.8100 H         6 CUB7        0.0000 
     72 DU         76.1200   34.3900   45.2700 H         6 CUB7        0.0000 
@<TRIPOS>BOND
@<TRIPOS>SUBSTRUCTURE
     1 SER1        1 GROUP   
     2 ALA2       13 GROUP   
     3 LYS4       26 GROUP   
     4 PHE5       31 GROUP   
     5 GLY6       48 GROUP   
     6 CUB7       58 GROUP   
@<TRIPOS>SET

