#    Name: 6hsh_9_DMF_CAVITY_N1_4
#    Modification time : Fri May 22 19:24:27 2020

@<TRIPOS>MOLECULE
6hsh_9_DMF_CAVITY_N1_4
   28     0     5     0     0
SMALL
NO_CHARGES


@<TRIPOS>ATOM
      1 N          78.4800   44.3200   80.6000 N.am      1 ALA2        0.0000 
      2 NZ         77.0400   43.4500   81.9000 N.4       2 LYS4        0.0000 
      3 NZ         77.1500   44.7400   81.1400 N.4       2 LYS4        0.0000 
      4 NZ         75.9300   46.4600   80.9300 N.4       2 LYS4        0.0000 
      5 NZ         76.1700   41.9200   85.1200 N.4       2 LYS4        0.0000 
      6 NZ         76.2800   43.2100   84.3700 N.4       2 LYS4        0.0000 
      7 NZ         76.3900   44.5100   83.6200 N.4       2 LYS4        0.0000 
      8 NZ         77.7200   44.0800   83.0800 N.4       2 LYS4        0.0000 
      9 NZ         79.0500   43.6500   82.5300 N.4       2 LYS4        0.0000 
     10 NZ         77.9400   46.6600   81.5700 N.4       2 LYS4        0.0000 
     11 NZ         77.0700   45.1300   84.8000 N.4       2 LYS4        0.0000 
     12 CZ         75.2800   47.5200   82.6500 C.ar      3 PHE5        0.0000 
     13 CZ         76.6100   47.0900   82.1100 C.ar      3 PHE5        0.0000 
     14 CZ         77.2900   47.7200   83.2900 C.ar      3 PHE5        0.0000 
     15 CZ         78.6200   47.2900   82.7500 C.ar      3 PHE5        0.0000 
     16 CZ         77.8600   47.0600   85.2200 C.ar      3 PHE5        0.0000 
     17 CA         75.7100   43.8800   82.4400 C.3       4 GLY6        0.0000 
     18 CA         74.4800   45.6000   82.2300 C.3       4 GLY6        0.0000 
     19 CA         75.8200   45.1700   81.6900 C.3       4 GLY6        0.0000 
     20 CA         77.8300   45.3700   82.3200 C.3       4 GLY6        0.0000 
     21 CA         79.1600   44.9400   81.7800 C.3       4 GLY6        0.0000 
     22 CA         78.5100   46.0000   83.5000 C.3       4 GLY6        0.0000 
     23 CA         79.1900   46.6300   84.6800 C.3       4 GLY6        0.0000 
     24 DU         75.0600   44.9300   84.1600 H         5 CUB7        0.0000 
     25 DU         75.1700   46.2300   83.4100 H         5 CUB7        0.0000 
     26 DU         76.5000   45.8000   82.8600 H         5 CUB7        0.0000 
     27 DU         75.8500   46.8500   84.5900 H         5 CUB7        0.0000 
     28 DU         77.1800   46.4300   84.0400 H         5 CUB7        0.0000 
@<TRIPOS>BOND
@<TRIPOS>SUBSTRUCTURE
     1 ALA2        1 GROUP   
     2 LYS4        2 GROUP   
     3 PHE5       12 GROUP   
     4 GLY6       17 GROUP   
     5 CUB7       24 GROUP   
@<TRIPOS>SET

