#    Name: 6hsh_9_DMF_CAVITY_N1_6
#    Modification time : Fri May 22 19:24:27 2020

@<TRIPOS>MOLECULE
6hsh_9_DMF_CAVITY_N1_6
   60     0     5     0     0
SMALL
NO_CHARGES


@<TRIPOS>ATOM
      1 N          78.4800   44.3200   80.6000 N.am      1 ALA2        0.0000 
      2 NZ         75.3500   47.1300   79.0000 N.4       2 LYS4        0.0000 
      3 NZ         76.8200   40.8600   83.4000 N.4       2 LYS4        0.0000 
      4 NZ         76.9300   42.1600   82.6500 N.4       2 LYS4        0.0000 
      5 NZ         78.2600   41.7300   82.1100 N.4       2 LYS4        0.0000 
      6 NZ         77.0400   43.4500   81.9000 N.4       2 LYS4        0.0000 
      7 NZ         77.1500   44.7400   81.1400 N.4       2 LYS4        0.0000 
      8 NZ         75.9300   46.4600   80.9300 N.4       2 LYS4        0.0000 
      9 NZ         76.0300   47.7600   80.1800 N.4       2 LYS4        0.0000 
     10 NZ         77.4000   40.2000   85.3300 N.4       2 LYS4        0.0000 
     11 NZ         78.7300   39.7700   84.7900 N.4       2 LYS4        0.0000 
     12 NZ         76.1700   41.9200   85.1200 N.4       2 LYS4        0.0000 
     13 NZ         76.2800   43.2100   84.3700 N.4       2 LYS4        0.0000 
     14 NZ         76.3900   44.5100   83.6200 N.4       2 LYS4        0.0000 
     15 NZ         77.7200   44.0800   83.0800 N.4       2 LYS4        0.0000 
     16 NZ         79.0500   43.6500   82.5300 N.4       2 LYS4        0.0000 
     17 NZ         77.9400   46.6600   81.5700 N.4       2 LYS4        0.0000 
     18 NZ         78.0800   40.8300   86.5100 N.4       2 LYS4        0.0000 
     19 NZ         77.0700   45.1300   84.8000 N.4       2 LYS4        0.0000 
     20 CZ         74.7000   48.1800   80.7200 C.ar      3 PHE5        0.0000 
     21 CZ         75.2800   47.5200   82.6500 C.ar      3 PHE5        0.0000 
     22 CZ         76.6100   47.0900   82.1100 C.ar      3 PHE5        0.0000 
     23 CZ         77.2900   47.7200   83.2900 C.ar      3 PHE5        0.0000 
     24 CZ         78.6200   47.2900   82.7500 C.ar      3 PHE5        0.0000 
     25 CZ         77.8600   47.0600   85.2200 C.ar      3 PHE5        0.0000 
     26 CA         73.5900   42.3800   82.5500 C.3       4 GLY6        0.0000 
     27 CA         74.9200   41.9500   82.0100 C.3       4 GLY6        0.0000 
     28 CA         73.6900   43.6800   81.8000 C.3       4 GLY6        0.0000 
     29 CA         76.3600   42.8200   80.7200 C.3       4 GLY6        0.0000 
     30 CA         72.4700   45.4000   81.5900 C.3       4 GLY6        0.0000 
     31 CA         73.8000   44.9700   81.0500 C.3       4 GLY6        0.0000 
     32 CA         76.4700   44.1100   79.9600 C.3       4 GLY6        0.0000 
     33 CA         73.9100   46.2600   80.3000 C.3       4 GLY6        0.0000 
     34 CA         75.2400   45.8300   79.7500 C.3       4 GLY6        0.0000 
     35 CA         75.3800   40.0000   84.7000 C.3       4 GLY6        0.0000 
     36 CA         78.1500   40.4400   82.8600 C.3       4 GLY6        0.0000 
     37 CA         75.7100   43.8800   82.4400 C.3       4 GLY6        0.0000 
     38 CA         78.3700   43.0200   81.3500 C.3       4 GLY6        0.0000 
     39 CA         73.1500   46.0200   82.7700 C.3       4 GLY6        0.0000 
     40 CA         74.4800   45.6000   82.2300 C.3       4 GLY6        0.0000 
     41 CA         75.8200   45.1700   81.6900 C.3       4 GLY6        0.0000 
     42 CA         73.2600   47.3200   82.0200 C.3       4 GLY6        0.0000 
     43 CA         77.8300   45.3700   82.3200 C.3       4 GLY6        0.0000 
     44 CA         79.1600   44.9400   81.7800 C.3       4 GLY6        0.0000 
     45 CA         73.9400   47.9500   83.2000 C.3       4 GLY6        0.0000 
     46 CA         78.5100   46.0000   83.5000 C.3       4 GLY6        0.0000 
     47 CA         79.1900   46.6300   84.6800 C.3       4 GLY6        0.0000 
     48 DU         74.0200   47.5500   79.5400 H         5 CUB7        0.0000 
     49 DU         76.7100   39.5700   84.1500 H         5 CUB7        0.0000 
     50 DU         75.4900   41.2900   83.9400 H         5 CUB7        0.0000 
     51 DU         74.2700   43.0100   83.7300 H         5 CUB7        0.0000 
     52 DU         75.6000   42.5800   83.1900 H         5 CUB7        0.0000 
     53 DU         73.0400   44.7300   83.5200 H         5 CUB7        0.0000 
     54 DU         74.3800   44.3000   82.9800 H         5 CUB7        0.0000 
     55 DU         74.5900   46.8900   81.4800 H         5 CUB7        0.0000 
     56 DU         75.0600   44.9300   84.1600 H         5 CUB7        0.0000 
     57 DU         75.1700   46.2300   83.4100 H         5 CUB7        0.0000 
     58 DU         76.5000   45.8000   82.8600 H         5 CUB7        0.0000 
     59 DU         75.8500   46.8500   84.5900 H         5 CUB7        0.0000 
     60 DU         77.1800   46.4300   84.0400 H         5 CUB7        0.0000 
@<TRIPOS>BOND
@<TRIPOS>SUBSTRUCTURE
     1 ALA2        1 GROUP   
     2 LYS4        2 GROUP   
     3 PHE5       20 GROUP   
     4 GLY6       26 GROUP   
     5 CUB7       48 GROUP   
@<TRIPOS>SET

