#    Name: 6hsh_9_DMF
#    Modification time : Fri May 22 19:24:27 2020

@<TRIPOS>MOLECULE
6hsh_9_DMF
    5     4     1     0     0
SMALL
NO_CHARGES


@<TRIPOS>ATOM
      1 C1         76.5850   47.2180   86.9790 C.3       1 DMF508      0.0000 
      2 C2         77.5300   45.0550   86.0250 C.3       1 DMF508      0.0000 
      3 C          77.6100   47.1250   84.7710 C.2       1 DMF508      0.0000 
      4 O          77.9050   46.4860   83.7580 O.2       1 DMF508      0.0000 
      5 N          77.2590   46.4930   85.8890 N.am      1 DMF508      0.0000 
@<TRIPOS>BOND
     1    1    5 1    
     2    2    5 1    
     3    3    4 2    
     4    3    5 am   
@<TRIPOS>SUBSTRUCTURE
     1 DMF508      1 GROUP   
@<TRIPOS>SET

