#    Name: 6qyq_1_FFO
#    Modification time : Fri May 22 19:40:15 2020

@<TRIPOS>MOLECULE
6qyq_1_FFO
   34    36     1     0     0
SMALL
NO_CHARGES


@<TRIPOS>ATOM
      1 N1        -18.3210   33.5820   21.9680 N.2       1 FFO402      0.0000 
      2 C2        -19.0410   33.1240   23.0360 C.2       1 FFO402      0.0000 
      3 NA2       -19.2320   33.9310   24.0740 N.pl3     1 FFO402      0.0000 
      4 N3        -19.5380   31.8910   23.0800 N.am      1 FFO402      0.0000 
      5 C4        -19.3500   31.0380   22.0270 C.2       1 FFO402      0.0000 
      6 O4        -19.8570   29.9060   22.1360 O.2       1 FFO402      0.0000 
      7 C4A       -18.6210   31.4520   20.8860 C.2       1 FFO402      0.0000 
      8 N5        -18.4100   30.6260   19.7370 N.am      1 FFO402      0.0000 
      9 C6        -18.3050   31.3690   18.4230 C.3       1 FFO402      0.0000 
     10 C7        -17.3000   32.5270   18.4980 C.3       1 FFO402      0.0000 
     11 N8        -17.3720   33.2280   19.7770 N.pl3     1 FFO402      0.0000 
     12 C8A       -18.0920   32.7690   20.8740 C.2       1 FFO402      0.0000 
     13 C9        -19.6670   31.8700   17.9110 C.3       1 FFO402      0.0000 
     14 N10       -20.7670   31.0600   18.4070 N.pl3     1 FFO402      0.0000 
     15 C11       -24.5000   32.5030   19.4900 C.ar      1 FFO402      0.0000 
     16 C12       -23.3740   33.3100   19.6200 C.ar      1 FFO402      0.0000 
     17 C13       -22.1290   32.8400   19.2640 C.ar      1 FFO402      0.0000 
     18 C14       -21.9950   31.5460   18.7520 C.ar      1 FFO402      0.0000 
     19 C15       -23.1260   30.7350   18.6080 C.ar      1 FFO402      0.0000 
     20 C16       -24.3660   31.2140   18.9800 C.ar      1 FFO402      0.0000 
     21 C         -25.8390   33.0730   19.8510 C.2       1 FFO402      0.0000 
     22 O         -25.9270   34.2170   20.2980 O.2       1 FFO402      0.0000 
     23 N         -26.9060   32.3060   19.5960 N.am      1 FFO402      0.0000 
     24 CA        -28.2830   32.7790   19.7090 C.3       1 FFO402      0.0000 
     25 CB        -28.9620   32.8100   18.3350 C.3       1 FFO402      0.0000 
     26 CG        -30.0720   33.8330   18.2190 C.3       1 FFO402      0.0000 
     27 CD        -30.2100   34.3820   16.8070 C.2       1 FFO402      0.0000 
     28 OE1       -29.2080   34.9390   16.2870 O.co2     1 FFO402      0.0000 
     29 OE2       -31.3120   34.2300   16.2190 O.co2     1 FFO402      0.0000 
     30 CT        -29.0700   31.8580   20.6600 C.2       1 FFO402      0.0000 
     31 O1        -29.0700   30.6130   20.4080 O.co2     1 FFO402      0.0000 
     32 O2        -29.6430   32.4080   21.6180 O.co2     1 FFO402      0.0000 
     33 C5A       -18.3170   29.2470   19.8270 C.2       1 FFO402      0.0000 
     34 O5B       -18.0320   28.5090   18.8810 O.2       1 FFO402      0.0000 
@<TRIPOS>BOND
     1    1    2 2    
     2    1   12 1    
     3    2    3 1    
     4    2    4 1    
     5    4    5 am   
     6    5    6 2    
     7    5    7 1    
     8    7    8 1    
     9    7   12 2    
    10    8    9 1    
    11    8   33 am   
    12    9   10 1    
    13    9   13 1    
    14   10   11 1    
    15   11   12 1    
    16   13   14 1    
    17   14   18 1    
    18   15   16 ar   
    19   15   20 ar   
    20   15   21 1    
    21   16   17 ar   
    22   17   18 ar   
    23   18   19 ar   
    24   19   20 ar   
    25   21   22 2    
    26   21   23 am   
    27   23   24 1    
    28   24   25 1    
    29   24   30 1    
    30   25   26 1    
    31   26   27 1    
    32   27   28 ar   
    33   27   29 ar   
    34   30   31 ar   
    35   30   32 ar   
    36   33   34 2    
@<TRIPOS>SUBSTRUCTURE
     1 FFO402      1 GROUP   
@<TRIPOS>SET

