#    Name: 6qyq_2_FFO
#    Modification time : Fri May 22 19:40:18 2020

@<TRIPOS>MOLECULE
6qyq_2_FFO
   34    36     1     0     0
SMALL
NO_CHARGES


@<TRIPOS>ATOM
      1 N1         -9.6000   42.2470   82.4030 N.2       1 FFO402      0.0000 
      2 C2         -9.2430   42.9900   81.3130 C.2       1 FFO402      0.0000 
      3 NA2       -10.1330   43.1370   80.3350 N.pl3     1 FFO402      0.0000 
      4 N3         -8.0450   43.5600   81.2080 N.am      1 FFO402      0.0000 
      5 C4         -7.1290   43.3990   82.2300 C.2       1 FFO402      0.0000 
      6 O4         -6.0240   43.9540   82.0970 O.2       1 FFO402      0.0000 
      7 C4A        -7.4490   42.6430   83.3740 C.2       1 FFO402      0.0000 
      8 N5         -6.5500   42.4430   84.4660 N.am      1 FFO402      0.0000 
      9 C6         -7.1820   42.2830   85.8290 C.3       1 FFO402      0.0000 
     10 C7         -8.3280   41.2660   85.8150 C.3       1 FFO402      0.0000 
     11 N8         -9.0830   41.3010   84.5620 N.pl3     1 FFO402      0.0000 
     12 C8A        -8.7210   42.0480   83.4470 C.2       1 FFO402      0.0000 
     13 C9         -7.6380   43.6280   86.4160 C.3       1 FFO402      0.0000 
     14 N10        -6.8020   44.7210   85.9500 N.pl3     1 FFO402      0.0000 
     15 C11        -8.3390   48.3950   84.8170 C.ar      1 FFO402      0.0000 
     16 C12        -9.0720   47.2310   84.6090 C.ar      1 FFO402      0.0000 
     17 C13        -8.5590   46.0080   84.9790 C.ar      1 FFO402      0.0000 
     18 C14        -7.2970   45.9320   85.5780 C.ar      1 FFO402      0.0000 
     19 C15        -6.5600   47.0960   85.7970 C.ar      1 FFO402      0.0000 
     20 C16        -7.0840   48.3180   85.4190 C.ar      1 FFO402      0.0000 
     21 C          -8.9430   49.7140   84.4360 C.2       1 FFO402      0.0000 
     22 O         -10.1270   49.7860   84.1060 O.2       1 FFO402      0.0000 
     23 N          -8.1570   50.7860   84.5580 N.am      1 FFO402      0.0000 
     24 CA         -8.6810   52.1440   84.5440 C.3       1 FFO402      0.0000 
     25 CB         -8.8160   52.6830   85.9730 C.3       1 FFO402      0.0000 
     26 CG         -9.7910   53.8390   86.0990 C.3       1 FFO402      0.0000 
     27 CD        -10.3220   54.0700   87.5090 C.2       1 FFO402      0.0000 
     28 OE1       -10.8150   53.0920   88.1290 O.co2     1 FFO402      0.0000 
     29 OE2       -10.2370   55.2310   87.9910 O.co2     1 FFO402      0.0000 
     30 CT         -7.7600   53.0320   83.6880 C.2       1 FFO402      0.0000 
     31 O1         -6.5080   52.9260   83.8690 O.co2     1 FFO402      0.0000 
     32 O2         -8.3240   53.7930   82.8710 O.co2     1 FFO402      0.0000 
     33 C5A        -5.1870   42.3460   84.2710 C.2       1 FFO402      0.0000 
     34 O5B        -4.3390   42.6180   85.1220 O.2       1 FFO402      0.0000 
@<TRIPOS>BOND
     1    1    2 2    
     2    1   12 1    
     3    2    3 1    
     4    2    4 1    
     5    4    5 am   
     6    5    6 2    
     7    5    7 1    
     8    7    8 1    
     9    7   12 2    
    10    8    9 1    
    11    8   33 am   
    12    9   10 1    
    13    9   13 1    
    14   10   11 1    
    15   11   12 1    
    16   13   14 1    
    17   14   18 1    
    18   15   16 ar   
    19   15   20 ar   
    20   15   21 1    
    21   16   17 ar   
    22   17   18 ar   
    23   18   19 ar   
    24   19   20 ar   
    25   21   22 2    
    26   21   23 am   
    27   23   24 1    
    28   24   25 1    
    29   24   30 1    
    30   25   26 1    
    31   26   27 1    
    32   27   28 ar   
    33   27   29 ar   
    34   30   31 ar   
    35   30   32 ar   
    36   33   34 2    
@<TRIPOS>SUBSTRUCTURE
     1 FFO402      1 GROUP   
@<TRIPOS>SET

