#    Name: 6eu5_1_MYA
#    Modification time : Fri May 22 19:26:37 2020

@<TRIPOS>MOLECULE
6eu5_1_MYA
   63    65     1     0     0
SMALL
NO_CHARGES


@<TRIPOS>ATOM
      1 S1        -26.7040   -6.1530   -7.2380 S.3       1 MYA501      0.0000 
      2 C2        -27.1240   -6.4820   -9.0090 C.3       1 MYA501      0.0000 
      3 C3        -28.2540   -7.5880   -9.0040 C.3       1 MYA501      0.0000 
      4 N4        -28.5090   -8.0210  -10.3820 N.am      1 MYA501      0.0000 
      5 C5        -29.5190   -7.5210  -11.0900 C.2       1 MYA501      0.0000 
      6 O5        -30.3340   -6.6660  -10.6360 O.2       1 MYA501      0.0000 
      7 C6        -29.6240   -8.0750  -12.5090 C.3       1 MYA501      0.0000 
      8 C7        -31.0940   -8.2320  -13.0140 C.3       1 MYA501      0.0000 
      9 N8        -31.9000   -8.9740  -12.0090 N.am      1 MYA501      0.0000 
     10 C9        -31.7090  -10.3080  -11.8050 C.2       1 MYA501      0.0000 
     11 O9        -30.8650  -10.9410  -12.4220 O.2       1 MYA501      0.0000 
     12 C10       -32.5920  -10.8630  -10.7520 C.3       1 MYA501      0.0000 
     13 O10       -33.8280  -10.1820  -10.6750 O.3       1 MYA501      0.0000 
     14 C11       -31.9610  -11.1580   -9.4110 C.3       1 MYA501      0.0000 
     15 C12       -32.9780  -11.7150   -8.4100 C.3       1 MYA501      0.0000 
     16 C13       -31.4360   -9.7940   -8.8830 C.3       1 MYA501      0.0000 
     17 C14       -30.7690  -12.1370   -9.5630 C.3       1 MYA501      0.0000 
     18 N1A       -29.3840   -8.9250   -4.1150 N.ar      1 MYA501      0.0000 
     19 O1A       -37.0890  -15.4350   -7.0000 O.co2     1 MYA501      0.0000 
     20 P1A       -35.5940  -14.9500   -6.9860 P.3       1 MYA501      0.0000 
     21 C1X       -33.7850  -11.3360   -3.3260 C.3       1 MYA501      0.0000 
     22 C2A       -29.6920   -9.8230   -3.1820 C.ar      1 MYA501      0.0000 
     23 O2A       -34.6030  -15.8150   -7.5950 O.co2     1 MYA501      0.0000 
     24 P2A       -35.1260  -13.0890   -9.1510 P.3       1 MYA501      0.0000 
     25 C2M       -25.3940   -7.3450   -6.9840 C.2       1 MYA501      0.0000 
     26 O2M       -24.9940   -7.9930   -7.9640 O.2       1 MYA501      0.0000 
     27 C2X       -35.2330  -10.9550   -2.9660 C.3       1 MYA501      0.0000 
     28 O2X       -35.2050  -10.0400   -1.8690 O.3       1 MYA501      0.0000 
     29 N3A       -30.9070  -10.3980   -3.0790 N.ar      1 MYA501      0.0000 
     30 O3A       -35.6680  -13.3750   -7.6570 O.3       1 MYA501      0.0000 
     31 C3M       -25.0020   -7.6430   -5.5620 C.3       1 MYA501      0.0000 
     32 C3X       -35.7650  -12.3230   -2.5360 C.3       1 MYA501      0.0000 
     33 O3X       -35.4370  -12.6870   -1.2340 O.3       1 MYA501      0.0000 
     34 P3X       -36.4830  -12.5300   -0.0110 P.3       1 MYA501      0.0000 
     35 C4A       -31.8110   -9.9860   -3.9870 C.ar      1 MYA501      0.0000 
     36 O4A       -35.7160  -11.7260   -9.4740 O.co2     1 MYA501      0.0000 
     37 C4M       -25.5980   -9.0710   -5.2030 C.3       1 MYA501      0.0000 
     38 C4X       -35.0320  -13.2760   -3.4620 C.3       1 MYA501      0.0000 
     39 O4X       -33.9280  -12.5170   -4.0130 O.3       1 MYA501      0.0000 
     40 C5A       -31.5370   -9.0520   -4.9610 C.ar      1 MYA501      0.0000 
     41 O5A       -35.3030  -14.1520  -10.1130 O.co2     1 MYA501      0.0000 
     42 C5M       -25.4540   -9.3020   -3.7160 C.3       1 MYA501      0.0000 
     43 C5X       -35.8060  -13.5880   -4.7640 C.3       1 MYA501      0.0000 
     44 O5X       -35.1910  -14.5540   -5.5780 O.3       1 MYA501      0.0000 
     45 C6A       -30.2440   -8.4630   -5.0210 C.ar      1 MYA501      0.0000 
     46 N6A       -29.9270   -7.5240   -5.9780 N.pl3     1 MYA501      0.0000 
     47 O6A       -33.5160  -12.9180   -8.9800 O.3       1 MYA501      0.0000 
     48 C6M       -25.9940  -10.7340   -3.3750 C.3       1 MYA501      0.0000 
     49 N7A       -32.6910   -8.8580   -5.7120 N.2       1 MYA501      0.0000 
     50 O7A       -36.9120  -11.1360   -0.1150 O.co2     1 MYA501      0.0000 
     51 C7M       -25.9130  -11.0640   -1.8510 C.3       1 MYA501      0.0000 
     52 C8A       -33.6220   -9.6770   -5.1960 C.2       1 MYA501      0.0000 
     53 O8A       -37.6110  -13.5300   -0.3610 O.co2     1 MYA501      0.0000 
     54 C8M       -24.4670  -11.4520   -1.4990 C.3       1 MYA501      0.0000 
     55 N9A       -33.0990  -10.3640   -4.1450 N.pl3     1 MYA501      0.0000 
     56 O9A       -35.7620  -12.8920    1.2570 O.co2     1 MYA501      0.0000 
     57 C9M       -24.4150  -11.9540   -0.0440 C.3       1 MYA501      0.0000 
     58 CAM       -22.9600  -12.4430    0.3940 C.3       1 MYA501      0.0000 
     59 CBM       -22.6780  -13.7870   -0.2570 C.3       1 MYA501      0.0000 
     60 CCM       -21.2220  -14.2990    0.1280 C.3       1 MYA501      0.0000 
     61 CDM       -21.0150  -14.4020    1.6600 C.3       1 MYA501      0.0000 
     62 CEM       -19.5240  -14.8370    1.9160 C.3       1 MYA501      0.0000 
     63 CFM       -19.2330  -14.8670    3.4080 C.3       1 MYA501      0.0000 
@<TRIPOS>BOND
     1    1    2 1    
     2    1   25 1    
     3    2    3 1    
     4    3    4 1    
     5    4    5 am   
     6    5    6 2    
     7    5    7 1    
     8    7    8 1    
     9    8    9 1    
    10    9   10 am   
    11   10   11 2    
    12   10   12 1    
    13   12   13 1    
    14   12   14 1    
    15   14   15 1    
    16   14   16 1    
    17   14   17 1    
    18   15   47 1    
    19   18   22 ar   
    20   18   45 ar   
    21   19   20 ar   
    22   20   23 ar   
    23   20   30 1    
    24   20   44 1    
    25   21   27 1    
    26   21   39 1    
    27   21   55 1    
    28   22   29 ar   
    29   24   30 1    
    30   24   36 ar   
    31   24   41 ar   
    32   24   47 1    
    33   25   26 2    
    34   25   31 1    
    35   27   28 1    
    36   27   32 1    
    37   29   35 ar   
    38   31   37 1    
    39   32   33 1    
    40   32   38 1    
    41   33   34 1    
    42   34   50 ar   
    43   34   53 ar   
    44   34   56 ar   
    45   35   40 ar   
    46   35   55 1    
    47   37   42 1    
    48   38   39 1    
    49   38   43 1    
    50   40   45 ar   
    51   40   49 1    
    52   42   48 1    
    53   43   44 1    
    54   45   46 1    
    55   48   51 1    
    56   49   52 2    
    57   51   54 1    
    58   52   55 1    
    59   54   57 1    
    60   57   58 1    
    61   58   59 1    
    62   59   60 1    
    63   60   61 1    
    64   61   62 1    
    65   62   63 1    
@<TRIPOS>SUBSTRUCTURE
     1 MYA501      1 GROUP   
@<TRIPOS>SET

