#    Name: 6ihh_2_NAP
#    Modification time : Fri May 22 19:27:33 2020

@<TRIPOS>MOLECULE
6ihh_2_NAP
   48    52     1     0     1
SMALL
NO_CHARGES


@<TRIPOS>ATOM
      1 PA          2.4810   38.6470    0.5350 P.3       1 NAP301      0.0000 
      2 O1A         3.8340   38.5510   -0.1750 O.co2     1 NAP301      0.0000 
      3 O2A         2.2920   37.9010    1.8490 O.co2     1 NAP301      0.0000 
      4 O5B         2.0830   40.2150    0.7610 O.3       1 NAP301      0.0000 
      5 C5B         1.0010   40.6090    1.6250 C.3       1 NAP301      0.0000 
      6 C4B         1.3590   41.9680    2.2080 C.3       1 NAP301      0.0000 
      7 O4B         0.3870   42.4060    3.1640 O.3       1 NAP301      0.0000 
      8 C3B         2.7220   41.9310    2.9060 C.3       1 NAP301      0.0000 
      9 O3B         3.6430   42.7860    2.1950 O.3       1 NAP301      0.0000 
     10 C2B         2.4390   42.3890    4.3400 C.3       1 NAP301      0.0000 
     11 O2B         3.5300   43.1420    4.9430 O.3       1 NAP301      0.0000 
     12 C1B         1.0980   43.1310    4.1650 C.3       1 NAP301      0.0000 
     13 N9A         0.3110   43.2250    5.4210 N.pl3     1 NAP301      0.0000 
     14 C8A        -0.2320   42.1730    6.0790 C.2       1 NAP301      0.0000 
     15 N7A        -0.8170   42.5920    7.2290 N.2       1 NAP301      0.0000 
     16 C5A        -0.6360   43.9390    7.3190 C.ar      1 NAP301      0.0000 
     17 C6A        -0.9970   44.9930    8.3080 C.ar      1 NAP301      0.0000 
     18 N6A        -1.7270   44.6250    9.4040 N.pl3     1 NAP301      0.0000 
     19 N1A        -0.5720   46.2870    8.0600 N.ar      1 NAP301      0.0000 
     20 C2A         0.0970   46.6040    6.9140 C.ar      1 NAP301      0.0000 
     21 N3A         0.4150   45.7040    5.9370 N.ar      1 NAP301      0.0000 
     22 C4A         0.1360   44.3630    6.1280 C.ar      1 NAP301      0.0000 
     23 O3          1.2910   38.1010   -0.4450 O.3       1 NAP301      0.0000 
     24 PN          0.6570   38.8850   -1.7350 P.3       1 NAP301      0.0000 
     25 O1N         0.1260   37.7960   -2.6750 O.co2     1 NAP301      0.0000 
     26 O2N         1.7000   39.8220   -2.3190 O.co2     1 NAP301      0.0000 
     27 O5D        -0.5760   39.7070   -1.0180 O.3       1 NAP301      0.0000 
     28 C5D        -1.0410   41.0440   -1.3200 C.3       1 NAP301      0.0000 
     29 C4D        -2.5760   41.1070   -1.4500 C.3       1 NAP301      0.0000 
     30 O4D        -2.9710   40.2140   -2.5500 O.3       1 NAP301      0.0000 
     31 C3D        -3.3380   40.5980   -0.1910 C.3       1 NAP301      0.0000 
     32 O3D        -4.5200   41.3810    0.1420 O.3       1 NAP301      0.0000 
     33 C2D        -3.7550   39.1690   -0.5840 C.3       1 NAP301      0.0000 
     34 O2D        -4.7700   38.5750    0.2700 O.3       1 NAP301      0.0000 
     35 C1D        -4.0290   39.3240   -2.0970 C.3       1 NAP301      0.0000 
     36 N1N        -4.2060   38.0840   -2.9080 N.pl3     1 NAP301      0.0000 
     37 C2N        -3.1300   37.3490   -3.2880 C.ar      1 NAP301      0.0000 
     38 C3N        -3.2750   36.1840   -4.0630 C.ar      1 NAP301      0.0000 
     39 C7N        -2.0600   35.3640   -4.4080 C.2       1 NAP301      0.0000 
     40 O7N        -0.9230   35.7360   -4.1320 O.2       1 NAP301      0.0000 
     41 N7N        -2.2700   34.1870   -4.9590 N.am      1 NAP301      0.0000 
     42 C4N        -4.5590   35.7270   -4.4100 C.ar      1 NAP301      0.0000 
     43 C5N        -5.6720   36.4820   -3.9990 C.ar      1 NAP301      0.0000 
     44 C6N        -5.4580   37.7010   -3.3020 C.ar      1 NAP301      0.0000 
     45 P2B         3.9750   43.1420    6.5400 P.3       1 NAP301      0.0000 
     46 O1X         5.4190   43.6620    6.5650 O.co2     1 NAP301      0.0000 
     47 O2X         2.9590   44.1190    7.1770 O.co2     1 NAP301      0.0000 
     48 O3X         3.9110   41.6950    7.0120 O.co2     1 NAP301      0.0000 
@<TRIPOS>BOND
     1    1    2 ar   
     2    1    3 ar   
     3    1    4 1    
     4    1   23 1    
     5    4    5 1    
     6    5    6 1    
     7    6    7 1    
     8    6    8 1    
     9    7   12 1    
    10    8    9 1    
    11    8   10 1    
    12   10   11 1    
    13   10   12 1    
    14   11   45 1    
    15   12   13 1    
    16   13   14 1    
    17   13   22 1    
    18   14   15 2    
    19   15   16 1    
    20   16   17 ar   
    21   16   22 ar   
    22   17   18 1    
    23   17   19 ar   
    24   19   20 ar   
    25   20   21 ar   
    26   21   22 ar   
    27   23   24 1    
    28   24   25 ar   
    29   24   26 ar   
    30   24   27 1    
    31   27   28 1    
    32   28   29 1    
    33   29   30 1    
    34   29   31 1    
    35   30   35 1    
    36   31   32 1    
    37   31   33 1    
    38   33   34 1    
    39   33   35 1    
    40   35   36 1    
    41   36   37 ar   
    42   36   44 ar   
    43   37   38 ar   
    44   38   39 1    
    45   38   42 ar   
    46   39   40 2    
    47   39   41 am   
    48   42   43 ar   
    49   43   44 ar   
    50   45   46 ar   
    51   45   47 ar   
    52   45   48 ar   
@<TRIPOS>SUBSTRUCTURE
     1 NAP301      1 GROUP   
@<TRIPOS>SET
ATOM$ORANGE STATIC     ATOMS   COLORGROUP SYSTEM 
42 5 5 6 6 8 8 10 10 12 12 14 14 16 16 17 17 20 \
20 22 22 28 28 29 29 31 31 33 33 35 35 37 37 38 38 39 \
39 42 42 43 43 44 44 

