#    Name: 6ihh_1_NAP
#    Modification time : Fri May 22 19:27:28 2020

@<TRIPOS>MOLECULE
6ihh_1_NAP
   48    52     1     0     1
SMALL
NO_CHARGES


@<TRIPOS>ATOM
      1 PA        -36.6950   43.5070   10.7880 P.3       1 NAP301      0.0000 
      2 O1A       -38.1940   43.3600   10.7810 O.co2     1 NAP301      0.0000 
      3 O2A       -36.0620   44.6220   11.5700 O.co2     1 NAP301      0.0000 
      4 O5B       -36.1130   42.1150   11.2770 O.3       1 NAP301      0.0000 
      5 C5B       -34.7560   42.0350   11.7460 C.3       1 NAP301      0.0000 
      6 C4B       -34.8000   40.8210   12.6530 C.3       1 NAP301      0.0000 
      7 O4B       -33.5070   40.4040   13.0990 O.3       1 NAP301      0.0000 
      8 C3B       -35.5990   41.1180   13.9120 C.3       1 NAP301      0.0000 
      9 O3B       -36.2770   39.8670   14.1660 O.3       1 NAP301      0.0000 
     10 C2B       -34.5110   41.3530   14.9620 C.3       1 NAP301      0.0000 
     11 O2B       -35.0970   40.9940   16.2220 O.3       1 NAP301      0.0000 
     12 C1B       -33.5050   40.3010   14.5140 C.3       1 NAP301      0.0000 
     13 N9A       -32.1470   40.6170   15.0370 N.pl3     1 NAP301      0.0000 
     14 C8A       -31.4690   41.7440   14.8110 C.2       1 NAP301      0.0000 
     15 N7A       -30.2830   41.7260   15.4650 N.2       1 NAP301      0.0000 
     16 C5A       -30.1760   40.5040   16.0420 C.ar      1 NAP301      0.0000 
     17 C6A       -29.2400   39.8410   16.9660 C.ar      1 NAP301      0.0000 
     18 N6A       -28.0470   40.4220   17.2670 N.pl3     1 NAP301      0.0000 
     19 N1A       -29.5500   38.6030   17.3980 N.ar      1 NAP301      0.0000 
     20 C2A       -30.7570   38.0320   17.1800 C.ar      1 NAP301      0.0000 
     21 N3A       -31.6420   38.5530   16.2850 N.ar      1 NAP301      0.0000 
     22 C4A       -31.4040   39.7710   15.7270 C.ar      1 NAP301      0.0000 
     23 O3        -36.1970   43.7010    9.2410 O.3       1 NAP301      0.0000 
     24 PN        -36.2480   42.5530    8.0370 P.3       1 NAP301      0.0000 
     25 O1N       -36.3820   43.4500    6.8180 O.co2     1 NAP301      0.0000 
     26 O2N       -37.2720   41.4720    8.2590 O.co2     1 NAP301      0.0000 
     27 O5D       -34.7910   41.9000    8.2460 O.3       1 NAP301      0.0000 
     28 C5D       -34.6360   40.5140    7.8680 C.3       1 NAP301      0.0000 
     29 C4D       -33.3450   40.3470    7.0760 C.3       1 NAP301      0.0000 
     30 O4D       -33.6060   40.9000    5.7620 O.3       1 NAP301      0.0000 
     31 C3D       -32.1140   41.1020    7.6340 C.3       1 NAP301      0.0000 
     32 O3D       -30.9270   40.2560    7.4910 O.3       1 NAP301      0.0000 
     33 C2D       -32.0230   42.3020    6.6920 C.3       1 NAP301      0.0000 
     34 O2D       -30.7250   42.9050    6.6400 O.3       1 NAP301      0.0000 
     35 C1D       -32.4330   41.6300    5.3800 C.3       1 NAP301      0.0000 
     36 N1N       -32.8050   42.5710    4.3280 N.pl3     1 NAP301      0.0000 
     37 C2N       -33.9650   43.2890    4.4690 C.ar      1 NAP301      0.0000 
     38 C3N       -34.3820   44.1280    3.4040 C.ar      1 NAP301      0.0000 
     39 C7N       -35.6790   44.8760    3.4570 C.2       1 NAP301      0.0000 
     40 O7N       -36.5360   44.6650    4.3350 O.2       1 NAP301      0.0000 
     41 N7N       -35.9410   45.6810    2.4730 N.am      1 NAP301      0.0000 
     42 C4N       -33.5540   44.2870    2.2660 C.ar      1 NAP301      0.0000 
     43 C5N       -32.4060   43.4990    2.1440 C.ar      1 NAP301      0.0000 
     44 C6N       -32.0860   42.5550    3.1600 C.ar      1 NAP301      0.0000 
     45 P2B       -34.5140   41.5110   17.6540 P.3       1 NAP301      0.0000 
     46 O1X       -35.6990   41.2010   18.5430 O.co2     1 NAP301      0.0000 
     47 O2X       -33.3070   40.6540   17.9640 O.co2     1 NAP301      0.0000 
     48 O3X       -34.2630   42.9910   17.4950 O.co2     1 NAP301      0.0000 
@<TRIPOS>BOND
     1    1    2 ar   
     2    1    3 ar   
     3    1    4 1    
     4    1   23 1    
     5    4    5 1    
     6    5    6 1    
     7    6    7 1    
     8    6    8 1    
     9    7   12 1    
    10    8    9 1    
    11    8   10 1    
    12   10   11 1    
    13   10   12 1    
    14   11   45 1    
    15   12   13 1    
    16   13   14 1    
    17   13   22 1    
    18   14   15 2    
    19   15   16 1    
    20   16   17 ar   
    21   16   22 ar   
    22   17   18 1    
    23   17   19 ar   
    24   19   20 ar   
    25   20   21 ar   
    26   21   22 ar   
    27   23   24 1    
    28   24   25 ar   
    29   24   26 ar   
    30   24   27 1    
    31   27   28 1    
    32   28   29 1    
    33   29   30 1    
    34   29   31 1    
    35   30   35 1    
    36   31   32 1    
    37   31   33 1    
    38   33   34 1    
    39   33   35 1    
    40   35   36 1    
    41   36   37 ar   
    42   36   44 ar   
    43   37   38 ar   
    44   38   39 1    
    45   38   42 ar   
    46   39   40 2    
    47   39   41 am   
    48   42   43 ar   
    49   43   44 ar   
    50   45   46 ar   
    51   45   47 ar   
    52   45   48 ar   
@<TRIPOS>SUBSTRUCTURE
     1 NAP301      1 GROUP   
@<TRIPOS>SET
ATOM$ORANGE STATIC     ATOMS   COLORGROUP SYSTEM 
42 5 5 6 6 8 8 10 10 12 12 14 14 16 16 17 17 20 \
20 22 22 28 28 29 29 31 31 33 33 35 35 37 37 38 38 39 \
39 42 42 43 43 44 44 

