#    Name: 6dpv_3_GTP
#    Modification time : Fri May 22 19:28:26 2020

@<TRIPOS>MOLECULE
6dpv_3_GTP
   32    34     1     0     1
SMALL
NO_CHARGES


@<TRIPOS>ATOM
      1 PG        326.4560  386.5660  212.9340 P.3       1 GTP501      0.0000 
      2 O1G       326.2010  385.2260  212.3010 O.co2     1 GTP501      0.0000 
      3 O2G       325.1720  387.3320  213.0770 O.co2     1 GTP501      0.0000 
      4 O3G       327.5760  387.3700  212.3330 O.co2     1 GTP501      0.0000 
      5 O3B       326.9590  386.3780  214.4430 O.3       1 GTP501      0.0000 
      6 PB        326.8970  384.9880  215.2350 P.3       1 GTP501      0.0000 
      7 O1B       325.7580  384.0960  214.8100 O.co2     1 GTP501      0.0000 
      8 O2B       326.8890  385.2940  216.7130 O.co2     1 GTP501      0.0000 
      9 O3A       328.3070  384.3730  214.8240 O.3       1 GTP501      0.0000 
     10 PA        328.9690  383.1280  215.5600 P.3       1 GTP501      0.0000 
     11 O1A       328.9220  382.0040  214.5490 O.co2     1 GTP501      0.0000 
     12 O2A       328.3080  382.8820  216.8980 O.co2     1 GTP501      0.0000 
     13 O5'       330.4500  383.6970  215.8180 O.3       1 GTP501      0.0000 
     14 C5'       331.6250  383.0430  215.3560 C.3       1 GTP501      0.0000 
     15 C4'       332.4990  382.7880  216.5690 C.3       1 GTP501      0.0000 
     16 O4'       331.8040  381.9160  217.4640 O.3       1 GTP501      0.0000 
     17 C3'       333.7740  382.0630  216.1700 C.3       1 GTP501      0.0000 
     18 O3'       334.8340  382.4360  217.0590 O.3       1 GTP501      0.0000 
     19 C2'       333.3860  380.6190  216.3350 C.3       1 GTP501      0.0000 
     20 O2'       334.5260  379.7900  216.5510 O.3       1 GTP501      0.0000 
     21 C1'       332.4970  380.6740  217.5620 C.3       1 GTP501      0.0000 
     22 N9        331.4990  379.5910  217.6000 N.pl3     1 GTP501      0.0000 
     23 C8        330.4830  379.4150  216.7480 C.2       1 GTP501      0.0000 
     24 N7        329.7330  378.3510  217.1200 N.2       1 GTP501      0.0000 
     25 C5        330.2540  377.8480  218.2490 C.2       1 GTP501      0.0000 
     26 C6        329.9510  376.7300  219.1820 C.2       1 GTP501      0.0000 
     27 O6        328.9830  375.9680  218.9860 O.2       1 GTP501      0.0000 
     28 N1        330.7520  376.5660  220.2470 N.am      1 GTP501      0.0000 
     29 C2        331.8120  377.3750  220.4720 C.2       1 GTP501      0.0000 
     30 N2        332.5860  377.1730  221.5610 N.pl3     1 GTP501      0.0000 
     31 N3        332.1340  378.4180  219.6700 N.2       1 GTP501      0.0000 
     32 C4        331.4070  378.6940  218.5670 C.2       1 GTP501      0.0000 
@<TRIPOS>BOND
     1    1    2 ar   
     2    1    3 ar   
     3    1    4 ar   
     4    1    5 1    
     5    5    6 1    
     6    6    7 ar   
     7    6    8 ar   
     8    6    9 1    
     9    9   10 1    
    10   10   11 ar   
    11   10   12 ar   
    12   10   13 1    
    13   13   14 1    
    14   14   15 1    
    15   15   16 1    
    16   15   17 1    
    17   16   21 1    
    18   17   18 1    
    19   17   19 1    
    20   19   20 1    
    21   19   21 1    
    22   21   22 1    
    23   22   23 1    
    24   22   32 1    
    25   23   24 2    
    26   24   25 1    
    27   25   26 1    
    28   25   32 2    
    29   26   27 2    
    30   26   28 am   
    31   28   29 1    
    32   29   30 1    
    33   29   31 2    
    34   31   32 1    
@<TRIPOS>SUBSTRUCTURE
     1 GTP501      1 GROUP   
@<TRIPOS>SET
ATOM$ORANGE STATIC     ATOMS   COLORGROUP SYSTEM 
20 14 14 15 15 17 17 19 19 21 21 23 23 25 25 26 26 29 \
29 32 32 

