#    Name: 6dpv_11_GTP
#    Modification time : Fri May 22 19:30:04 2020

@<TRIPOS>MOLECULE
6dpv_11_GTP
   32    34     1     0     1
SMALL
NO_CHARGES


@<TRIPOS>ATOM
      1 PG        274.4710  397.4950  285.8530 P.3       1 GTP501      0.0000 
      2 O1G       274.8010  396.1860  285.1990 O.co2     1 GTP501      0.0000 
      3 O2G       272.9840  397.6310  286.0000 O.co2     1 GTP501      0.0000 
      4 O3G       275.1670  398.6690  285.2270 O.co2     1 GTP501      0.0000 
      5 O3B       275.0210  397.5210  287.3570 O.3       1 GTP501      0.0000 
      6 PB        275.5900  396.2370  288.1200 P.3       1 GTP501      0.0000 
      7 O1B       274.9510  394.9530  287.6580 O.co2     1 GTP501      0.0000 
      8 O2B       275.4550  396.4740  289.6020 O.co2     1 GTP501      0.0000 
      9 O3A       277.1360  396.3190  287.7300 O.3       1 GTP501      0.0000 
     10 PA        278.2740  395.4670  288.4560 P.3       1 GTP501      0.0000 
     11 O1A       278.7270  394.4880  287.3960 O.co2     1 GTP501      0.0000 
     12 O2A       277.7760  394.9070  289.7670 O.co2     1 GTP501      0.0000 
     13 O5'       279.3800  396.5790  288.7960 O.3       1 GTP501      0.0000 
     14 C5'       280.7210  396.4840  288.3380 C.3       1 GTP501      0.0000 
     15 C4'       281.6210  396.6110  289.5500 C.3       1 GTP501      0.0000 
     16 O4'       281.3590  395.5210  290.4360 O.3       1 GTP501      0.0000 
     17 C3'       283.0830  396.4990  289.1470 C.3       1 GTP501      0.0000 
     18 O3'       283.8850  397.2760  290.0420 O.3       1 GTP501      0.0000 
     19 C2'       283.3430  395.0260  289.3000 C.3       1 GTP501      0.0000 
     20 O2'       284.7280  394.7590  289.5160 O.3       1 GTP501      0.0000 
     21 C1'       282.5160  394.6920  290.5230 C.3       1 GTP501      0.0000 
     22 N9        282.0670  393.2880  290.5630 N.pl3     1 GTP501      0.0000 
     23 C8        281.2130  392.7050  289.7180 C.2       1 GTP501      0.0000 
     24 N7        280.9890  391.4240  290.0940 N.2       1 GTP501      0.0000 
     25 C5        281.6850  391.1820  291.2120 C.2       1 GTP501      0.0000 
     26 C6        281.8930  390.0410  292.1390 C.2       1 GTP501      0.0000 
     27 O6        281.3370  388.9430  291.9510 O.2       1 GTP501      0.0000 
     28 N1        282.6980  390.2250  293.1900 N.am      1 GTP501      0.0000 
     29 C2        283.3190  391.4020  293.4120 C.2       1 GTP501      0.0000 
     30 N2        284.1190  391.5380  294.4900 N.pl3     1 GTP501      0.0000 
     31 N3        283.1640  392.4850  292.6150 N.2       1 GTP501      0.0000 
     32 C4        282.3750  392.4320  291.5240 C.2       1 GTP501      0.0000 
@<TRIPOS>BOND
     1    1    2 ar   
     2    1    3 ar   
     3    1    4 ar   
     4    1    5 1    
     5    5    6 1    
     6    6    7 ar   
     7    6    8 ar   
     8    6    9 1    
     9    9   10 1    
    10   10   11 ar   
    11   10   12 ar   
    12   10   13 1    
    13   13   14 1    
    14   14   15 1    
    15   15   16 1    
    16   15   17 1    
    17   16   21 1    
    18   17   18 1    
    19   17   19 1    
    20   19   20 1    
    21   19   21 1    
    22   21   22 1    
    23   22   23 1    
    24   22   32 1    
    25   23   24 2    
    26   24   25 1    
    27   25   26 1    
    28   25   32 2    
    29   26   27 2    
    30   26   28 am   
    31   28   29 1    
    32   29   30 1    
    33   29   31 2    
    34   31   32 1    
@<TRIPOS>SUBSTRUCTURE
     1 GTP501      1 GROUP   
@<TRIPOS>SET
ATOM$ORANGE STATIC     ATOMS   COLORGROUP SYSTEM 
20 14 14 15 15 17 17 19 19 21 21 23 23 25 25 26 26 29 \
29 32 32 

