#    Name: 6dpv_5_GTP
#    Modification time : Fri May 22 19:28:57 2020

@<TRIPOS>MOLECULE
6dpv_5_GTP
   32    34     1     0     1
SMALL
NO_CHARGES


@<TRIPOS>ATOM
      1 PG        221.0520  384.1950  195.4090 P.3       1 GTP501      0.0000 
      2 O1G       221.9910  383.2110  194.7680 O.co2     1 GTP501      0.0000 
      3 O2G       219.6720  383.6190  195.5530 O.co2     1 GTP501      0.0000 
      4 O3G       221.0580  385.5780  194.8230 O.co2     1 GTP501      0.0000 
      5 O3B       221.5050  384.4580  196.9220 O.3       1 GTP501      0.0000 
      6 PB        222.5890  383.5790  197.7080 P.3       1 GTP501      0.0000 
      7 O1B       222.6430  382.1360  197.2790 O.co2     1 GTP501      0.0000 
      8 O2B       222.3100  383.7670  199.1790 O.co2     1 GTP501      0.0000 
      9 O3A       223.9470  384.3140  197.3130 O.3       1 GTP501      0.0000 
     10 PA        225.3020  384.0590  198.1130 P.3       1 GTP501      0.0000 
     11 O1A       226.1930  383.3020  197.1560 O.co2     1 GTP501      0.0000 
     12 O2A       225.0370  383.4220  199.4580 O.co2     1 GTP501      0.0000 
     13 O5'       225.7810  385.5810  198.3020 O.3       1 GTP501      0.0000 
     14 C5'       227.0280  386.1030  197.8630 C.3       1 GTP501      0.0000 
     15 C4'       227.7700  386.5840  199.0970 C.3       1 GTP501      0.0000 
     16 O4'       228.0290  385.4750  199.9630 O.3       1 GTP501      0.0000 
     17 C3'       229.1280  387.1450  198.7180 C.3       1 GTP501      0.0000 
     18 O3'       229.4900  388.1780  199.6430 O.3       1 GTP501      0.0000 
     19 C2'       230.0290  385.9470  198.8390 C.3       1 GTP501      0.0000 
     20 O2'       231.3870  386.3250  199.0630 O.3       1 GTP501      0.0000 
     21 C1'       229.4380  385.2510  200.0530 C.3       1 GTP501      0.0000 
     22 N9        229.6670  383.7930  200.0690 N.pl3     1 GTP501      0.0000 
     23 C8        229.1780  382.8880  199.2170 C.2       1 GTP501      0.0000 
     24 N7        229.5590  381.6410  199.5880 N.2       1 GTP501      0.0000 
     25 C5        230.2810  381.7370  200.7150 C.2       1 GTP501      0.0000 
     26 C6        230.9830  380.8120  201.6470 C.2       1 GTP501      0.0000 
     27 O6        230.9950  379.5780  201.4570 O.2       1 GTP501      0.0000 
     28 N1        231.6060  381.3430  202.7100 N.am      1 GTP501      0.0000 
     29 C2        231.6210  382.6760  202.9340 C.2       1 GTP501      0.0000 
     30 N2        232.2580  383.1640  204.0210 N.pl3     1 GTP501      0.0000 
     31 N3        230.9900  383.5690  202.1320 N.2       1 GTP501      0.0000 
     32 C4        230.3210  383.1650  201.0330 C.2       1 GTP501      0.0000 
@<TRIPOS>BOND
     1    1    2 ar   
     2    1    3 ar   
     3    1    4 ar   
     4    1    5 1    
     5    5    6 1    
     6    6    7 ar   
     7    6    8 ar   
     8    6    9 1    
     9    9   10 1    
    10   10   11 ar   
    11   10   12 ar   
    12   10   13 1    
    13   13   14 1    
    14   14   15 1    
    15   15   16 1    
    16   15   17 1    
    17   16   21 1    
    18   17   18 1    
    19   17   19 1    
    20   19   20 1    
    21   19   21 1    
    22   21   22 1    
    23   22   23 1    
    24   22   32 1    
    25   23   24 2    
    26   24   25 1    
    27   25   26 1    
    28   25   32 2    
    29   26   27 2    
    30   26   28 am   
    31   28   29 1    
    32   29   30 1    
    33   29   31 2    
    34   31   32 1    
@<TRIPOS>SUBSTRUCTURE
     1 GTP501      1 GROUP   
@<TRIPOS>SET
ATOM$ORANGE STATIC     ATOMS   COLORGROUP SYSTEM 
20 14 14 15 15 17 17 19 19 21 21 23 23 25 25 26 26 29 \
29 32 32 

