#    Name: 6dpv_1_GTP
#    Modification time : Fri May 22 19:27:54 2020

@<TRIPOS>MOLECULE
6dpv_1_GTP
   32    34     1     0     1
SMALL
NO_CHARGES


@<TRIPOS>ATOM
      1 PG        273.4820  397.4290  204.1780 P.3       1 GTP501      0.0000 
      2 O1G       273.8810  396.1270  203.5420 O.co2     1 GTP501      0.0000 
      3 O2G       271.9880  397.5200  204.3160 O.co2     1 GTP501      0.0000 
      4 O3G       274.1030  398.6650  203.5890 O.co2     1 GTP501      0.0000 
      5 O3B       274.0060  397.4790  205.6910 O.3       1 GTP501      0.0000 
      6 PB        274.5930  396.2200  206.4880 P.3       1 GTP501      0.0000 
      7 O1B       274.0020  394.8980  206.0720 O.co2     1 GTP501      0.0000 
      8 O2B       274.4300  396.5170  207.9570 O.co2     1 GTP501      0.0000 
      9 O3A       276.1330  396.2960  206.0830 O.3       1 GTP501      0.0000 
     10 PA        277.2580  395.4910  206.8740 P.3       1 GTP501      0.0000 
     11 O1A       277.7220  394.4230  205.9110 O.co2     1 GTP501      0.0000 
     12 O2A       276.7590  395.0380  208.2260 O.co2     1 GTP501      0.0000 
     13 O5'       278.3530  396.6510  207.0530 O.3       1 GTP501      0.0000 
     14 C5'       279.6980  396.5720  206.6010 C.3       1 GTP501      0.0000 
     15 C4'       280.5820  396.6830  207.8290 C.3       1 GTP501      0.0000 
     16 O4'       280.3310  395.5780  208.7040 O.3       1 GTP501      0.0000 
     17 C3'       282.0470  396.5850  207.4440 C.3       1 GTP501      0.0000 
     18 O3'       282.8340  397.3580  208.3580 O.3       1 GTP501      0.0000 
     19 C2'       282.3270  395.1140  207.5740 C.3       1 GTP501      0.0000 
     20 O2'       283.7130  394.8580  207.7920 O.3       1 GTP501      0.0000 
     21 C1'       281.4970  394.7570  208.7940 C.3       1 GTP501      0.0000 
     22 N9        281.0590  393.3490  208.8200 N.pl3     1 GTP501      0.0000 
     23 C8        280.2160  392.7500  207.9750 C.2       1 GTP501      0.0000 
     24 N7        280.0060  391.4660  208.3510 N.2       1 GTP501      0.0000 
     25 C5        280.7000  391.2370  209.4750 C.2       1 GTP501      0.0000 
     26 C6        280.9210  390.1010  210.4100 C.2       1 GTP501      0.0000 
     27 O6        280.3810  388.9920  210.2230 O.2       1 GTP501      0.0000 
     28 N1        281.7190  390.3040  211.4690 N.am      1 GTP501      0.0000 
     29 C2        282.3250  391.4930  211.6860 C.2       1 GTP501      0.0000 
     30 N2        283.1170  391.6530  212.7700 N.pl3     1 GTP501      0.0000 
     31 N3        282.1530  392.5690  210.8830 N.2       1 GTP501      0.0000 
     32 C4        281.3700  392.5000  209.7860 C.2       1 GTP501      0.0000 
@<TRIPOS>BOND
     1    1    2 ar   
     2    1    3 ar   
     3    1    4 ar   
     4    1    5 1    
     5    5    6 1    
     6    6    7 ar   
     7    6    8 ar   
     8    6    9 1    
     9    9   10 1    
    10   10   11 ar   
    11   10   12 ar   
    12   10   13 1    
    13   13   14 1    
    14   14   15 1    
    15   15   16 1    
    16   15   17 1    
    17   16   21 1    
    18   17   18 1    
    19   17   19 1    
    20   19   20 1    
    21   19   21 1    
    22   21   22 1    
    23   22   23 1    
    24   22   32 1    
    25   23   24 2    
    26   24   25 1    
    27   25   26 1    
    28   25   32 2    
    29   26   27 2    
    30   26   28 am   
    31   28   29 1    
    32   29   30 1    
    33   29   31 2    
    34   31   32 1    
@<TRIPOS>SUBSTRUCTURE
     1 GTP501      1 GROUP   
@<TRIPOS>SET
ATOM$ORANGE STATIC     ATOMS   COLORGROUP SYSTEM 
20 14 14 15 15 17 17 19 19 21 21 23 23 25 25 26 26 29 \
29 32 32 

