#    Name: 6dpv_6_GDP
#    Modification time : Fri May 22 19:29:13 2020

@<TRIPOS>MOLECULE
6dpv_6_GDP
   28    30     1     0     1
SMALL
NO_CHARGES


@<TRIPOS>ATOM
      1 PB        222.6220  384.2280  237.5970 P.3       1 GDP501      0.0000 
      2 O1B       221.7980  384.8970  236.5200 O.co2     1 GDP501      0.0000 
      3 O2B       222.7260  382.7290  237.4210 O.co2     1 GDP501      0.0000 
      4 O3B       222.3110  384.7150  238.9940 O.co2     1 GDP501      0.0000 
      5 O3A       224.1110  384.7710  237.3100 O.3       1 GDP501      0.0000 
      6 PA        225.4110  384.3190  238.1510 P.3       1 GDP501      0.0000 
      7 O1A       226.2300  383.3720  237.3020 O.co2     1 GDP501      0.0000 
      8 O2A       225.0290  383.8970  239.5470 O.co2     1 GDP501      0.0000 
      9 O5'       226.1420  385.7470  238.2970 O.3       1 GDP501      0.0000 
     10 C5'       227.4660  386.0760  237.8610 C.3       1 GDP501      0.0000 
     11 C4'       228.2530  386.5690  239.0670 C.3       1 GDP501      0.0000 
     12 O4'       228.3950  385.4950  240.0010 O.3       1 GDP501      0.0000 
     13 C3'       229.6530  387.0300  238.7080 C.3       1 GDP501      0.0000 
     14 O3'       229.9990  388.1510  239.5280 O.3       1 GDP501      0.0000 
     15 C2'       230.5280  385.8400  239.0260 C.3       1 GDP501      0.0000 
     16 O2'       231.8480  386.2390  239.3990 O.3       1 GDP501      0.0000 
     17 C1'       229.7830  385.1940  240.1800 C.3       1 GDP501      0.0000 
     18 N9        230.0200  383.7350  240.1850 N.pl3     1 GDP501      0.0000 
     19 C8        229.6130  382.8360  239.2740 C.2       1 GDP501      0.0000 
     20 N7        229.9910  381.5810  239.6410 N.2       1 GDP501      0.0000 
     21 C5        230.6240  381.6750  240.8180 C.2       1 GDP501      0.0000 
     22 C6        231.2720  380.7470  241.7680 C.2       1 GDP501      0.0000 
     23 O6        231.3120  379.5240  241.5400 O.2       1 GDP501      0.0000 
     24 N1        231.8180  381.2520  242.8790 N.am      1 GDP501      0.0000 
     25 C2        231.7930  382.5690  243.1550 C.2       1 GDP501      0.0000 
     26 N2        232.3670  383.0130  244.2990 N.pl3     1 GDP501      0.0000 
     27 N3        231.2200  383.4780  242.3280 N.2       1 GDP501      0.0000 
     28 C4        230.6340  383.0950  241.1720 C.2       1 GDP501      0.0000 
@<TRIPOS>BOND
     1    1    2 ar   
     2    1    3 ar   
     3    1    4 ar   
     4    1    5 1    
     5    5    6 1    
     6    6    7 ar   
     7    6    8 ar   
     8    6    9 1    
     9    9   10 1    
    10   10   11 1    
    11   11   12 1    
    12   11   13 1    
    13   12   17 1    
    14   13   14 1    
    15   13   15 1    
    16   15   16 1    
    17   15   17 1    
    18   17   18 1    
    19   18   19 1    
    20   18   28 1    
    21   19   20 2    
    22   20   21 1    
    23   21   22 1    
    24   21   28 2    
    25   22   23 2    
    26   22   24 am   
    27   24   25 1    
    28   25   26 1    
    29   25   27 2    
    30   27   28 1    
@<TRIPOS>SUBSTRUCTURE
     1 GDP501      1 GROUP   
@<TRIPOS>SET
ATOM$ORANGE STATIC     ATOMS   COLORGROUP SYSTEM 
20 10 10 11 11 13 13 15 15 17 17 19 19 21 21 22 22 25 \
25 28 28 

