#    Name: 6dpv_2_GDP
#    Modification time : Fri May 22 19:28:09 2020

@<TRIPOS>MOLECULE
6dpv_2_GDP
   28    30     1     0     1
SMALL
NO_CHARGES


@<TRIPOS>ATOM
      1 PB        274.8910  396.7770  246.3890 P.3       1 GDP501      0.0000 
      2 O1B       274.4500  397.8150  245.3820 O.co2     1 GDP501      0.0000 
      3 O2B       274.3370  395.3990  246.1040 O.co2     1 GDP501      0.0000 
      4 O3B       274.8070  397.2470  247.8220 O.co2     1 GDP501      0.0000 
      5 O3A       276.4720  396.6480  246.1140 O.3       1 GDP501      0.0000 
      6 PA        277.4460  395.6250  246.8920 P.3       1 GDP501      0.0000 
      7 O1A       277.7880  394.4600  245.9880 O.co2     1 GDP501      0.0000 
      8 O2A       276.9020  395.3330  248.2690 O.co2     1 GDP501      0.0000 
      9 O5'       278.7370  396.5780  247.0550 O.3       1 GDP501      0.0000 
     10 C5'       280.0750  396.3260  246.6100 C.3       1 GDP501      0.0000 
     11 C4'       280.9890  396.4210  247.8250 C.3       1 GDP501      0.0000 
     12 O4'       280.6540  395.3620  248.7250 O.3       1 GDP501      0.0000 
     13 C3'       282.4570  396.2540  247.4830 C.3       1 GDP501      0.0000 
     14 O3'       283.2320  397.1060  248.3340 O.3       1 GDP501      0.0000 
     15 C2'       282.7470  394.7950  247.7630 C.3       1 GDP501      0.0000 
     16 O2'       284.1100  394.6000  248.1460 O.3       1 GDP501      0.0000 
     17 C1'       281.7870  394.5030  248.9000 C.3       1 GDP501      0.0000 
     18 N9        281.3630  393.0890  248.9300 N.pl3     1 GDP501      0.0000 
     19 C8        280.5970  392.4570  248.0270 C.2       1 GDP501      0.0000 
     20 N7        280.3810  391.1680  248.4020 N.2       1 GDP501      0.0000 
     21 C5        280.9990  390.9800  249.5750 C.2       1 GDP501      0.0000 
     22 C6        281.1730  389.8680  250.5260 C.2       1 GDP501      0.0000 
     23 O6        280.6620  388.7560  250.3020 O.2       1 GDP501      0.0000 
     24 N1        281.8930  390.0830  251.6310 N.am      1 GDP501      0.0000 
     25 C2        282.4590  391.2740  251.9010 C.2       1 GDP501      0.0000 
     26 N2        283.1780  391.4190  253.0400 N.pl3     1 GDP501      0.0000 
     27 N3        282.3430  392.3400  251.0720 N.2       1 GDP501      0.0000 
     28 C4        281.6410  392.2510  249.9210 C.2       1 GDP501      0.0000 
@<TRIPOS>BOND
     1    1    2 ar   
     2    1    3 ar   
     3    1    4 ar   
     4    1    5 1    
     5    5    6 1    
     6    6    7 ar   
     7    6    8 ar   
     8    6    9 1    
     9    9   10 1    
    10   10   11 1    
    11   11   12 1    
    12   11   13 1    
    13   12   17 1    
    14   13   14 1    
    15   13   15 1    
    16   15   16 1    
    17   15   17 1    
    18   17   18 1    
    19   18   19 1    
    20   18   28 1    
    21   19   20 2    
    22   20   21 1    
    23   21   22 1    
    24   21   28 2    
    25   22   23 2    
    26   22   24 am   
    27   24   25 1    
    28   25   26 1    
    29   25   27 2    
    30   27   28 1    
@<TRIPOS>SUBSTRUCTURE
     1 GDP501      1 GROUP   
@<TRIPOS>SET
ATOM$ORANGE STATIC     ATOMS   COLORGROUP SYSTEM 
20 10 10 11 11 13 13 15 15 17 17 19 19 21 21 22 22 25 \
25 28 28 

