#    Name: 6dpv_7_GDP_CAVITY_N1_ALL
#    Modification time : Fri May 22 19:29:22 2020

@<TRIPOS>MOLECULE
6dpv_7_GDP_CAVITY_N1_ALL
  123     0     6     0     0
SMALL
NO_CHARGES


@<TRIPOS>ATOM
      1 OG        219.4500  383.4700  152.8900 O.3       1 SER1        0.0000 
      2 OG        219.5400  381.9700  152.9200 O.3       1 SER1        0.0000 
      3 OG        220.4200  383.5500  154.0200 O.3       1 SER1        0.0000 
      4 OG        220.5100  382.0500  154.0500 O.3       1 SER1        0.0000 
      5 OG        225.2800  386.9100  157.5400 O.3       1 SER1        0.0000 
      6 OG        226.4100  386.9600  156.5700 O.3       1 SER1        0.0000 
      7 OG        226.3400  385.5000  158.7100 O.3       1 SER1        0.0000 
      8 OG        227.3900  387.0400  157.7000 O.3       1 SER1        0.0000 
      9 OG        227.4800  385.5500  157.7300 O.3       1 SER1        0.0000 
     10 OG        229.8400  384.1500  155.8100 O.3       1 SER1        0.0000 
     11 OG        228.2700  388.6200  158.8100 O.3       1 SER1        0.0000 
     12 OG        228.3600  387.1300  158.8400 O.3       1 SER1        0.0000 
     13 OG        228.4500  385.6300  158.8700 O.3       1 SER1        0.0000 
     14 OG        229.6800  384.1800  157.9300 O.3       1 SER1        0.0000 
     15 O         219.7100  381.9400  150.8000 O.2       2 ALA2        0.0000 
     16 N         220.5900  383.5200  151.9100 N.am      2 ALA2        0.0000 
     17 N         221.7300  383.5600  150.9300 N.am      2 ALA2        0.0000 
     18 N         221.5600  383.6000  153.0500 N.am      2 ALA2        0.0000 
     19 N         222.7000  383.6500  152.0700 N.am      2 ALA2        0.0000 
     20 O         220.2600  383.5800  156.1400 O.2       2 ALA2        0.0000 
     21 O         221.3100  385.1300  155.1300 O.2       2 ALA2        0.0000 
     22 O         221.4000  383.6300  155.1600 O.2       2 ALA2        0.0000 
     23 O         221.4900  382.1300  155.1900 O.2       2 ALA2        0.0000 
     24 O         221.5800  380.6300  155.2200 O.2       2 ALA2        0.0000 
     25 N         222.5400  383.6800  154.1900 N.am      2 ALA2        0.0000 
     26 N         223.6700  383.7300  153.2100 N.am      2 ALA2        0.0000 
     27 N         223.7600  382.2300  153.2400 N.am      2 ALA2        0.0000 
     28 O         221.1400  385.1600  157.2500 O.2       2 ALA2        0.0000 
     29 O         221.2300  383.6600  157.2800 O.2       2 ALA2        0.0000 
     30 O         221.3200  382.1600  157.3100 O.2       2 ALA2        0.0000 
     31 O         222.4600  382.2100  156.3300 O.2       2 ALA2        0.0000 
     32 N         223.5100  383.7600  155.3200 N.am      2 ALA2        0.0000 
     33 N         224.4700  386.8000  154.2900 N.am      2 ALA2        0.0000 
     34 N         224.5600  385.3000  154.3200 N.am      2 ALA2        0.0000 
     35 N         224.6500  383.8100  154.3500 N.am      2 ALA2        0.0000 
     36 N         224.7400  382.3100  154.3800 N.am      2 ALA2        0.0000 
     37 N         225.6900  385.3500  153.3400 N.am      2 ALA2        0.0000 
     38 O         222.2100  383.7400  158.4200 O.2       2 ALA2        0.0000 
     39 O         223.3500  383.7900  157.4400 O.2       2 ALA2        0.0000 
     40 O         223.4400  382.2900  157.4700 O.2       2 ALA2        0.0000 
     41 O         226.8500  382.4400  154.5400 O.2       2 ALA2        0.0000 
     42 O         225.5500  382.4200  157.6300 O.2       2 ALA2        0.0000 
     43 O         226.6800  382.4700  156.6500 O.2       2 ALA2        0.0000 
     44 O         227.8200  382.5200  155.6800 O.2       2 ALA2        0.0000 
     45 O         228.8000  382.6000  156.8200 O.2       2 ALA2        0.0000 
     46 O         228.8800  381.1100  156.8500 O.2       2 ALA2        0.0000 
     47 N         229.2500  388.7000  159.9500 N.am      2 ALA2        0.0000 
     48 O         229.3400  387.2100  159.9800 O.2       2 ALA2        0.0000 
     49 O         229.4200  385.7100  160.0100 O.2       2 ALA2        0.0000 
     50 O         229.5100  384.2100  160.0400 O.2       2 ALA2        0.0000 
     51 N         229.6000  382.7200  160.0700 N.am      2 ALA2        0.0000 
     52 N         229.6900  381.2200  160.1000 N.am      2 ALA2        0.0000 
     53 O         230.3800  388.7500  158.9700 O.2       2 ALA2        0.0000 
     54 O         230.4700  387.2600  159.0000 O.2       2 ALA2        0.0000 
     55 O         230.6500  384.2600  159.0600 O.2       2 ALA2        0.0000 
     56 O         230.5800  382.8000  161.2100 O.2       2 ALA2        0.0000 
     57 N         230.6700  381.3000  161.2400 N.am      2 ALA2        0.0000 
     58 O         231.3600  388.8300  160.1100 O.2       2 ALA2        0.0000 
     59 NZ        220.6800  382.0200  151.9400 N.4       3 LYS4        0.0000 
     60 NZ        221.8200  382.0700  150.9600 N.4       3 LYS4        0.0000 
     61 NZ        220.6000  380.5500  154.0800 N.4       3 LYS4        0.0000 
     62 NZ        221.6500  382.1000  153.0800 N.4       3 LYS4        0.0000 
     63 NZ        222.7900  382.1500  152.1000 N.4       3 LYS4        0.0000 
     64 NZ        222.8800  380.6500  152.1300 N.4       3 LYS4        0.0000 
     65 NZ        222.7200  380.6800  154.2500 N.4       3 LYS4        0.0000 
     66 NZ        227.3000  388.5400  157.6700 N.4       3 LYS4        0.0000 
     67 NZ        228.4400  388.5900  156.7000 N.4       3 LYS4        0.0000 
     68 NZ        228.6200  385.6000  156.7600 N.4       3 LYS4        0.0000 
     69 NZ        229.7500  385.6500  155.7800 N.4       3 LYS4        0.0000 
     70 NZ        229.4100  388.6700  157.8400 N.4       3 LYS4        0.0000 
     71 NZ        229.5000  387.1700  157.8700 N.4       3 LYS4        0.0000 
     72 NZ        229.5900  385.6800  157.9000 N.4       3 LYS4        0.0000 
     73 NZ        231.5200  388.8000  158.0000 N.4       3 LYS4        0.0000 
     74 CZ        229.9300  382.6500  155.8400 C.ar      4 PHE5        0.0000 
     75 CZ        230.0200  381.1500  155.8700 C.ar      4 PHE5        0.0000 
     76 CZ        229.7700  382.6800  157.9500 C.ar      4 PHE5        0.0000 
     77 CZ        229.8600  381.1900  157.9800 C.ar      4 PHE5        0.0000 
     78 CZ        230.7400  382.7600  159.0900 C.ar      4 PHE5        0.0000 
     79 CZ        230.8300  381.2700  159.1200 C.ar      4 PHE5        0.0000 
     80 CZ        230.9200  379.7700  159.1500 C.ar      4 PHE5        0.0000 
     81 CZ        231.7200  382.8500  160.2300 C.ar      4 PHE5        0.0000 
     82 CZ        231.8100  381.3500  160.2600 C.ar      4 PHE5        0.0000 
     83 CA        220.7500  383.4800  149.8000 C.3       5 GLY6        0.0000 
     84 CA        220.3500  382.0800  156.1700 C.3       5 GLY6        0.0000 
     85 CA        222.6300  382.1800  154.2200 C.3       5 GLY6        0.0000 
     86 CA        222.2800  385.2100  156.2700 C.3       5 GLY6        0.0000 
     87 CA        223.4200  385.2600  155.3000 C.3       5 GLY6        0.0000 
     88 CA        223.6000  382.2600  155.3500 C.3       5 GLY6        0.0000 
     89 CA        222.1200  385.2400  158.3900 C.3       5 GLY6        0.0000 
     90 CA        223.2600  385.2900  157.4100 C.3       5 GLY6        0.0000 
     91 CA        224.3900  385.3400  156.4300 C.3       5 GLY6        0.0000 
     92 CA        224.5700  382.3400  156.4900 C.3       5 GLY6        0.0000 
     93 CA        225.4400  386.8800  155.4300 C.3       5 GLY6        0.0000 
     94 CA        225.7100  382.3900  155.5200 C.3       5 GLY6        0.0000 
     95 CA        226.5800  386.9300  154.4500 C.3       5 GLY6        0.0000 
     96 CA        227.7200  386.9800  153.4700 C.3       5 GLY6        0.0000 
     97 CA        224.3200  383.8700  158.5800 C.3       5 GLY6        0.0000 
     98 CA        225.3700  385.4200  157.5700 C.3       5 GLY6        0.0000 
     99 CA        225.4600  383.9200  157.6000 C.3       5 GLY6        0.0000 
    100 CA        227.5500  387.0100  155.5900 C.3       5 GLY6        0.0000 
    101 CA        228.7800  385.5600  154.6400 C.3       5 GLY6        0.0000 
    102 CA        227.5700  384.0500  157.7600 C.3       5 GLY6        0.0000 
    103 CA        227.6600  382.5500  157.7900 C.3       5 GLY6        0.0000 
    104 CA        227.7500  381.0600  157.8200 C.3       5 GLY6        0.0000 
    105 CA        228.5300  387.0900  156.7300 C.3       5 GLY6        0.0000 
    106 CA        228.5400  384.1300  158.9000 C.3       5 GLY6        0.0000 
    107 CA        228.6300  382.6300  158.9300 C.3       5 GLY6        0.0000 
    108 CA        228.7200  381.1400  158.9600 C.3       5 GLY6        0.0000 
    109 CA        230.2900  390.2500  158.9400 C.3       5 GLY6        0.0000 
    110 CA        232.4900  388.8800  159.1400 C.3       5 GLY6        0.0000 
    111 DU        222.3700  383.7100  156.3000 H         6 CUB7        0.0000 
    112 DU        224.4800  383.8400  156.4600 H         6 CUB7        0.0000 
    113 DU        225.5300  385.3900  155.4600 H         6 CUB7        0.0000 
    114 DU        225.6200  383.8900  155.4900 H         6 CUB7        0.0000 
    115 DU        226.6700  385.4300  154.4800 H         6 CUB7        0.0000 
    116 DU        226.7600  383.9400  154.5100 H         6 CUB7        0.0000 
    117 DU        227.8100  385.4800  153.5000 H         6 CUB7        0.0000 
    118 DU        226.5000  385.4700  156.6000 H         6 CUB7        0.0000 
    119 DU        226.5900  383.9700  156.6200 H         6 CUB7        0.0000 
    120 DU        227.6400  385.5200  155.6200 H         6 CUB7        0.0000 
    121 DU        227.7300  384.0200  155.6500 H         6 CUB7        0.0000 
    122 DU        228.8700  384.0700  154.6700 H         6 CUB7        0.0000 
    123 DU        228.7100  384.1000  156.7900 H         6 CUB7        0.0000 
@<TRIPOS>BOND
@<TRIPOS>SUBSTRUCTURE
     1 SER1        1 GROUP   
     2 ALA2       15 GROUP   
     3 LYS4       59 GROUP   
     4 PHE5       74 GROUP   
     5 GLY6       83 GROUP   
     6 CUB7      111 GROUP   
@<TRIPOS>SET

