#    Name: 6dpv_10_GTP
#    Modification time : Fri May 22 19:29:49 2020

@<TRIPOS>MOLECULE
6dpv_10_GTP
   32    34     1     0     1
SMALL
NO_CHARGES


@<TRIPOS>ATOM
      1 PG        221.9170  384.6760  277.0820 P.3       1 GTP501      0.0000 
      2 O1G       222.7950  383.6520  276.4250 O.co2     1 GTP501      0.0000 
      3 O2G       220.5220  384.1460  277.2350 O.co2     1 GTP501      0.0000 
      4 O3G       222.0190  386.0360  276.4560 O.co2     1 GTP501      0.0000 
      5 O3B       222.4020  384.9340  278.5850 O.3       1 GTP501      0.0000 
      6 PB        223.4800  384.0260  279.3400 P.3       1 GTP501      0.0000 
      7 O1B       223.4780  382.5930  278.8730 O.co2     1 GTP501      0.0000 
      8 O2B       223.2500  384.1810  280.8210 O.co2     1 GTP501      0.0000 
      9 O3A       224.8390  384.7620  278.9450 O.3       1 GTP501      0.0000 
     10 PA        226.2310  384.4770  279.6740 P.3       1 GTP501      0.0000 
     11 O1A       227.0820  383.7820  278.6340 O.co2     1 GTP501      0.0000 
     12 O2A       226.0040  383.7600  280.9850 O.co2     1 GTP501      0.0000 
     13 O5'       226.7340  385.9620  280.0140 O.3       1 GTP501      0.0000 
     14 C5'       227.9910  386.4610  279.5810 C.3       1 GTP501      0.0000 
     15 C4'       228.7320  386.9660  280.8000 C.3       1 GTP501      0.0000 
     16 O4'       228.9670  385.8700  281.6860 O.3       1 GTP501      0.0000 
     17 C3'       230.0950  387.5140  280.4070 C.3       1 GTP501      0.0000 
     18 O3'       230.4630  388.5640  281.3080 O.3       1 GTP501      0.0000 
     19 C2'       230.9760  386.3060  280.5600 C.3       1 GTP501      0.0000 
     20 O2'       232.3370  386.6750  280.7860 O.3       1 GTP501      0.0000 
     21 C1'       230.3710  385.6370  281.7780 C.3       1 GTP501      0.0000 
     22 N9        230.5940  384.1790  281.8160 N.pl3     1 GTP501      0.0000 
     23 C8        230.0960  383.2740  280.9700 C.2       1 GTP501      0.0000 
     24 N7        230.4700  382.0290  281.3500 N.2       1 GTP501      0.0000 
     25 C5        231.1960  382.1260  282.4720 C.2       1 GTP501      0.0000 
     26 C6        231.8920  381.2020  283.4050 C.2       1 GTP501      0.0000 
     27 O6        231.8930  379.9700  283.2240 O.2       1 GTP501      0.0000 
     28 N1        232.5240  381.7310  284.4580 N.am      1 GTP501      0.0000 
     29 C2        232.5470  383.0630  284.6760 C.2       1 GTP501      0.0000 
     30 N2        233.1970  383.5470  285.7570 N.pl3     1 GTP501      0.0000 
     31 N3        231.9250  383.9570  283.8730 N.2       1 GTP501      0.0000 
     32 C4        231.2500  383.5530  282.7810 C.2       1 GTP501      0.0000 
@<TRIPOS>BOND
     1    1    2 ar   
     2    1    3 ar   
     3    1    4 ar   
     4    1    5 1    
     5    5    6 1    
     6    6    7 ar   
     7    6    8 ar   
     8    6    9 1    
     9    9   10 1    
    10   10   11 ar   
    11   10   12 ar   
    12   10   13 1    
    13   13   14 1    
    14   14   15 1    
    15   15   16 1    
    16   15   17 1    
    17   16   21 1    
    18   17   18 1    
    19   17   19 1    
    20   19   20 1    
    21   19   21 1    
    22   21   22 1    
    23   22   23 1    
    24   22   32 1    
    25   23   24 2    
    26   24   25 1    
    27   25   26 1    
    28   25   32 2    
    29   26   27 2    
    30   26   28 am   
    31   28   29 1    
    32   29   30 1    
    33   29   31 2    
    34   31   32 1    
@<TRIPOS>SUBSTRUCTURE
     1 GTP501      1 GROUP   
@<TRIPOS>SET
ATOM$ORANGE STATIC     ATOMS   COLORGROUP SYSTEM 
20 14 14 15 15 17 17 19 19 21 21 23 23 25 25 26 26 29 \
29 32 32 

