#    Name: 6dpv_10_GTP_CAVITY_N1_4
#    Modification time : Fri May 22 19:29:51 2020

@<TRIPOS>MOLECULE
6dpv_10_GTP_CAVITY_N1_4
   93     0     7     0     0
SMALL
NO_CHARGES


@<TRIPOS>ATOM
      1 OG        227.7100  387.9500  277.9400 O.3       1 SER1        0.0000 
      2 OG        228.9300  386.5100  277.0000 O.3       1 SER1        0.0000 
      3 OG        226.5800  384.9400  281.0900 O.3       1 SER1        0.0000 
      4 OG        227.6300  386.4900  280.0900 O.3       1 SER1        0.0000 
      5 OG        227.7200  384.9900  280.1200 O.3       1 SER1        0.0000 
      6 OG        228.6800  388.0300  279.0800 O.3       1 SER1        0.0000 
      7 OG        228.7700  386.5400  279.1100 O.3       1 SER1        0.0000 
      8 OG        229.9100  386.5900  278.1300 O.3       1 SER1        0.0000 
      9 OG        228.6100  386.5700  281.2300 O.3       1 SER1        0.0000 
     10 OG        228.7000  385.0700  281.2600 O.3       1 SER1        0.0000 
     11 OG        229.7400  386.6200  280.2500 O.3       1 SER1        0.0000 
     12 OG        230.8800  386.6700  279.2700 O.3       1 SER1        0.0000 
     13 OG        230.9700  385.1700  279.3000 O.3       1 SER1        0.0000 
     14 OG        231.0600  383.6700  279.3300 O.3       1 SER1        0.0000 
     15 OG        229.5800  386.6500  282.3600 O.3       1 SER1        0.0000 
     16 OG        229.6700  385.1500  282.3900 O.3       1 SER1        0.0000 
     17 OG        230.8100  385.2000  281.4200 O.3       1 SER1        0.0000 
     18 OG        231.7600  388.2500  280.3800 O.3       1 SER1        0.0000 
     19 OG        231.8500  386.7500  280.4100 O.3       1 SER1        0.0000 
     20 O         223.5900  383.2400  279.8200 O.2       2 ALA2        0.0000 
     21 N         225.6900  386.3300  277.8100 N.am      2 ALA2        0.0000 
     22 N         226.8200  386.3800  276.8300 N.am      2 ALA2        0.0000 
     23 O         223.3400  384.7600  281.9100 O.2       2 ALA2        0.0000 
     24 O         224.5600  383.3200  280.9600 O.2       2 ALA2        0.0000 
     25 O         226.5700  387.9000  278.9200 O.2       2 ALA2        0.0000 
     26 N         227.9800  383.4600  278.0300 N.am      2 ALA2        0.0000 
     27 O         225.5400  383.4000  282.1000 O.2       2 ALA2        0.0000 
     28 O         226.6700  383.4500  281.1200 O.2       2 ALA2        0.0000 
     29 O         227.5400  387.9900  280.0600 O.2       2 ALA2        0.0000 
     30 O         227.8100  383.4900  280.1500 O.2       2 ALA2        0.0000 
     31 O         228.8800  382.0800  281.3200 O.2       2 ALA2        0.0000 
     32 O         230.0100  382.1300  280.3400 O.2       2 ALA2        0.0000 
     33 O         230.7200  386.7000  281.3900 O.2       2 ALA2        0.0000 
     34 O         232.8100  389.7900  279.3800 O.2       2 ALA2        0.0000 
     35 O         231.7800  385.2800  282.5600 O.2       2 ALA2        0.0000 
     36 O         232.0500  380.7900  282.6500 O.2       2 ALA2        0.0000 
     37 O         232.7400  388.3300  281.5200 O.2       2 ALA2        0.0000 
     38 O         233.8800  388.3800  280.5400 O.2       2 ALA2        0.0000 
     39 N         231.8000  382.3200  284.7300 N.am      2 ALA2        0.0000 
     40 O         232.8400  383.8700  283.7200 O.2       2 ALA2        0.0000 
     41 O         233.6200  389.9000  282.6300 O.2       2 ALA2        0.0000 
     42 O         234.8500  388.4600  281.6800 O.2       2 ALA2        0.0000 
     43 N         232.6800  383.9000  285.8400 N.am      2 ALA2        0.0000 
     44 N         232.7700  382.4000  285.8700 N.am      2 ALA2        0.0000 
     45 N         233.9100  382.4500  284.8900 N.am      2 ALA2        0.0000 
     46 OD1       224.7300  383.2800  278.8500 O.co2     3 ASP3        0.0000 
     47 OD1       225.7700  384.8300  277.8400 O.co2     3 ASP3        0.0000 
     48 OD1       225.8600  383.3300  277.8700 O.co2     3 ASP3        0.0000 
     49 OD1       226.9100  384.8800  276.8600 O.co2     3 ASP3        0.0000 
     50 NZ        228.5200  388.0700  281.2000 N.4       4 LYS4        0.0000 
     51 NZ        229.6500  388.1200  280.2200 N.4       4 LYS4        0.0000 
     52 NZ        230.6300  388.2000  281.3600 N.4       4 LYS4        0.0000 
     53 NZ        231.6700  389.7400  280.3500 N.4       4 LYS4        0.0000 
     54 NZ        232.5600  391.3200  281.4600 N.4       4 LYS4        0.0000 
     55 NZ        232.6500  389.8200  281.4900 N.4       4 LYS4        0.0000 
     56 CZ        230.9000  383.7100  281.4500 C.ar      5 PHE5        0.0000 
     57 CZ        230.9900  382.2100  281.4800 C.ar      5 PHE5        0.0000 
     58 CZ        231.8700  383.7900  282.5900 C.ar      5 PHE5        0.0000 
     59 CZ        231.9600  382.2900  282.6200 C.ar      5 PHE5        0.0000 
     60 CZ        232.9300  382.3700  283.7500 C.ar      5 PHE5        0.0000 
     61 CA        223.5000  384.7300  279.7900 C.3       6 GLY6        0.0000 
     62 CA        224.6400  384.7800  278.8200 C.3       6 GLY6        0.0000 
     63 CA        227.9600  386.4200  275.8600 C.3       6 GLY6        0.0000 
     64 CA        223.4300  383.2700  281.9400 C.3       6 GLY6        0.0000 
     65 CA        224.4700  384.8100  280.9300 C.3       6 GLY6        0.0000 
     66 CA        225.5200  386.3600  279.9300 C.3       6 GLY6        0.0000 
     67 CA        225.6100  384.8600  279.9600 C.3       6 GLY6        0.0000 
     68 CA        225.7000  383.3700  279.9900 C.3       6 GLY6        0.0000 
     69 CA        226.6600  386.4100  278.9500 C.3       6 GLY6        0.0000 
     70 CA        226.8400  383.4100  279.0100 C.3       6 GLY6        0.0000 
     71 CA        227.8900  384.9600  278.0000 C.3       6 GLY6        0.0000 
     72 CA        225.4500  384.8900  282.0700 C.3       6 GLY6        0.0000 
     73 CA        226.4900  386.4400  281.0600 C.3       6 GLY6        0.0000 
     74 CA        228.8600  385.0400  279.1400 C.3       6 GLY6        0.0000 
     75 CA        228.9500  383.5400  279.1700 C.3       6 GLY6        0.0000 
     76 CA        229.0400  382.0500  279.2000 C.3       6 GLY6        0.0000 
     77 CA        228.7900  383.5800  281.2900 C.3       6 GLY6        0.0000 
     78 CA        229.4900  388.1500  282.3300 C.3       6 GLY6        0.0000 
     79 CA        229.7600  383.6600  282.4200 C.3       6 GLY6        0.0000 
     80 CA        229.8500  382.1600  282.4500 C.3       6 GLY6        0.0000 
     81 CA        230.6400  385.2400  283.5300 C.3       6 GLY6        0.0000 
     82 CA        230.7300  383.7400  283.5600 C.3       6 GLY6        0.0000 
     83 CA        230.8200  382.2400  283.5900 C.3       6 GLY6        0.0000 
     84 CA        231.5100  389.7700  282.4700 C.3       6 GLY6        0.0000 
     85 CA        231.6000  388.2800  282.5000 C.3       6 GLY6        0.0000 
     86 CA        233.7900  389.8700  280.5100 C.3       6 GLY6        0.0000 
     87 CA        230.6600  382.2700  285.7100 C.3       6 GLY6        0.0000 
     88 CA        231.7100  383.8200  284.7000 C.3       6 GLY6        0.0000 
     89 CA        231.6300  382.3500  286.8500 C.3       6 GLY6        0.0000 
     90 DU        226.7500  384.9100  278.9800 H         7 CUB7        0.0000 
     91 DU        227.8000  386.4600  277.9700 H         7 CUB7        0.0000 
     92 DU        229.8300  385.1200  280.2800 H         7 CUB7        0.0000 
     93 DU        229.9200  383.6200  280.3100 H         7 CUB7        0.0000 
@<TRIPOS>BOND
@<TRIPOS>SUBSTRUCTURE
     1 SER1        1 GROUP   
     2 ALA2       20 GROUP   
     3 ASP3       46 GROUP   
     4 LYS4       50 GROUP   
     5 PHE5       56 GROUP   
     6 GLY6       61 GROUP   
     7 CUB7       90 GROUP   
@<TRIPOS>SET

