#    Name: 6dpv_9_GDP
#    Modification time : Fri May 22 19:29:34 2020

@<TRIPOS>MOLECULE
6dpv_9_GDP
   28    30     1     0     1
SMALL
NO_CHARGES


@<TRIPOS>ATOM
      1 PB        326.5090  385.8020  173.5040 P.3       1 GDP501      0.0000 
      2 O1B       326.5910  386.9980  172.5830 O.co2     1 GDP501      0.0000 
      3 O2B       325.4260  384.8160  173.1300 O.co2     1 GDP501      0.0000 
      4 O3B       326.5790  386.1670  174.9670 O.co2     1 GDP501      0.0000 
      5 O3A       327.8870  385.0220  173.2080 O.3       1 GDP501      0.0000 
      6 PA        328.2960  383.6280  173.9110 P.3       1 GDP501      0.0000 
      7 O1A       328.1360  382.5040  172.9080 O.co2     1 GDP501      0.0000 
      8 O2A       327.6250  383.4920  175.2580 O.co2     1 GDP501      0.0000 
      9 O5'       329.8560  383.9230  174.2080 O.3       1 GDP501      0.0000 
     10 C5'       330.9730  383.1500  173.7570 C.3       1 GDP501      0.0000 
     11 C4'       331.8860  382.8990  174.9500 C.3       1 GDP501      0.0000 
     12 O4'       331.1850  382.0910  175.8990 O.3       1 GDP501      0.0000 
     13 C3'       333.1550  382.1460  174.5820 C.3       1 GDP501      0.0000 
     14 O3'       334.2380  382.6320  175.3820 O.3       1 GDP501      0.0000 
     15 C2'       332.8350  380.7060  174.9180 C.3       1 GDP501      0.0000 
     16 O2'       334.0040  379.9660  175.2870 O.3       1 GDP501      0.0000 
     17 C1'       331.8700  380.8470  176.0770 C.3       1 GDP501      0.0000 
     18 N9        330.8910  379.7380  176.1000 N.pl3     1 GDP501      0.0000 
     19 C8        329.9290  379.5130  175.1900 C.2       1 GDP501      0.0000 
     20 N7        329.1830  378.4340  175.5380 N.2       1 GDP501      0.0000 
     21 C5        329.6540  377.9710  176.7050 C.2       1 GDP501      0.0000 
     22 C6        329.3240  376.8640  177.6310 C.2       1 GDP501      0.0000 
     23 O6        328.3870  376.0790  177.3860 O.2       1 GDP501      0.0000 
     24 N1        330.0630  376.7240  178.7380 N.am      1 GDP501      0.0000 
     25 C2        331.0860  377.5470  179.0360 C.2       1 GDP501      0.0000 
     26 N2        331.7850  377.3340  180.1770 N.pl3     1 GDP501      0.0000 
     27 N3        331.4470  378.5840  178.2310 N.2       1 GDP501      0.0000 
     28 C4        330.7800  378.8380  177.0760 C.2       1 GDP501      0.0000 
@<TRIPOS>BOND
     1    1    2 ar   
     2    1    3 ar   
     3    1    4 ar   
     4    1    5 1    
     5    5    6 1    
     6    6    7 ar   
     7    6    8 ar   
     8    6    9 1    
     9    9   10 1    
    10   10   11 1    
    11   11   12 1    
    12   11   13 1    
    13   12   17 1    
    14   13   14 1    
    15   13   15 1    
    16   15   16 1    
    17   15   17 1    
    18   17   18 1    
    19   18   19 1    
    20   18   28 1    
    21   19   20 2    
    22   20   21 1    
    23   21   22 1    
    24   21   28 2    
    25   22   23 2    
    26   22   24 am   
    27   24   25 1    
    28   25   26 1    
    29   25   27 2    
    30   27   28 1    
@<TRIPOS>SUBSTRUCTURE
     1 GDP501      1 GROUP   
@<TRIPOS>SET
ATOM$ORANGE STATIC     ATOMS   COLORGROUP SYSTEM 
20 10 10 11 11 13 13 15 15 17 17 19 19 21 21 22 22 25 \
25 28 28 

