#    Name: 6dpv_8_GDP_CAVITY_N1_4
#    Modification time : Fri May 22 19:29:29 2020

@<TRIPOS>MOLECULE
6dpv_8_GDP_CAVITY_N1_4
  122     0     6     0     0
SMALL
NO_CHARGES


@<TRIPOS>ATOM
      1 OG        272.2500  397.3400  162.0900 O.3       1 SER1        0.0000 
      2 OG        272.1700  395.8700  164.2400 O.3       1 SER1        0.0000 
      3 OG        278.3400  396.2900  166.8400 O.3       1 SER1        0.0000 
      4 OG        279.4800  396.3400  165.8600 O.3       1 SER1        0.0000 
      5 OG        280.8000  393.4000  164.9400 O.3       1 SER1        0.0000 
      6 OG        280.3600  397.9200  166.9700 O.3       1 SER1        0.0000 
      7 OG        280.4500  396.4200  167.0000 O.3       1 SER1        0.0000 
      8 OG        280.6300  393.4300  167.0600 O.3       1 SER1        0.0000 
      9 OG        281.7700  393.4800  166.0800 O.3       1 SER1        0.0000 
     10 OG        281.2500  399.5000  168.0800 O.3       1 SER1        0.0000 
     11 OG        281.3400  398.0000  168.1100 O.3       1 SER1        0.0000 
     12 OG        281.4300  396.5100  168.1400 O.3       1 SER1        0.0000 
     13 O         271.2700  397.2600  160.9500 O.2       2 ALA2        0.0000 
     14 N         273.3800  397.3900  161.1200 N.am      2 ALA2        0.0000 
     15 N         273.4700  395.8900  161.1500 N.am      2 ALA2        0.0000 
     16 O         273.2200  397.4200  163.2300 O.2       2 ALA2        0.0000 
     17 N         274.4500  395.9700  162.2800 N.am      2 ALA2        0.0000 
     18 N         274.5400  394.4700  162.3100 N.am      2 ALA2        0.0000 
     19 N         275.5900  396.0200  161.3100 N.am      2 ALA2        0.0000 
     20 N         275.6800  394.5200  161.3400 N.am      2 ALA2        0.0000 
     21 O         273.0600  397.4500  165.3400 O.2       2 ALA2        0.0000 
     22 O         273.1500  395.9500  165.3700 O.2       2 ALA2        0.0000 
     23 O         274.1900  397.5000  164.3700 O.2       2 ALA2        0.0000 
     24 N         275.4200  396.0500  163.4200 N.am      2 ALA2        0.0000 
     25 N         276.5600  396.1000  162.4500 N.am      2 ALA2        0.0000 
     26 N         276.6500  394.6000  162.4700 N.am      2 ALA2        0.0000 
     27 O         274.0300  397.5300  166.4800 O.2       2 ALA2        0.0000 
     28 O         274.1200  396.0400  166.5100 O.2       2 ALA2        0.0000 
     29 N         277.4400  397.6800  163.5500 N.am      2 ALA2        0.0000 
     30 N         277.5300  396.1800  163.5800 N.am      2 ALA2        0.0000 
     31 O         277.7100  393.1900  163.6400 O.2       2 ALA2        0.0000 
     32 O         278.6700  396.2300  162.6100 O.2       2 ALA2        0.0000 
     33 O         276.3200  394.6700  166.7000 O.2       2 ALA2        0.0000 
     34 O         277.2800  397.7100  165.6700 O.2       2 ALA2        0.0000 
     35 O         277.5500  393.2200  165.7600 O.2       2 ALA2        0.0000 
     36 O         278.4200  397.7600  164.6900 O.2       2 ALA2        0.0000 
     37 O         278.6900  393.2700  164.7800 O.2       2 ALA2        0.0000 
     38 O         279.8400  390.3600  165.9800 O.2       2 ALA2        0.0000 
     39 O         279.9300  388.8600  166.0100 O.2       2 ALA2        0.0000 
     40 O         280.0200  387.3600  166.0400 O.2       2 ALA2        0.0000 
     41 O         278.8100  385.8500  169.1600 O.2       2 ALA2        0.0000 
     42 O         279.6700  390.3900  168.0900 O.2       2 ALA2        0.0000 
     43 O         279.7600  388.8900  168.1200 O.2       2 ALA2        0.0000 
     44 O         279.8500  387.3900  168.1500 O.2       2 ALA2        0.0000 
     45 N         279.5100  390.4200  170.2100 N.am      2 ALA2        0.0000 
     46 N         280.4700  393.4600  169.1700 N.am      2 ALA2        0.0000 
     47 N         280.5600  391.9700  169.2000 N.am      2 ALA2        0.0000 
     48 N         280.6500  390.4700  169.2300 N.am      2 ALA2        0.0000 
     49 N         280.7400  388.9700  169.2600 N.am      2 ALA2        0.0000 
     50 O         281.5200  395.0100  168.1700 O.2       2 ALA2        0.0000 
     51 O         281.6100  393.5100  168.2000 O.2       2 ALA2        0.0000 
     52 O         282.5600  396.5500  167.1600 O.2       2 ALA2        0.0000 
     53 O         282.6500  395.0600  167.1900 O.2       2 ALA2        0.0000 
     54 N         280.3900  392.0000  171.3200 N.am      2 ALA2        0.0000 
     55 N         281.5300  392.0500  170.3400 N.am      2 ALA2        0.0000 
     56 N         281.6200  390.5500  170.3700 N.am      2 ALA2        0.0000 
     57 N         282.3100  398.0800  169.2500 N.am      2 ALA2        0.0000 
     58 O         282.4000  396.5900  169.2700 O.2       2 ALA2        0.0000 
     59 N         283.4500  398.1300  168.2700 N.am      2 ALA2        0.0000 
     60 O         283.5400  396.6400  168.3000 O.2       2 ALA2        0.0000 
     61 O         284.7700  395.1900  167.3500 O.2       2 ALA2        0.0000 
     62 O         284.5100  396.7200  169.4400 O.2       2 ALA2        0.0000 
     63 O         285.5600  398.2600  168.4300 O.2       2 ALA2        0.0000 
     64 NZ        271.3600  395.7600  160.9800 N.4       3 LYS4        0.0000 
     65 NZ        272.3400  395.8400  162.1200 N.4       3 LYS4        0.0000 
     66 NZ        273.5600  394.3900  161.1700 N.4       3 LYS4        0.0000 
     67 NZ        280.7100  394.9000  164.9100 N.4       3 LYS4        0.0000 
     68 NZ        281.8400  394.9400  163.9400 N.4       3 LYS4        0.0000 
     69 NZ        281.5000  397.9700  165.9900 N.4       3 LYS4        0.0000 
     70 NZ        281.5900  396.4700  166.0200 N.4       3 LYS4        0.0000 
     71 NZ        281.6800  394.9800  166.0500 N.4       3 LYS4        0.0000 
     72 NZ        282.4700  398.0500  167.1300 N.4       3 LYS4        0.0000 
     73 NZ        283.6100  398.1000  166.1500 N.4       3 LYS4        0.0000 
     74 NZ        284.5900  398.1800  167.2900 N.4       3 LYS4        0.0000 
     75 NZ        284.6800  396.6800  167.3200 N.4       3 LYS4        0.0000 
     76 CZ        279.7500  391.8500  165.9500 C.ar      4 PHE5        0.0000 
     77 CZ        280.8900  391.9000  164.9700 C.ar      4 PHE5        0.0000 
     78 CZ        280.7200  391.9300  167.0900 C.ar      4 PHE5        0.0000 
     79 CZ        280.8100  390.4400  167.1200 C.ar      4 PHE5        0.0000 
     80 CZ        281.7000  392.0100  168.2300 C.ar      4 PHE5        0.0000 
     81 CZ        281.7900  390.5200  168.2600 C.ar      4 PHE5        0.0000 
     82 CA        273.4000  394.4200  163.2900 C.3       5 GLY6        0.0000 
     83 CA        274.3700  394.5100  164.4300 C.3       5 GLY6        0.0000 
     84 CA        275.5100  394.5500  163.4500 C.3       5 GLY6        0.0000 
     85 CA        275.1700  397.5800  165.5100 C.3       5 GLY6        0.0000 
     86 CA        275.3500  394.5900  165.5700 C.3       5 GLY6        0.0000 
     87 CA        276.3100  397.6300  164.5300 C.3       5 GLY6        0.0000 
     88 CA        276.4800  394.6400  164.5900 C.3       5 GLY6        0.0000 
     89 CA        278.5800  397.7300  162.5800 C.3       5 GLY6        0.0000 
     90 CA        276.1400  397.6600  166.6400 C.3       5 GLY6        0.0000 
     91 CA        276.2300  396.1600  166.6700 C.3       5 GLY6        0.0000 
     92 CA        277.4600  394.7200  165.7300 C.3       5 GLY6        0.0000 
     93 CA        279.5500  397.8100  163.7200 C.3       5 GLY6        0.0000 
     94 CA        279.6400  396.3100  163.7500 C.3       5 GLY6        0.0000 
     95 CA        280.7800  396.3600  162.7700 C.3       5 GLY6        0.0000 
     96 CA        278.4300  394.8000  166.8700 C.3       5 GLY6        0.0000 
     97 CA        278.5200  393.3000  166.9000 C.3       5 GLY6        0.0000 
     98 CA        278.6100  391.8000  166.9300 C.3       5 GLY6        0.0000 
     99 CA        280.5300  397.8900  164.8500 C.3       5 GLY6        0.0000 
    100 CA        280.6200  396.3900  164.8800 C.3       5 GLY6        0.0000 
    101 CA        278.5400  390.3400  169.0700 C.3       5 GLY6        0.0000 
    102 CA        279.4100  394.8800  168.0000 C.3       5 GLY6        0.0000 
    103 CA        279.4900  393.3800  168.0300 C.3       5 GLY6        0.0000 
    104 CA        279.5800  391.8800  168.0600 C.3       5 GLY6        0.0000 
    105 CA        279.9400  385.9000  168.1800 C.3       5 GLY6        0.0000 
    106 CA        283.3600  399.6300  168.2400 C.3       5 GLY6        0.0000 
    107 CA        281.3700  392.0800  172.4600 C.3       5 GLY6        0.0000 
    108 CA        285.6500  396.7700  168.4600 C.3       5 GLY6        0.0000 
    109 CA        286.8800  395.3200  167.5100 C.3       5 GLY6        0.0000 
    110 DU        273.3100  395.9200  163.2600 H         6 CUB7        0.0000 
    111 DU        274.2800  396.0000  164.4000 H         6 CUB7        0.0000 
    112 DU        275.2600  396.0800  165.5400 H         6 CUB7        0.0000 
    113 DU        276.3900  396.1300  164.5600 H         6 CUB7        0.0000 
    114 DU        277.6200  394.6800  163.6100 H         6 CUB7        0.0000 
    115 DU        278.7600  394.7300  162.6400 H         6 CUB7        0.0000 
    116 DU        277.3700  396.2100  165.7000 H         6 CUB7        0.0000 
    117 DU        278.5100  396.2600  164.7200 H         6 CUB7        0.0000 
    118 DU        278.6000  394.7700  164.7500 H         6 CUB7        0.0000 
    119 DU        279.7300  394.8100  163.7800 H         6 CUB7        0.0000 
    120 DU        279.5700  394.8500  165.8900 H         6 CUB7        0.0000 
    121 DU        279.6600  393.3500  165.9200 H         6 CUB7        0.0000 
    122 DU        280.5400  394.9300  167.0300 H         6 CUB7        0.0000 
@<TRIPOS>BOND
@<TRIPOS>SUBSTRUCTURE
     1 SER1        1 GROUP   
     2 ALA2       13 GROUP   
     3 LYS4       64 GROUP   
     4 PHE5       76 GROUP   
     5 GLY6       82 GROUP   
     6 CUB7      110 GROUP   
@<TRIPOS>SET

