#    Name: 6dpv_4_GDP
#    Modification time : Fri May 22 19:28:42 2020

@<TRIPOS>MOLECULE
6dpv_4_GDP
   28    30     1     0     1
SMALL
NO_CHARGES


@<TRIPOS>ATOM
      1 PB        327.4360  385.3610  255.1650 P.3       1 GDP501      0.0000 
      2 O1B       327.4940  386.4970  254.1690 O.co2     1 GDP501      0.0000 
      3 O2B       326.3120  384.3810  254.9070 O.co2     1 GDP501      0.0000 
      4 O3B       327.6100  385.8100  256.5970 O.co2     1 GDP501      0.0000 
      5 O3A       328.7850  384.5390  254.8510 O.3       1 GDP501      0.0000 
      6 PA        329.2230  383.1860  255.6130 P.3       1 GDP501      0.0000 
      7 O1A       329.0050  381.9920  254.7070 O.co2     1 GDP501      0.0000 
      8 O2A       328.6260  383.1530  257.0000 O.co2     1 GDP501      0.0000 
      9 O5'       330.7920  383.5120  255.8040 O.3       1 GDP501      0.0000 
     10 C5'       331.9030  382.7190  255.3650 C.3       1 GDP501      0.0000 
     11 C4'       332.7600  382.4080  256.5850 C.3       1 GDP501      0.0000 
     12 O4'       332.0080  381.5870  257.4800 O.3       1 GDP501      0.0000 
     13 C3'       334.0240  381.6360  256.2500 C.3       1 GDP501      0.0000 
     14 O3'       335.0810  382.0780  257.1090 O.3       1 GDP501      0.0000 
     15 C2'       333.6700  380.1900  256.5330 C.3       1 GDP501      0.0000 
     16 O2'       334.8170  379.4330  256.9240 O.3       1 GDP501      0.0000 
     17 C1'       332.6680  380.3300  257.6600 C.3       1 GDP501      0.0000 
     18 N9        331.6720  379.2420  257.6860 N.pl3     1 GDP501      0.0000 
     19 C8        330.7150  379.0110  256.7720 C.2       1 GDP501      0.0000 
     20 N7        329.9510  377.9480  257.1370 N.2       1 GDP501      0.0000 
     21 C5        330.4120  377.5080  258.3140 C.2       1 GDP501      0.0000 
     22 C6        330.0670  376.4300  259.2600 C.2       1 GDP501      0.0000 
     23 O6        329.1200  375.6590  259.0210 O.2       1 GDP501      0.0000 
     24 N1        330.7960  376.3040  260.3740 N.am      1 GDP501      0.0000 
     25 C2        331.8250  377.1240  260.6570 C.2       1 GDP501      0.0000 
     26 N2        332.5200  376.9350  261.8040 N.pl3     1 GDP501      0.0000 
     27 N3        332.2020  378.1350  259.8340 N.2       1 GDP501      0.0000 
     28 C4        331.5440  378.3660  258.6740 C.2       1 GDP501      0.0000 
@<TRIPOS>BOND
     1    1    2 ar   
     2    1    3 ar   
     3    1    4 ar   
     4    1    5 1    
     5    5    6 1    
     6    6    7 ar   
     7    6    8 ar   
     8    6    9 1    
     9    9   10 1    
    10   10   11 1    
    11   11   12 1    
    12   11   13 1    
    13   12   17 1    
    14   13   14 1    
    15   13   15 1    
    16   15   16 1    
    17   15   17 1    
    18   17   18 1    
    19   18   19 1    
    20   18   28 1    
    21   19   20 2    
    22   20   21 1    
    23   21   22 1    
    24   21   28 2    
    25   22   23 2    
    26   22   24 am   
    27   24   25 1    
    28   25   26 1    
    29   25   27 2    
    30   27   28 1    
@<TRIPOS>SUBSTRUCTURE
     1 GDP501      1 GROUP   
@<TRIPOS>SET
ATOM$ORANGE STATIC     ATOMS   COLORGROUP SYSTEM 
20 10 10 11 11 13 13 15 15 17 17 19 19 21 21 22 22 25 \
25 28 28 

