#    Name: 6dpv_7_GDP
#    Modification time : Fri May 22 19:29:20 2020

@<TRIPOS>MOLECULE
6dpv_7_GDP
   28    30     1     0     1
SMALL
NO_CHARGES


@<TRIPOS>ATOM
      1 PB        221.6830  383.7950  155.9660 P.3       1 GDP501      0.0000 
      2 O1B       220.8190  384.5440  154.9770 O.co2     1 GDP501      0.0000 
      3 O2B       221.7960  382.3150  155.6810 O.co2     1 GDP501      0.0000 
      4 O3B       221.3970  384.1610  157.4040 O.co2     1 GDP501      0.0000 
      5 O3A       223.1550  384.3790  155.6730 O.3       1 GDP501      0.0000 
      6 PA        224.4860  383.8840  156.4380 P.3       1 GDP501      0.0000 
      7 O1A       225.2920  383.0110  155.5000 O.co2     1 GDP501      0.0000 
      8 O2A       224.1480  383.3520  157.8100 O.co2     1 GDP501      0.0000 
      9 O5'       225.2110  385.3050  156.6820 O.3       1 GDP501      0.0000 
     10 C5'       226.5190  385.6850  156.2470 C.3       1 GDP501      0.0000 
     11 C4'       227.2840  386.2190  157.4500 C.3       1 GDP501      0.0000 
     12 O4'       227.4660  385.1570  158.3920 O.3       1 GDP501      0.0000 
     13 C3'       228.6670  386.7330  157.0860 C.3       1 GDP501      0.0000 
     14 O3'       228.9730  387.8740  157.8960 O.3       1 GDP501      0.0000 
     15 C2'       229.5840  385.5770  157.4130 C.3       1 GDP501      0.0000 
     16 O2'       230.8930  386.0210  157.7860 O.3       1 GDP501      0.0000 
     17 C1'       228.8660  384.9070  158.5680 C.3       1 GDP501      0.0000 
     18 N9        229.1270  383.4510  158.5810 N.pl3     1 GDP501      0.0000 
     19 C8        228.7080  382.5600  157.6690 C.2       1 GDP501      0.0000 
     20 N7        229.0950  381.3060  158.0140 N.2       1 GDP501      0.0000 
     21 C5        229.7530  381.3830  159.1790 C.2       1 GDP501      0.0000 
     22 C6        230.4230  380.4370  160.1020 C.2       1 GDP501      0.0000 
     23 O6        230.4630  379.2150  159.8580 O.2       1 GDP501      0.0000 
     24 N1        230.9930  380.9270  161.2090 N.am      1 GDP501      0.0000 
     25 C2        230.9750  382.2400  161.5090 C.2       1 GDP501      0.0000 
     26 N2        231.5760  382.6590  162.6490 N.pl3     1 GDP501      0.0000 
     27 N3        230.3800  383.1650  160.7070 N.2       1 GDP501      0.0000 
     28 C4        229.7660  382.8020  159.5530 C.2       1 GDP501      0.0000 
@<TRIPOS>BOND
     1    1    2 ar   
     2    1    3 ar   
     3    1    4 ar   
     4    1    5 1    
     5    5    6 1    
     6    6    7 ar   
     7    6    8 ar   
     8    6    9 1    
     9    9   10 1    
    10   10   11 1    
    11   11   12 1    
    12   11   13 1    
    13   12   17 1    
    14   13   14 1    
    15   13   15 1    
    16   15   16 1    
    17   15   17 1    
    18   17   18 1    
    19   18   19 1    
    20   18   28 1    
    21   19   20 2    
    22   20   21 1    
    23   21   22 1    
    24   21   28 2    
    25   22   23 2    
    26   22   24 am   
    27   24   25 1    
    28   25   26 1    
    29   25   27 2    
    30   27   28 1    
@<TRIPOS>SUBSTRUCTURE
     1 GDP501      1 GROUP   
@<TRIPOS>SET
ATOM$ORANGE STATIC     ATOMS   COLORGROUP SYSTEM 
20 10 10 11 11 13 13 15 15 17 17 19 19 21 21 22 22 25 \
25 28 28 

