#    Name: 6dpv_8_GDP
#    Modification time : Fri May 22 19:29:27 2020

@<TRIPOS>MOLECULE
6dpv_8_GDP
   28    30     1     0     1
SMALL
NO_CHARGES


@<TRIPOS>ATOM
      1 PB        273.8780  396.7960  164.7510 P.3       1 GDP501      0.0000 
      2 O1B       273.4300  397.8970  163.8170 O.co2     1 GDP501      0.0000 
      3 O2B       273.3250  395.4350  164.3970 O.co2     1 GDP501      0.0000 
      4 O3B       273.7890  397.1770  166.2100 O.co2     1 GDP501      0.0000 
      5 O3A       275.4570  396.6840  164.4500 O.3       1 GDP501      0.0000 
      6 PA        276.4280  395.6110  165.1630 P.3       1 GDP501      0.0000 
      7 O1A       276.7650  394.5180  164.1710 O.co2     1 GDP501      0.0000 
      8 O2A       275.8850  395.2160  166.5160 O.co2     1 GDP501      0.0000 
      9 O5'       277.7110  396.5480  165.4550 O.3       1 GDP501      0.0000 
     10 C5'       279.0510  396.3220  165.0070 C.3       1 GDP501      0.0000 
     11 C4'       279.9840  396.4900  166.2000 C.3       1 GDP501      0.0000 
     12 O4'       279.6960  395.4660  167.1560 O.3       1 GDP501      0.0000 
     13 C3'       281.4520  396.3540  165.8290 C.3       1 GDP501      0.0000 
     14 O3'       282.2240  397.2600  166.6230 O.3       1 GDP501      0.0000 
     15 C2'       281.7790  394.9170  166.1700 C.3       1 GDP501      0.0000 
     16 O2'       283.1530  394.7510  166.5380 O.3       1 GDP501      0.0000 
     17 C1'       280.8490  394.6360  167.3330 C.3       1 GDP501      0.0000 
     18 N9        280.4470  393.2120  167.3600 N.pl3     1 GDP501      0.0000 
     19 C8        279.6750  392.5900  166.4550 C.2       1 GDP501      0.0000 
     20 N7        279.4740  391.2950  166.8070 N.2       1 GDP501      0.0000 
     21 C5        280.1060  391.0830  167.9690 C.2       1 GDP501      0.0000 
     22 C6        280.2960  389.9440  168.8950 C.2       1 GDP501      0.0000 
     23 O6        279.7940  388.8290  168.6570 O.2       1 GDP501      0.0000 
     24 N1        281.0290  390.1390  169.9970 N.am      1 GDP501      0.0000 
     25 C2        281.5930  391.3260  170.2900 C.2       1 GDP501      0.0000 
     26 N2        282.3220  391.4370  171.4270 N.pl3     1 GDP501      0.0000 
     27 N3        281.4620  392.4160  169.4860 N.2       1 GDP501      0.0000 
     28 C4        280.7440  392.3530  168.3350 C.2       1 GDP501      0.0000 
@<TRIPOS>BOND
     1    1    2 ar   
     2    1    3 ar   
     3    1    4 ar   
     4    1    5 1    
     5    5    6 1    
     6    6    7 ar   
     7    6    8 ar   
     8    6    9 1    
     9    9   10 1    
    10   10   11 1    
    11   11   12 1    
    12   11   13 1    
    13   12   17 1    
    14   13   14 1    
    15   13   15 1    
    16   15   16 1    
    17   15   17 1    
    18   17   18 1    
    19   18   19 1    
    20   18   28 1    
    21   19   20 2    
    22   20   21 1    
    23   21   22 1    
    24   21   28 2    
    25   22   23 2    
    26   22   24 am   
    27   24   25 1    
    28   25   26 1    
    29   25   27 2    
    30   27   28 1    
@<TRIPOS>SUBSTRUCTURE
     1 GDP501      1 GROUP   
@<TRIPOS>SET
ATOM$ORANGE STATIC     ATOMS   COLORGROUP SYSTEM 
20 10 10 11 11 13 13 15 15 17 17 19 19 21 21 22 22 25 \
25 28 28 

