#    Name: 6dpv_12_GTP
#    Modification time : Fri May 22 19:30:18 2020

@<TRIPOS>MOLECULE
6dpv_12_GTP
   32    34     1     0     1
SMALL
NO_CHARGES


@<TRIPOS>ATOM
      1 PG        327.3730  386.1870  294.6200 P.3       1 GTP501      0.0000 
      2 O1G       327.0780  384.8630  293.9760 O.co2     1 GTP501      0.0000 
      3 O2G       326.1030  386.9730  294.7640 O.co2     1 GTP501      0.0000 
      4 O3G       328.5200  386.9250  293.9890 O.co2     1 GTP501      0.0000 
      5 O3B       327.8800  385.9720  296.1250 O.3       1 GTP501      0.0000 
      6 PB        327.8110  384.5720  296.8960 P.3       1 GTP501      0.0000 
      7 O1B       326.6550  383.7150  296.4450 O.co2     1 GTP501      0.0000 
      8 O2B       327.8030  384.8440  298.3790 O.co2     1 GTP501      0.0000 
      9 O3A       329.2270  383.9550  296.4940 O.3       1 GTP501      0.0000 
     10 PA        329.8880  382.6830  297.1980 P.3       1 GTP501      0.0000 
     11 O1A       329.8570  381.5980  296.1450 O.co2     1 GTP501      0.0000 
     12 O2A       329.2040  382.3970  298.5160 O.co2     1 GTP501      0.0000 
     13 O5'       331.3680  383.2190  297.5240 O.3       1 GTP501      0.0000 
     14 C5'       332.5400  382.5570  297.0690 C.3       1 GTP501      0.0000 
     15 C4'       333.4090  382.2840  298.2800 C.3       1 GTP501      0.0000 
     16 O4'       332.7030  381.4160  299.1700 O.3       1 GTP501      0.0000 
     17 C3'       334.6760  381.5400  297.8810 C.3       1 GTP501      0.0000 
     18 O3'       335.7380  381.8940  298.7720 O.3       1 GTP501      0.0000 
     19 C2'       334.2670  380.1000  298.0400 C.3       1 GTP501      0.0000 
     20 O2'       335.3960  379.2560  298.2590 O.3       1 GTP501      0.0000 
     21 C1'       333.3790  380.1640  299.2640 C.3       1 GTP501      0.0000 
     22 N9        332.3640  379.0980  299.3040 N.pl3     1 GTP501      0.0000 
     23 C8        331.3460  378.9440  298.4540 C.2       1 GTP501      0.0000 
     24 N7        330.5790  377.8920  298.8270 N.2       1 GTP501      0.0000 
     25 C5        331.0910  377.3760  299.9520 C.2       1 GTP501      0.0000 
     26 C6        330.7700  376.2640  300.8820 C.2       1 GTP501      0.0000 
     27 O6        329.7900  375.5210  300.6890 O.2       1 GTP501      0.0000 
     28 N1        331.5650  376.0810  301.9400 N.am      1 GTP501      0.0000 
     29 C2        332.6370  376.8680  302.1660 C.2       1 GTP501      0.0000 
     30 N2        333.4050  376.6420  303.2520 N.pl3     1 GTP501      0.0000 
     31 N3        332.9820  377.9060  301.3670 N.2       1 GTP501      0.0000 
     32 C4        332.2590  378.1990  300.2690 C.2       1 GTP501      0.0000 
@<TRIPOS>BOND
     1    1    2 ar   
     2    1    3 ar   
     3    1    4 ar   
     4    1    5 1    
     5    5    6 1    
     6    6    7 ar   
     7    6    8 ar   
     8    6    9 1    
     9    9   10 1    
    10   10   11 ar   
    11   10   12 ar   
    12   10   13 1    
    13   13   14 1    
    14   14   15 1    
    15   15   16 1    
    16   15   17 1    
    17   16   21 1    
    18   17   18 1    
    19   17   19 1    
    20   19   20 1    
    21   19   21 1    
    22   21   22 1    
    23   22   23 1    
    24   22   32 1    
    25   23   24 2    
    26   24   25 1    
    27   25   26 1    
    28   25   32 2    
    29   26   27 2    
    30   26   28 am   
    31   28   29 1    
    32   29   30 1    
    33   29   31 2    
    34   31   32 1    
@<TRIPOS>SUBSTRUCTURE
     1 GTP501      1 GROUP   
@<TRIPOS>SET
ATOM$ORANGE STATIC     ATOMS   COLORGROUP SYSTEM 
20 14 14 15 15 17 17 19 19 21 21 23 23 25 25 26 26 29 \
29 32 32 

