#    Name: 6dpv_9_GDP_CAVITY_N1_4
#    Modification time : Fri May 22 19:29:36 2020

@<TRIPOS>MOLECULE
6dpv_9_GDP_CAVITY_N1_4
  119     0     6     0     0
SMALL
NO_CHARGES


@<TRIPOS>ATOM
      1 OG        323.3200  385.5800  172.6200 O.3       1 SER1        0.0000 
      2 OG        324.4600  385.6300  171.6400 O.3       1 SER1        0.0000 
      3 OG        325.3400  387.2100  172.7500 O.3       1 SER1        0.0000 
      4 OG        325.4300  385.7100  172.7800 O.3       1 SER1        0.0000 
      5 OG        330.9900  380.0600  174.3600 O.3       1 SER1        0.0000 
      6 OG        331.0800  378.5700  174.3900 O.3       1 SER1        0.0000 
      7 OG        331.7800  383.1400  175.4400 O.3       1 SER1        0.0000 
      8 OG        331.9600  380.1400  175.5000 O.3       1 SER1        0.0000 
      9 OG        333.8000  384.7700  175.5700 O.3       1 SER1        0.0000 
     10 OG        333.8900  383.2700  175.6000 O.3       1 SER1        0.0000 
     11 OG        333.7300  383.3000  177.7200 O.3       1 SER1        0.0000 
     12 O         324.5300  387.0900  169.5000 O.2       2 ALA2        0.0000 
     13 O         325.5100  387.1800  170.6400 O.2       2 ALA2        0.0000 
     14 N         325.6000  385.6800  170.6700 N.am      2 ALA2        0.0000 
     15 N         326.8200  384.2300  169.7200 N.am      2 ALA2        0.0000 
     16 N         326.5700  385.7600  171.8000 N.am      2 ALA2        0.0000 
     17 N         326.6600  384.2600  171.8300 N.am      2 ALA2        0.0000 
     18 N         326.7500  382.7700  171.8600 N.am      2 ALA2        0.0000 
     19 N         327.8000  384.3100  170.8600 N.am      2 ALA2        0.0000 
     20 N         327.8900  382.8100  170.8900 N.am      2 ALA2        0.0000 
     21 O         326.4000  385.7900  173.9200 O.2       2 ALA2        0.0000 
     22 O         326.4900  384.2900  173.9500 O.2       2 ALA2        0.0000 
     23 O         327.8100  381.3500  173.0300 O.2       2 ALA2        0.0000 
     24 N         328.7700  384.3900  172.0000 N.am      2 ALA2        0.0000 
     25 O         328.9500  381.4000  172.0500 O.2       2 ALA2        0.0000 
     26 N         329.9100  384.4400  171.0200 N.am      2 ALA2        0.0000 
     27 N         330.0000  382.9400  171.0500 N.am      2 ALA2        0.0000 
     28 O         326.2400  385.8200  176.0300 O.2       2 ALA2        0.0000 
     29 O         326.3300  384.3300  176.0600 O.2       2 ALA2        0.0000 
     30 O         327.4700  384.3800  175.0900 O.2       2 ALA2        0.0000 
     31 O         327.5600  382.8800  175.1200 O.2       2 ALA2        0.0000 
     32 O         327.7400  379.8800  175.1800 O.2       2 ALA2        0.0000 
     33 O         327.8300  378.3900  175.2100 O.2       2 ALA2        0.0000 
     34 O         328.7900  381.4300  174.1700 O.2       2 ALA2        0.0000 
     35 O         328.8700  379.9300  174.2000 O.2       2 ALA2        0.0000 
     36 O         328.9600  378.4400  174.2300 O.2       2 ALA2        0.0000 
     37 O         330.0100  379.9800  173.2200 O.2       2 ALA2        0.0000 
     38 O         327.7500  376.9200  177.3500 O.2       2 ALA2        0.0000 
     39 O         327.8400  375.4300  177.3800 O.2       2 ALA2        0.0000 
     40 O         328.8900  376.9700  176.3700 O.2       2 ALA2        0.0000 
     41 O         330.7200  384.5500  174.2700 O.2       2 ALA2        0.0000 
     42 N         328.6400  378.5000  178.4600 N.am      2 ALA2        0.0000 
     43 N         328.7300  377.0000  178.4900 N.am      2 ALA2        0.0000 
     44 N         329.7700  378.5500  177.4800 N.am      2 ALA2        0.0000 
     45 N         329.6100  378.5800  179.6000 N.am      2 ALA2        0.0000 
     46 N         330.7500  378.6300  178.6200 N.am      2 ALA2        0.0000 
     47 N         330.8400  377.1300  178.6500 N.am      2 ALA2        0.0000 
     48 O         331.8000  380.1800  177.6100 O.2       2 ALA2        0.0000 
     49 O         331.8900  378.6800  177.6400 O.2       2 ALA2        0.0000 
     50 O         332.8400  381.7200  176.6100 O.2       2 ALA2        0.0000 
     51 O         332.9300  380.2300  176.6400 O.2       2 ALA2        0.0000 
     52 O         334.0700  380.2700  175.6600 O.2       2 ALA2        0.0000 
     53 N         331.8100  377.2100  179.7900 N.am      2 ALA2        0.0000 
     54 O         333.8200  381.8000  177.7500 O.2       2 ALA2        0.0000 
     55 N         334.8600  383.3500  176.7400 N.am      2 ALA2        0.0000 
     56 O         334.9500  381.8500  176.7700 O.2       2 ALA2        0.0000 
     57 N         335.9300  381.9300  177.9100 N.am      2 ALA2        0.0000 
     58 N         337.0700  381.9800  176.9300 N.am      2 ALA2        0.0000 
     59 NZ        323.4800  385.5500  170.5000 N.4       3 LYS4        0.0000 
     60 NZ        324.6200  385.6000  169.5300 N.4       3 LYS4        0.0000 
     61 NZ        324.7100  384.1000  169.5600 N.4       3 LYS4        0.0000 
     62 NZ        324.5500  384.1300  171.6700 N.4       3 LYS4        0.0000 
     63 NZ        325.6900  384.1800  170.6900 N.4       3 LYS4        0.0000 
     64 NZ        333.0100  381.6900  174.4900 N.4       3 LYS4        0.0000 
     65 NZ        333.1000  380.1900  174.5200 N.4       3 LYS4        0.0000 
     66 NZ        333.9800  381.7700  175.6300 N.4       3 LYS4        0.0000 
     67 NZ        335.1200  381.8200  174.6500 N.4       3 LYS4        0.0000 
     68 NZ        336.5300  377.3800  173.7700 N.4       3 LYS4        0.0000 
     69 NZ        336.0000  383.4000  175.7600 N.4       3 LYS4        0.0000 
     70 NZ        336.0900  381.9000  175.7900 N.4       3 LYS4        0.0000 
     71 NZ        336.1800  380.4000  175.8200 N.4       3 LYS4        0.0000 
     72 NZ        336.2700  378.9100  175.8500 N.4       3 LYS4        0.0000 
     73 NZ        337.2300  381.9500  174.8200 N.4       3 LYS4        0.0000 
     74 NZ        337.4100  378.9600  174.8800 N.4       3 LYS4        0.0000 
     75 CZ        329.0500  376.9400  174.2600 C.ar      4 PHE5        0.0000 
     76 CZ        328.9800  375.4700  176.4000 C.ar      4 PHE5        0.0000 
     77 CZ        329.9400  378.5200  175.3700 C.ar      4 PHE5        0.0000 
     78 CZ        330.0300  377.0200  175.4000 C.ar      4 PHE5        0.0000 
     79 CZ        329.8600  377.0500  177.5100 C.ar      4 PHE5        0.0000 
     80 CZ        329.9500  375.5600  177.5400 C.ar      4 PHE5        0.0000 
     81 CZ        330.9100  378.6000  176.5100 C.ar      4 PHE5        0.0000 
     82 CZ        331.0000  377.1000  176.5400 C.ar      4 PHE5        0.0000 
     83 CA        324.2900  385.6600  173.7600 C.3       5 GLY6        0.0000 
     84 CA        325.5200  384.2100  172.8100 C.3       5 GLY6        0.0000 
     85 CA        325.2700  385.7400  174.8900 C.3       5 GLY6        0.0000 
     86 CA        327.5400  385.8400  172.9400 C.3       5 GLY6        0.0000 
     87 CA        327.7200  382.8500  173.0000 C.3       5 GLY6        0.0000 
     88 CA        327.3800  385.8700  175.0600 C.3       5 GLY6        0.0000 
     89 CA        328.6100  384.4200  174.1100 C.3       5 GLY6        0.0000 
     90 CA        329.7400  384.4700  173.1300 C.3       5 GLY6        0.0000 
     91 CA        330.8800  384.5200  172.1600 C.3       5 GLY6        0.0000 
     92 CA        332.1100  383.0700  171.2100 C.3       5 GLY6        0.0000 
     93 CA        327.6600  378.4200  177.3200 C.3       5 GLY6        0.0000 
     94 CA        328.4400  384.4600  176.2200 C.3       5 GLY6        0.0000 
     95 CA        328.8000  378.4700  176.3400 C.3       5 GLY6        0.0000 
     96 CA        329.5800  384.5100  175.2500 C.3       5 GLY6        0.0000 
     97 CA        329.6700  383.0100  175.2800 C.3       5 GLY6        0.0000 
     98 CA        329.7600  381.5100  175.3100 C.3       5 GLY6        0.0000 
     99 CA        329.8500  380.0100  175.3400 C.3       5 GLY6        0.0000 
    100 CA        331.8500  384.6000  173.3000 C.3       5 GLY6        0.0000 
    101 CA        332.0300  381.6100  173.3500 C.3       5 GLY6        0.0000 
    102 CA        333.1700  381.6600  172.3800 C.3       5 GLY6        0.0000 
    103 CA        330.7300  381.5900  176.4500 C.3       5 GLY6        0.0000 
    104 CA        330.8200  380.1000  176.4800 C.3       5 GLY6        0.0000 
    105 CA        331.7100  381.6700  177.5800 C.3       5 GLY6        0.0000 
    106 CA        336.9800  383.4800  176.9000 C.3       5 GLY6        0.0000 
    107 CA        337.1600  380.4900  176.9600 C.3       5 GLY6        0.0000 
    108 DU        327.6300  384.3400  172.9700 H         6 CUB7        0.0000 
    109 DU        328.8600  382.9000  172.0200 H         6 CUB7        0.0000 
    110 DU        328.7000  382.9300  174.1400 H         6 CUB7        0.0000 
    111 DU        329.8300  382.9800  173.1600 H         6 CUB7        0.0000 
    112 DU        329.9200  381.4800  173.1900 H         6 CUB7        0.0000 
    113 DU        330.9700  383.0300  172.1900 H         6 CUB7        0.0000 
    114 DU        331.0600  381.5300  172.2200 H         6 CUB7        0.0000 
    115 DU        330.8100  383.0600  174.3000 H         6 CUB7        0.0000 
    116 DU        330.9000  381.5600  174.3300 H         6 CUB7        0.0000 
    117 DU        331.9400  383.1100  173.3200 H         6 CUB7        0.0000 
    118 DU        331.8700  381.6400  175.4700 H         6 CUB7        0.0000 
    119 DU        332.9200  383.1900  174.4600 H         6 CUB7        0.0000 
@<TRIPOS>BOND
@<TRIPOS>SUBSTRUCTURE
     1 SER1        1 GROUP   
     2 ALA2       12 GROUP   
     3 LYS4       59 GROUP   
     4 PHE5       75 GROUP   
     5 GLY6       83 GROUP   
     6 CUB7      108 GROUP   
@<TRIPOS>SET

