#    Name: 6j5w_1_ADP
#    Modification time : Fri May 22 19:30:31 2020

@<TRIPOS>MOLECULE
6j5w_1_ADP
   27    29     1     0     1
SMALL
NO_CHARGES


@<TRIPOS>ATOM
      1 PB         86.7590  111.4150   91.7580 P.3       1 ADP901      0.0000 
      2 O1B        86.0180  111.7430   90.4940 O.co2     1 ADP901      0.0000 
      3 O2B        87.6070  112.5410   92.2810 O.co2     1 ADP901      0.0000 
      4 O3B        87.4730  110.0910   91.7240 O.co2     1 ADP901      0.0000 
      5 PA         84.3500  110.2750   92.5780 P.3       1 ADP901      0.0000 
      6 O1A        83.4800  110.8630   91.5050 O.co2     1 ADP901      0.0000 
      7 O2A        84.9110  108.8900   92.4100 O.co2     1 ADP901      0.0000 
      8 O3A        85.5840  111.2680   92.8490 O.3       1 ADP901      0.0000 
      9 O5'        83.5080  110.2670   93.9380 O.3       1 ADP901      0.0000 
     10 C5'        83.2160  108.9930   94.4910 C.3       1 ADP901      0.0000 
     11 C4'        81.8550  108.9780   95.1520 C.3       1 ADP901      0.0000 
     12 O4'        81.2210  110.2400   95.0340 O.3       1 ADP901      0.0000 
     13 C3'        80.9480  107.9860   94.4570 C.3       1 ADP901      0.0000 
     14 O3'        80.8280  106.7990   95.2370 O.3       1 ADP901      0.0000 
     15 C2'        79.6060  108.6660   94.3560 C.3       1 ADP901      0.0000 
     16 O2'        78.6420  107.9480   95.1190 O.3       1 ADP901      0.0000 
     17 C1'        79.8150  110.0240   94.9800 C.3       1 ADP901      0.0000 
     18 N9         79.1670  111.0750   94.1740 N.pl3     1 ADP901      0.0000 
     19 C8         79.8000  111.9510   93.3890 C.2       1 ADP901      0.0000 
     20 N7         78.9180  112.7900   92.8030 N.2       1 ADP901      0.0000 
     21 C5         77.6990  112.4490   93.2300 C.ar      1 ADP901      0.0000 
     22 C6         76.3330  112.9280   93.0000 C.ar      1 ADP901      0.0000 
     23 N6         76.1090  113.9720   92.1770 N.pl3     1 ADP901      0.0000 
     24 N1         75.3290  112.3010   93.6350 N.ar      1 ADP901      0.0000 
     25 C2         75.5580  111.2660   94.4500 C.ar      1 ADP901      0.0000 
     26 N3         76.7780  110.7820   94.7060 N.ar      1 ADP901      0.0000 
     27 C4         77.8660  111.3200   94.1300 C.ar      1 ADP901      0.0000 
@<TRIPOS>BOND
     1    1    2 ar   
     2    1    3 ar   
     3    1    4 ar   
     4    1    8 1    
     5    5    6 ar   
     6    5    7 ar   
     7    5    8 1    
     8    5    9 1    
     9    9   10 1    
    10   10   11 1    
    11   11   12 1    
    12   11   13 1    
    13   12   17 1    
    14   13   14 1    
    15   13   15 1    
    16   15   16 1    
    17   15   17 1    
    18   17   18 1    
    19   18   19 1    
    20   18   27 1    
    21   19   20 2    
    22   20   21 1    
    23   21   22 ar   
    24   21   27 ar   
    25   22   23 1    
    26   22   24 ar   
    27   24   25 ar   
    28   25   26 ar   
    29   26   27 ar   
@<TRIPOS>SUBSTRUCTURE
     1 ADP901      1 GROUP   
@<TRIPOS>SET
ATOM$ORANGE STATIC     ATOMS   COLORGROUP SYSTEM 
20 10 10 11 11 13 13 15 15 17 17 19 19 21 21 22 22 25 \
25 27 27 

