#    Name: 6co7_4_CLR
#    Modification time : Fri May 22 19:34:15 2020

@<TRIPOS>MOLECULE
6co7_4_CLR
   28    31     1     0     0
SMALL
NO_CHARGES


@<TRIPOS>ATOM
      1 C1        183.6230  210.4190  150.0310 C.3       1 CLR3000     0.0000 
      2 C2        182.8540  210.6840  148.7390 C.3       1 CLR3000     0.0000 
      3 C3        183.0580  212.1110  148.2430 C.3       1 CLR3000     0.0000 
      4 C4        182.4110  213.0870  149.2200 C.3       1 CLR3000     0.0000 
      5 C5        182.4330  212.4960  150.6090 C.2       1 CLR3000     0.0000 
      6 C6        181.4210  212.7770  151.4450 C.2       1 CLR3000     0.0000 
      7 C7        181.4240  212.3820  152.9000 C.3       1 CLR3000     0.0000 
      8 C8        182.8550  212.1330  153.3380 C.3       1 CLR3000     0.0000 
      9 C9        183.5070  211.1060  152.4200 C.3       1 CLR3000     0.0000 
     10 C10       183.6010  211.6110  150.9820 C.3       1 CLR3000     0.0000 
     11 C11       184.8850  210.6510  152.9170 C.3       1 CLR3000     0.0000 
     12 C12       184.9160  210.2770  154.4000 C.3       1 CLR3000     0.0000 
     13 C13       184.3410  211.4400  155.1850 C.3       1 CLR3000     0.0000 
     14 C14       182.9030  211.6080  154.7610 C.3       1 CLR3000     0.0000 
     15 C15       182.2740  212.4680  155.8470 C.3       1 CLR3000     0.0000 
     16 C16       183.0190  212.0620  157.1200 C.3       1 CLR3000     0.0000 
     17 C17       184.2580  211.2760  156.6910 C.3       1 CLR3000     0.0000 
     18 C18       185.1210  212.7070  154.8570 C.3       1 CLR3000     0.0000 
     19 C19       184.8790  212.4240  150.8200 C.3       1 CLR3000     0.0000 
     20 C20       185.5120  211.7640  157.4030 C.3       1 CLR3000     0.0000 
     21 C21       186.6950  210.8500  157.1090 C.3       1 CLR3000     0.0000 
     22 C22       185.2630  211.8810  158.9020 C.3       1 CLR3000     0.0000 
     23 C23       186.4760  212.4430  159.6340 C.3       1 CLR3000     0.0000 
     24 C24       186.1730  212.6100  161.1190 C.3       1 CLR3000     0.0000 
     25 C25       187.3850  213.1270  161.8830 C.3       1 CLR3000     0.0000 
     26 C26       188.5540  212.1540  161.7820 C.3       1 CLR3000     0.0000 
     27 C27       187.7860  214.5160  161.4000 C.3       1 CLR3000     0.0000 
     28 O1        184.4600  212.3800  148.1490 O.3       1 CLR3000     0.0000 
@<TRIPOS>BOND
     1    1    2 1    
     2    1   10 1    
     3    2    3 1    
     4    3    4 1    
     5    3   28 1    
     6    4    5 1    
     7    5    6 2    
     8    5   10 1    
     9    6    7 1    
    10    7    8 1    
    11    8    9 1    
    12    8   14 1    
    13    9   10 1    
    14    9   11 1    
    15   10   19 1    
    16   11   12 1    
    17   12   13 1    
    18   13   14 1    
    19   13   17 1    
    20   13   18 1    
    21   14   15 1    
    22   15   16 1    
    23   16   17 1    
    24   17   20 1    
    25   20   21 1    
    26   20   22 1    
    27   22   23 1    
    28   23   24 1    
    29   24   25 1    
    30   25   26 1    
    31   25   27 1    
@<TRIPOS>SUBSTRUCTURE
     1 CLR3000     1 GROUP   
@<TRIPOS>SET

