#    Name: 6co7_3_CLR
#    Modification time : Fri May 22 19:34:08 2020

@<TRIPOS>MOLECULE
6co7_3_CLR
   28    31     1     0     0
SMALL
NO_CHARGES


@<TRIPOS>ATOM
      1 C1        210.4270  211.9120  150.0370 C.3       1 CLR3000     0.0000 
      2 C2        210.6920  212.6810  148.7450 C.3       1 CLR3000     0.0000 
      3 C3        212.1190  212.4780  148.2490 C.3       1 CLR3000     0.0000 
      4 C4        213.0950  213.1250  149.2260 C.3       1 CLR3000     0.0000 
      5 C5        212.5030  213.1020  150.6150 C.2       1 CLR3000     0.0000 
      6 C6        212.7840  214.1140  151.4510 C.2       1 CLR3000     0.0000 
      7 C7        212.3890  214.1100  152.9060 C.3       1 CLR3000     0.0000 
      8 C8        212.1400  212.6790  153.3440 C.3       1 CLR3000     0.0000 
      9 C9        211.1130  212.0280  152.4260 C.3       1 CLR3000     0.0000 
     10 C10       211.6180  211.9340  150.9880 C.3       1 CLR3000     0.0000 
     11 C11       210.6580  210.6500  152.9220 C.3       1 CLR3000     0.0000 
     12 C12       210.2840  210.6180  154.4050 C.3       1 CLR3000     0.0000 
     13 C13       211.4470  211.1940  155.1900 C.3       1 CLR3000     0.0000 
     14 C14       211.6150  212.6320  154.7670 C.3       1 CLR3000     0.0000 
     15 C15       212.4750  213.2610  155.8530 C.3       1 CLR3000     0.0000 
     16 C16       212.0690  212.5160  157.1260 C.3       1 CLR3000     0.0000 
     17 C17       211.2830  211.2770  156.6970 C.3       1 CLR3000     0.0000 
     18 C18       212.7130  210.4130  154.8630 C.3       1 CLR3000     0.0000 
     19 C19       212.4320  210.6560  150.8260 C.3       1 CLR3000     0.0000 
     20 C20       211.7700  210.0230  157.4080 C.3       1 CLR3000     0.0000 
     21 C21       210.8570  208.8410  157.1140 C.3       1 CLR3000     0.0000 
     22 C22       211.8870  210.2720  158.9070 C.3       1 CLR3000     0.0000 
     23 C23       212.4500  209.0590  159.6400 C.3       1 CLR3000     0.0000 
     24 C24       212.6160  209.3620  161.1250 C.3       1 CLR3000     0.0000 
     25 C25       213.1330  208.1490  161.8890 C.3       1 CLR3000     0.0000 
     26 C26       212.1600  206.9820  161.7870 C.3       1 CLR3000     0.0000 
     27 C27       214.5220  207.7470  161.4060 C.3       1 CLR3000     0.0000 
     28 O1        212.3880  211.0760  148.1550 O.3       1 CLR3000     0.0000 
@<TRIPOS>BOND
     1    1    2 1    
     2    1   10 1    
     3    2    3 1    
     4    3    4 1    
     5    3   28 1    
     6    4    5 1    
     7    5    6 2    
     8    5   10 1    
     9    6    7 1    
    10    7    8 1    
    11    8    9 1    
    12    8   14 1    
    13    9   10 1    
    14    9   11 1    
    15   10   19 1    
    16   11   12 1    
    17   12   13 1    
    18   13   14 1    
    19   13   17 1    
    20   13   18 1    
    21   14   15 1    
    22   15   16 1    
    23   16   17 1    
    24   17   20 1    
    25   20   21 1    
    26   20   22 1    
    27   22   23 1    
    28   23   24 1    
    29   24   25 1    
    30   25   26 1    
    31   25   27 1    
@<TRIPOS>SUBSTRUCTURE
     1 CLR3000     1 GROUP   
@<TRIPOS>SET

