#    Name: 6co7_2_CLR
#    Modification time : Fri May 22 19:34:01 2020

@<TRIPOS>MOLECULE
6co7_2_CLR
   28    31     1     0     0
SMALL
NO_CHARGES


@<TRIPOS>ATOM
      1 C1        211.9220  185.1120  150.0350 C.3       1 CLR3000     0.0000 
      2 C2        212.6910  184.8470  148.7430 C.3       1 CLR3000     0.0000 
      3 C3        212.4890  183.4200  148.2470 C.3       1 CLR3000     0.0000 
      4 C4        213.1360  182.4450  149.2240 C.3       1 CLR3000     0.0000 
      5 C5        213.1120  183.0350  150.6130 C.2       1 CLR3000     0.0000 
      6 C6        214.1240  182.7540  151.4490 C.2       1 CLR3000     0.0000 
      7 C7        214.1200  183.1490  152.9040 C.3       1 CLR3000     0.0000 
      8 C8        212.6890  183.3970  153.3420 C.3       1 CLR3000     0.0000 
      9 C9        212.0370  184.4250  152.4240 C.3       1 CLR3000     0.0000 
     10 C10       211.9440  183.9200  150.9860 C.3       1 CLR3000     0.0000 
     11 C11       210.6590  184.8800  152.9200 C.3       1 CLR3000     0.0000 
     12 C12       210.6290  185.2540  154.4030 C.3       1 CLR3000     0.0000 
     13 C13       211.2030  184.0910  155.1880 C.3       1 CLR3000     0.0000 
     14 C14       212.6410  183.9220  154.7650 C.3       1 CLR3000     0.0000 
     15 C15       213.2700  183.0630  155.8510 C.3       1 CLR3000     0.0000 
     16 C16       212.5250  183.4680  157.1240 C.3       1 CLR3000     0.0000 
     17 C17       211.2870  184.2550  156.6950 C.3       1 CLR3000     0.0000 
     18 C18       210.4230  182.8240  154.8600 C.3       1 CLR3000     0.0000 
     19 C19       210.6660  183.1070  150.8230 C.3       1 CLR3000     0.0000 
     20 C20       210.0320  183.7660  157.4050 C.3       1 CLR3000     0.0000 
     21 C21       208.8500  184.6790  157.1110 C.3       1 CLR3000     0.0000 
     22 C22       210.2820  183.6500  158.9050 C.3       1 CLR3000     0.0000 
     23 C23       209.0680  183.0860  159.6360 C.3       1 CLR3000     0.0000 
     24 C24       209.3710  182.9200  161.1210 C.3       1 CLR3000     0.0000 
     25 C25       208.1580  182.4020  161.8850 C.3       1 CLR3000     0.0000 
     26 C26       206.9900  183.3760  161.7830 C.3       1 CLR3000     0.0000 
     27 C27       207.7570  181.0130  161.4020 C.3       1 CLR3000     0.0000 
     28 O1        211.0870  183.1510  148.1520 O.3       1 CLR3000     0.0000 
@<TRIPOS>BOND
     1    1    2 1    
     2    1   10 1    
     3    2    3 1    
     4    3    4 1    
     5    3   28 1    
     6    4    5 1    
     7    5    6 2    
     8    5   10 1    
     9    6    7 1    
    10    7    8 1    
    11    8    9 1    
    12    8   14 1    
    13    9   10 1    
    14    9   11 1    
    15   10   19 1    
    16   11   12 1    
    17   12   13 1    
    18   13   14 1    
    19   13   17 1    
    20   13   18 1    
    21   14   15 1    
    22   15   16 1    
    23   16   17 1    
    24   17   20 1    
    25   20   21 1    
    26   20   22 1    
    27   22   23 1    
    28   23   24 1    
    29   24   25 1    
    30   25   26 1    
    31   25   27 1    
@<TRIPOS>SUBSTRUCTURE
     1 CLR3000     1 GROUP   
@<TRIPOS>SET

