#    Name: 6co7_1_CLR
#    Modification time : Fri May 22 19:33:53 2020

@<TRIPOS>MOLECULE
6co7_1_CLR
   28    31     1     0     0
SMALL
NO_CHARGES


@<TRIPOS>ATOM
      1 C1        185.1160  183.6080  150.0280 C.3       1 CLR3000     0.0000 
      2 C2        184.8520  182.8390  148.7360 C.3       1 CLR3000     0.0000 
      3 C3        183.4250  183.0420  148.2400 C.3       1 CLR3000     0.0000 
      4 C4        182.4500  182.3950  149.2170 C.3       1 CLR3000     0.0000 
      5 C5        183.0400  182.4180  150.6060 C.2       1 CLR3000     0.0000 
      6 C6        182.7600  181.4060  151.4420 C.2       1 CLR3000     0.0000 
      7 C7        183.1540  181.4100  152.8970 C.3       1 CLR3000     0.0000 
      8 C8        183.4020  182.8410  153.3350 C.3       1 CLR3000     0.0000 
      9 C9        184.4290  183.4930  152.4170 C.3       1 CLR3000     0.0000 
     10 C10       183.9240  183.5860  150.9790 C.3       1 CLR3000     0.0000 
     11 C11       184.8840  184.8710  152.9130 C.3       1 CLR3000     0.0000 
     12 C12       185.2580  184.9020  154.3960 C.3       1 CLR3000     0.0000 
     13 C13       184.0950  184.3270  155.1810 C.3       1 CLR3000     0.0000 
     14 C14       183.9270  182.8890  154.7580 C.3       1 CLR3000     0.0000 
     15 C15       183.0680  182.2600  155.8440 C.3       1 CLR3000     0.0000 
     16 C16       183.4730  183.0050  157.1170 C.3       1 CLR3000     0.0000 
     17 C17       184.2590  184.2440  156.6880 C.3       1 CLR3000     0.0000 
     18 C18       182.8280  185.1070  154.8530 C.3       1 CLR3000     0.0000 
     19 C19       183.1110  184.8640  150.8160 C.3       1 CLR3000     0.0000 
     20 C20       183.7710  185.4980  157.3990 C.3       1 CLR3000     0.0000 
     21 C21       184.6840  186.6810  157.1050 C.3       1 CLR3000     0.0000 
     22 C22       183.6540  185.2490  158.8980 C.3       1 CLR3000     0.0000 
     23 C23       183.0900  186.4620  159.6300 C.3       1 CLR3000     0.0000 
     24 C24       182.9240  186.1590  161.1150 C.3       1 CLR3000     0.0000 
     25 C25       182.4060  187.3720  161.8790 C.3       1 CLR3000     0.0000 
     26 C26       183.3790  188.5400  161.7770 C.3       1 CLR3000     0.0000 
     27 C27       181.0170  187.7730  161.3960 C.3       1 CLR3000     0.0000 
     28 O1        183.1550  184.4440  148.1450 O.3       1 CLR3000     0.0000 
@<TRIPOS>BOND
     1    1    2 1    
     2    1   10 1    
     3    2    3 1    
     4    3    4 1    
     5    3   28 1    
     6    4    5 1    
     7    5    6 2    
     8    5   10 1    
     9    6    7 1    
    10    7    8 1    
    11    8    9 1    
    12    8   14 1    
    13    9   10 1    
    14    9   11 1    
    15   10   19 1    
    16   11   12 1    
    17   12   13 1    
    18   13   14 1    
    19   13   17 1    
    20   13   18 1    
    21   14   15 1    
    22   15   16 1    
    23   16   17 1    
    24   17   20 1    
    25   20   21 1    
    26   20   22 1    
    27   22   23 1    
    28   23   24 1    
    29   24   25 1    
    30   25   26 1    
    31   25   27 1    
@<TRIPOS>SUBSTRUCTURE
     1 CLR3000     1 GROUP   
@<TRIPOS>SET

