#    Name: 6cz1_2_3FD_CAVITY_N1_ALL
#    Modification time : Fri May 22 19:25:14 2020

@<TRIPOS>MOLECULE
6cz1_2_3FD_CAVITY_N1_ALL
  102     0     7     0     0
SMALL
NO_CHARGES


@<TRIPOS>ATOM
      1 OG        -22.4600   -0.5700   -7.0900 O.3       1 SER1        0.0000 
      2 OG        -20.1100    1.4100   -8.4300 O.3       1 SER1        0.0000 
      3 OG        -20.9000    1.4100   -6.4600 O.3       1 SER1        0.0000 
      4 OG        -19.5500    1.6800   -7.0600 O.3       1 SER1        0.0000 
      5 OG        -16.3000    2.4900   -6.9000 O.3       1 SER1        0.0000 
      6 OG        -15.7500    2.7500   -5.5300 O.3       1 SER1        0.0000 
      7 OG        -12.9900   -2.7900   -5.5600 O.3       1 SER1        0.0000 
      8 OG        -12.6400   -4.2400   -5.4200 O.3       1 SER1        0.0000 
      9 OG        -11.6500   -2.5200   -6.1600 O.3       1 SER1        0.0000 
     10 O         -25.5900   -2.5600   -3.7800 O.2       2 ALA2        0.0000 
     11 N         -24.0400   -0.5700   -3.1500 N.am      2 ALA2        0.0000 
     12 N         -12.2000   -2.7800   -7.5300 N.am      2 ALA2        0.0000 
     13 N         -23.4900   -0.3100   -1.7900 N.am      2 ALA2        0.0000 
     14 N         -23.1300   -1.7600   -1.6400 N.am      2 ALA2        0.0000 
     15 N         -22.7800   -3.2100   -1.5000 N.am      2 ALA2        0.0000 
     16 O         -17.4500    3.9400   -5.0700 O.2       2 ALA2        0.0000 
     17 N         -16.3900   -0.4200   -4.6500 N.am      2 ALA2        0.0000 
     18 N         -15.0400   -0.1500   -5.2500 N.am      2 ALA2        0.0000 
     19 N         -14.6900   -1.6000   -5.1000 N.am      2 ALA2        0.0000 
     20 N         -13.7000    0.1200   -5.8500 N.am      2 ALA2        0.0000 
     21 N         -13.3500   -1.3300   -5.7100 N.am      2 ALA2        0.0000 
     22 N         -22.5800   -1.4900   -0.2800 N.am      2 ALA2        0.0000 
     23 OD1       -15.9500    1.0300   -6.7500 O.co2     3 ASP3        0.0000 
     24 OD1       -16.8300   -1.8700   -2.5400 O.co2     3 ASP3        0.0000 
     25 OD1       -15.8400   -0.1500   -3.2800 O.co2     3 ASP3        0.0000 
     26 OD1       -15.4900   -1.6000   -3.1400 O.co2     3 ASP3        0.0000 
     27 OD1       -17.2800   -3.3200   -0.4300 O.co2     3 ASP3        0.0000 
     28 NZ        -25.5000    0.3400   -6.0300 N.4       4 LYS4        0.0000 
     29 NZ        -25.1500   -1.1100   -5.8900 N.4       4 LYS4        0.0000 
     30 NZ        -22.1000   -2.0200   -6.9500 N.4       4 LYS4        0.0000 
     31 NZ        -21.1100   -0.3100   -7.6900 N.4       4 LYS4        0.0000 
     32 NZ        -20.5500   -0.0400   -6.3200 N.4       4 LYS4        0.0000 
     33 NZ        -20.2000   -1.4900   -6.1800 N.4       4 LYS4        0.0000 
     34 NZ        -19.2000    0.2300   -6.9200 N.4       4 LYS4        0.0000 
     35 NZ        -18.2100    1.9500   -7.6600 N.4       4 LYS4        0.0000 
     36 NZ        -19.6500   -1.2200   -4.8100 N.4       4 LYS4        0.0000 
     37 NZ        -18.6500    0.5000   -5.5500 N.4       4 LYS4        0.0000 
     38 NZ        -18.3000   -0.9500   -5.4100 N.4       4 LYS4        0.0000 
     39 NZ        -17.3000    0.7700   -6.1500 N.4       4 LYS4        0.0000 
     40 NZ        -16.9500   -0.6900   -6.0100 N.4       4 LYS4        0.0000 
     41 NZ        -15.6000   -0.4200   -6.6100 N.4       4 LYS4        0.0000 
     42 NZ        -20.2300    0.5000   -1.6200 N.4       4 LYS4        0.0000 
     43 NZ        -19.8800   -0.9500   -1.4800 N.4       4 LYS4        0.0000 
     44 NZ        -19.5300   -2.4100   -1.3400 N.4       4 LYS4        0.0000 
     45 NZ        -19.2400    2.2200   -2.3600 N.4       4 LYS4        0.0000 
     46 NZ        -18.8900    0.7700   -2.2200 N.4       4 LYS4        0.0000 
     47 NZ        -18.5300   -0.6900   -2.0800 N.4       4 LYS4        0.0000 
     48 NZ        -18.1800   -2.1400   -1.9400 N.4       4 LYS4        0.0000 
     49 NZ        -17.8900    2.4800   -2.9600 N.4       4 LYS4        0.0000 
     50 NZ        -17.1900   -0.4200   -2.6800 N.4       4 LYS4        0.0000 
     51 CZ        -24.9500    0.6100   -4.6600 C.ar      5 PHE5        0.0000 
     52 CZ        -23.6000    0.8800   -5.2600 C.ar      5 PHE5        0.0000 
     53 CZ        -22.2500    1.1500   -5.8600 C.ar      5 PHE5        0.0000 
     54 CZ        -23.0400    1.1500   -3.8900 C.ar      5 PHE5        0.0000 
     55 CZ        -21.7000    1.4100   -4.5000 C.ar      5 PHE5        0.0000 
     56 CZ        -20.3500    1.6800   -5.1000 C.ar      5 PHE5        0.0000 
     57 CZ        -19.0000    1.9500   -5.7000 C.ar      5 PHE5        0.0000 
     58 CZ        -19.7900    1.9500   -3.7300 C.ar      5 PHE5        0.0000 
     59 CZ        -18.8000    3.6700   -4.4700 C.ar      5 PHE5        0.0000 
     60 CZ        -19.5900    3.6700   -2.5000 C.ar      5 PHE5        0.0000 
     61 CA        -24.3600   -1.1100   -7.8600 C.3       6 GLY6        0.0000 
     62 CA        -24.1600    0.6100   -6.6300 C.3       6 GLY6        0.0000 
     63 CA        -24.3900    0.8800   -3.2900 C.3       6 GLY6        0.0000 
     64 CA        -18.0000    3.6700   -6.4400 C.3       6 GLY6        0.0000 
     65 CA        -13.9000   -1.6000   -7.0700 C.3       6 GLY6        0.0000 
     66 CA        -13.5500   -3.0500   -6.9300 C.3       6 GLY6        0.0000 
     67 CA        -12.5500   -1.3300   -7.6700 C.3       6 GLY6        0.0000 
     68 CA        -22.1400   -0.0400   -2.3900 C.3       6 GLY6        0.0000 
     69 CA        -21.1400    1.6800   -3.1300 C.3       6 GLY6        0.0000 
     70 CA        -18.7400   -2.4100   -3.3000 C.3       6 GLY6        0.0000 
     71 CA        -17.7400   -0.6900   -4.0500 C.3       6 GLY6        0.0000 
     72 CA        -17.3900   -2.1400   -3.9000 C.3       6 GLY6        0.0000 
     73 CA        -17.1000    2.4800   -4.9300 C.3       6 GLY6        0.0000 
     74 CA        -16.7400    1.0300   -4.7900 C.3       6 GLY6        0.0000 
     75 CA        -16.0400   -1.8700   -4.5000 C.3       6 GLY6        0.0000 
     76 CA        -15.4000    1.3000   -5.3900 C.3       6 GLY6        0.0000 
     77 CA        -14.3400   -3.0500   -4.9600 C.3       6 GLY6        0.0000 
     78 CA        -12.0000   -1.0700   -6.3100 C.3       6 GLY6        0.0000 
     79 CA        -21.5800    0.2300   -1.0200 C.3       6 GLY6        0.0000 
     80 CA        -21.2300   -1.2200   -0.8800 C.3       6 GLY6        0.0000 
     81 CA        -20.5800    1.9500   -1.7600 C.3       6 GLY6        0.0000 
     82 CA        -16.5400    2.7500   -3.5600 C.3       6 GLY6        0.0000 
     83 CA        -13.7900   -2.7900   -3.6000 C.3       6 GLY6        0.0000 
     84 CA        -12.4400   -2.5200   -4.2000 C.3       6 GLY6        0.0000 
     85 DU        -23.8000   -0.8400   -6.4900 H         7 CUB7        0.0000 
     86 DU        -24.6000   -0.8400   -4.5200 H         7 CUB7        0.0000 
     87 DU        -23.2500   -0.5700   -5.1200 H         7 CUB7        0.0000 
     88 DU        -21.9000   -0.3100   -5.7200 H         7 CUB7        0.0000 
     89 DU        -21.5500   -1.7600   -5.5800 H         7 CUB7        0.0000 
     90 DU        -22.6900   -0.3100   -3.7500 H         7 CUB7        0.0000 
     91 DU        -22.3400   -1.7600   -3.6100 H         7 CUB7        0.0000 
     92 DU        -21.3400   -0.0400   -4.3500 H         7 CUB7        0.0000 
     93 DU        -20.9900   -1.4900   -4.2100 H         7 CUB7        0.0000 
     94 DU        -20.0000    0.2300   -4.9500 H         7 CUB7        0.0000 
     95 DU        -17.6500    2.2200   -6.3000 H         7 CUB7        0.0000 
     96 DU        -21.7900   -1.4900   -2.2400 H         7 CUB7        0.0000 
     97 DU        -20.7900    0.2300   -2.9900 H         7 CUB7        0.0000 
     98 DU        -20.4400   -1.2200   -2.8500 H         7 CUB7        0.0000 
     99 DU        -19.4400    0.5000   -3.5900 H         7 CUB7        0.0000 
    100 DU        -19.0900   -0.9500   -3.4500 H         7 CUB7        0.0000 
    101 DU        -18.4400    2.2200   -4.3300 H         7 CUB7        0.0000 
    102 DU        -18.0900    0.7700   -4.1900 H         7 CUB7        0.0000 
@<TRIPOS>BOND
@<TRIPOS>SUBSTRUCTURE
     1 SER1        1 GROUP   
     2 ALA2       10 GROUP   
     3 ASP3       23 GROUP   
     4 LYS4       28 GROUP   
     5 PHE5       51 GROUP   
     6 GLY6       61 GROUP   
     7 CUB7       85 GROUP   
@<TRIPOS>SET

