#    Name: 6cz1_2_3FD
#    Modification time : Fri May 22 19:25:12 2020

@<TRIPOS>MOLECULE
6cz1_2_3FD
   38    42     1     0     0
SMALL
NO_CHARGES


@<TRIPOS>ATOM
      1 C18       -19.0340   -3.3340   -2.4350 C.ar      1 3FD501      0.0000 
      2 C17       -20.0330   -4.2170   -2.8000 C.ar      1 3FD501      0.0000 
      3 C16       -20.7790   -3.9810   -3.9390 C.ar      1 3FD501      0.0000 
      4 CL20      -22.0060   -5.1220   -4.3880 Cl        1 3FD501      0.0000 
      5 C15       -20.5240   -2.8580   -4.7130 C.ar      1 3FD501      0.0000 
      6 C14       -19.5260   -1.9690   -4.3380 C.ar      1 3FD501      0.0000 
      7 C13       -18.7720   -2.1990   -3.1880 C.ar      1 3FD501      0.0000 
      8 C12       -17.7550   -1.1950   -2.7010 C.3       1 3FD501      0.0000 
      9 N11       -17.0180   -0.5240   -3.7610 N.pl3     1 3FD501      0.0000 
     10 C6        -15.8980   -1.0560   -4.2910 C.2       1 3FD501      0.0000 
     11 N7        -15.3510   -2.1890   -3.9020 N.2       1 3FD501      0.0000 
     12 C8        -14.2080   -2.2760   -4.6810 C.ar      1 3FD501      0.0000 
     13 C4        -13.2170   -3.2600   -4.7770 C.ar      1 3FD501      0.0000 
     14 N10       -13.2340   -4.3890   -4.0570 N.pl3     1 3FD501      0.0000 
     15 N1        -12.2230   -3.0600   -5.6740 N.ar      1 3FD501      0.0000 
     16 C2        -12.2430   -1.9620   -6.4310 C.ar      1 3FD501      0.0000 
     17 N3        -13.1400   -0.9720   -6.4370 N.ar      1 3FD501      0.0000 
     18 C9        -14.1010   -1.1890   -5.5320 C.ar      1 3FD501      0.0000 
     19 N5        -15.2190   -0.4150   -5.2930 N.pl3     1 3FD501      0.0000 
     20 C21       -15.5790    0.7720   -6.0390 C.3       1 3FD501      0.0000 
     21 O22       -15.7740    1.8230   -5.1170 O.3       1 3FD501      0.0000 
     22 C24       -16.8800    0.6900   -6.8390 C.3       1 3FD501      0.0000 
     23 O26       -16.6570    0.0020   -8.0710 O.3       1 3FD501      0.0000 
     24 C25       -17.1540    2.1860   -7.0420 C.3       1 3FD501      0.0000 
     25 O27       -16.4010    2.7060   -8.1350 O.3       1 3FD501      0.0000 
     26 C23       -16.6420    2.8050   -5.7300 C.3       1 3FD501      0.0000 
     27 C28       -17.6910    3.2550   -4.7380 C.3       1 3FD501      0.0000 
     28 O29       -18.4850    2.1490   -4.3150 O.3       1 3FD501      0.0000 
     29 C30       -19.5360    2.5740   -3.4240 C.3       1 3FD501      0.0000 
     30 C31       -20.5020    1.4730   -3.0970 C.ar      1 3FD501      0.0000 
     31 C32       -20.4070    0.7960   -1.8880 C.ar      1 3FD501      0.0000 
     32 C33       -21.2270   -0.2820   -1.6080 C.ar      1 3FD501      0.0000 
     33 C34       -22.1870   -0.6900   -2.5320 C.ar      1 3FD501      0.0000 
     34 C37       -22.9610   -1.8820   -2.2910 C.1       1 3FD501      0.0000 
     35 N38       -23.5490   -2.8380   -2.0770 N.1       1 3FD501      0.0000 
     36 C35       -22.3240    0.0150   -3.7280 C.ar      1 3FD501      0.0000 
     37 C36       -21.4760    1.0750   -4.0060 C.ar      1 3FD501      0.0000 
     38 CL21      -21.4040   -2.5680   -6.1810 Cl        1 3FD501      0.0000 
@<TRIPOS>BOND
     1    1    2 ar   
     2    1    7 ar   
     3    2    3 ar   
     4    3    4 1    
     5    3    5 ar   
     6    5    6 ar   
     7    5   38 1    
     8    6    7 ar   
     9    7    8 1    
    10    8    9 1    
    11    9   10 1    
    12   10   11 2    
    13   10   19 1    
    14   11   12 1    
    15   12   13 ar   
    16   12   18 ar   
    17   13   14 1    
    18   13   15 ar   
    19   15   16 ar   
    20   16   17 ar   
    21   17   18 ar   
    22   18   19 1    
    23   19   20 1    
    24   20   21 1    
    25   20   22 1    
    26   21   26 1    
    27   22   23 1    
    28   22   24 1    
    29   24   25 1    
    30   24   26 1    
    31   26   27 1    
    32   27   28 1    
    33   28   29 1    
    34   29   30 1    
    35   30   31 ar   
    36   30   37 ar   
    37   31   32 ar   
    38   32   33 ar   
    39   33   34 1    
    40   33   36 ar   
    41   34   35 3    
    42   36   37 ar   
@<TRIPOS>SUBSTRUCTURE
     1 3FD501      1 GROUP   
@<TRIPOS>SET

