#    Name: 6d9b_1_UPG
#    Modification time : Fri May 22 19:26:52 2020

@<TRIPOS>MOLECULE
6d9b_1_UPG
   36    38     1     0     0
SMALL
NO_CHARGES


@<TRIPOS>ATOM
      1 N1          5.6400   17.0590   23.5930 N.am      1 UPG403      0.0000 
      2 C2          6.3750   15.8920   23.6510 C.2       1 UPG403      0.0000 
      3 N3          5.6420   14.7340   23.5350 N.am      1 UPG403      0.0000 
      4 C4          4.2780   14.6300   23.3720 C.2       1 UPG403      0.0000 
      5 C5          3.5820   15.8820   23.3210 C.2       1 UPG403      0.0000 
      6 C6          4.2700   17.0340   23.4320 C.2       1 UPG403      0.0000 
      7 O2          7.5880   15.8800   23.8010 O.2       1 UPG403      0.0000 
      8 O4          3.7590   13.5090   23.2950 O.2       1 UPG403      0.0000 
      9 C1C         6.3900   18.3260   23.6950 C.3       1 UPG403      0.0000 
     10 C2C         7.2060   18.6410   22.4380 C.3       1 UPG403      0.0000 
     11 O2C         8.3800   19.3670   22.7820 O.3       1 UPG403      0.0000 
     12 C3C         6.2170   19.4950   21.6450 C.3       1 UPG403      0.0000 
     13 C4C         5.5510   20.3030   22.7510 C.3       1 UPG403      0.0000 
     14 O4C         5.4720   19.3930   23.8730 O.3       1 UPG403      0.0000 
     15 O3C         6.8640   20.2960   20.6580 O.3       1 UPG403      0.0000 
     16 C5C         4.1660   20.7870   22.4140 C.3       1 UPG403      0.0000 
     17 O5C         3.4880   19.6600   21.8270 O.3       1 UPG403      0.0000 
     18 PA          2.1190   19.6980   21.0430 P.3       1 UPG403      0.0000 
     19 O1A         1.6970   18.3450   20.5730 O.co2     1 UPG403      0.0000 
     20 O2A         2.1600   20.7210   19.9020 O.co2     1 UPG403      0.0000 
     21 O3A         1.1350   20.2530   22.1640 O.3       1 UPG403      0.0000 
     22 PB         -0.2000   21.1120   22.0520 P.3       1 UPG403      0.0000 
     23 O1B        -0.8790   21.0530   23.3670 O.co2     1 UPG403      0.0000 
     24 O2B        -1.0250   20.4490   20.9290 O.co2     1 UPG403      0.0000 
     25 O3B         0.1490   22.6050   21.5700 O.3       1 UPG403      0.0000 
     26 C1'        -0.2780   23.3990   20.4720 C.3       1 UPG403      0.0000 
     27 C2'         0.1730   24.8290   20.7460 C.3       1 UPG403      0.0000 
     28 C3'        -0.4910   25.3210   22.0270 C.3       1 UPG403      0.0000 
     29 C4'        -2.0090   25.1790   21.9380 C.3       1 UPG403      0.0000 
     30 C5'        -2.4200   23.7750   21.4900 C.3       1 UPG403      0.0000 
     31 C6'        -3.8930   23.6710   21.1450 C.3       1 UPG403      0.0000 
     32 O2'         1.5930   24.8880   20.8580 O.3       1 UPG403      0.0000 
     33 O3'        -0.1480   26.6820   22.2750 O.3       1 UPG403      0.0000 
     34 O4'        -2.5880   25.4430   23.2160 O.3       1 UPG403      0.0000 
     35 O5'        -1.6890   23.3640   20.3170 O.3       1 UPG403      0.0000 
     36 O6'        -4.7070   24.4000   22.0630 O.3       1 UPG403      0.0000 
@<TRIPOS>BOND
     1    1    2 1    
     2    1    6 1    
     3    1    9 1    
     4    2    3 1    
     5    2    7 2    
     6    3    4 1    
     7    4    5 1    
     8    4    8 2    
     9    5    6 2    
    10    9   10 1    
    11    9   14 1    
    12   10   11 1    
    13   10   12 1    
    14   12   13 1    
    15   12   15 1    
    16   13   14 1    
    17   13   16 1    
    18   16   17 1    
    19   17   18 1    
    20   18   19 ar   
    21   18   20 ar   
    22   18   21 1    
    23   21   22 1    
    24   22   23 ar   
    25   22   24 ar   
    26   22   25 1    
    27   25   26 1    
    28   26   27 1    
    29   26   35 1    
    30   27   28 1    
    31   27   32 1    
    32   28   29 1    
    33   28   33 1    
    34   29   30 1    
    35   29   34 1    
    36   30   31 1    
    37   30   35 1    
    38   31   36 1    
@<TRIPOS>SUBSTRUCTURE
     1 UPG403      1 GROUP   
@<TRIPOS>SET

