#    Name: 6d9b_1_UPG_CAVITY_N1_4
#    Modification time : Fri May 22 19:26:54 2020

@<TRIPOS>MOLECULE
6d9b_1_UPG_CAVITY_N1_4
   63     0     5     0     0
SMALL
NO_CHARGES


@<TRIPOS>ATOM
      1 OG          2.8000   18.2400   23.8000 O.3       1 SER1        0.0000 
      2 OG          7.4500   18.2300   22.0200 O.3       1 SER1        0.0000 
      3 OG          6.4100   18.2900   23.1000 O.3       1 SER1        0.0000 
      4 OG          7.2100   17.3200   23.9200 O.3       1 SER1        0.0000 
      5 OG          8.1800   19.3700   22.6600 O.3       1 SER1        0.0000 
      6 OG          7.9400   18.4600   24.5600 O.3       1 SER1        0.0000 
      7 OG          8.9200   20.5100   23.3000 O.3       1 SER1        0.0000 
      8 OG          9.7100   19.5400   24.1200 O.3       1 SER1        0.0000 
      9 N           7.2700   15.2000   24.0900 N.am      2 ALA2        0.0000 
     10 N           6.2300   15.2600   25.1800 N.am      2 ALA2        0.0000 
     11 N           6.6500   19.2000   21.2000 N.am      2 ALA2        0.0000 
     12 N           5.6100   19.2600   22.2800 N.am      2 ALA2        0.0000 
     13 O           7.6300   21.2600   19.9400 O.2       2 ALA2        0.0000 
     14 N           6.5900   21.3200   21.0200 N.am      2 ALA2        0.0000 
     15 O           8.4200   20.2800   20.7600 O.2       2 ALA2        0.0000 
     16 N           7.3900   20.3400   21.8400 N.am      2 ALA2        0.0000 
     17 O           9.1600   21.4200   21.4000 O.2       2 ALA2        0.0000 
     18 O           8.1200   21.4800   22.4800 O.2       2 ALA2        0.0000 
     19 O           9.0900   23.5400   21.2300 O.2       2 ALA2        0.0000 
     20 O           8.0600   23.6000   22.3100 O.2       2 ALA2        0.0000 
     21 O           9.8900   22.5600   22.0400 O.2       2 ALA2        0.0000 
     22 O           8.8500   22.6200   23.1200 O.2       2 ALA2        0.0000 
     23 N           7.8100   22.6800   24.2100 N.am      2 ALA2        0.0000 
     24 N           8.6100   21.7100   25.0200 N.am      2 ALA2        0.0000 
     25 N           7.5700   21.7700   26.1100 N.am      2 ALA2        0.0000 
     26 CZ          3.9000   16.0700   22.9000 C.ar      3 PHE5        0.0000 
     27 CZ          2.8700   16.1300   23.9800 C.ar      3 PHE5        0.0000 
     28 CZ          5.7400   15.0400   22.6300 C.ar      3 PHE5        0.0000 
     29 CZ          4.7000   15.1000   23.7200 C.ar      3 PHE5        0.0000 
     30 CZ          3.8400   18.1800   22.7200 C.ar      3 PHE5        0.0000 
     31 CZ          5.6800   17.1500   22.4600 C.ar      3 PHE5        0.0000 
     32 CZ          4.6400   17.2100   23.5400 C.ar      3 PHE5        0.0000 
     33 CZ          2.5600   17.3300   25.7000 C.ar      3 PHE5        0.0000 
     34 CZ          6.4700   16.1800   23.2800 C.ar      3 PHE5        0.0000 
     35 CZ          4.4000   16.3000   25.4400 C.ar      3 PHE5        0.0000 
     36 CZ          3.3600   16.3600   26.5200 C.ar      3 PHE5        0.0000 
     37 CZ          5.1900   15.3200   26.2600 C.ar      3 PHE5        0.0000 
     38 CA          8.0000   16.3400   24.7400 C.3       4 GLY6        0.0000 
     39 CA          6.9600   16.4000   25.8200 C.3       4 GLY6        0.0000 
     40 CA          5.9300   16.4600   26.9000 C.3       4 GLY6        0.0000 
     41 CA          7.7000   17.5400   26.4600 C.3       4 GLY6        0.0000 
     42 CA          6.6600   17.6000   27.5400 C.3       4 GLY6        0.0000 
     43 CA          9.9500   20.4500   22.2200 C.3       4 GLY6        0.0000 
     44 CA          9.4700   18.6300   26.0200 C.3       4 GLY6        0.0000 
     45 CA          8.4300   18.6800   27.1000 C.3       4 GLY6        0.0000 
     46 CA          9.6500   21.6500   23.9400 C.3       4 GLY6        0.0000 
     47 CA         10.4400   20.6800   24.7600 C.3       4 GLY6        0.0000 
     48 CA          9.4100   20.7400   25.8400 C.3       4 GLY6        0.0000 
     49 DU          3.6000   17.2700   24.6200 H         5 CUB7        0.0000 
     50 DU          5.4300   16.2400   24.3600 H         5 CUB7        0.0000 
     51 DU          5.3700   18.3500   24.1800 H         5 CUB7        0.0000 
     52 DU          3.2900   18.4700   26.3400 H         5 CUB7        0.0000 
     53 DU          6.1700   17.3800   25.0000 H         5 CUB7        0.0000 
     54 DU          5.1300   17.4400   26.0800 H         5 CUB7        0.0000 
     55 DU          4.0900   17.5000   27.1600 H         5 CUB7        0.0000 
     56 DU          6.3500   20.4000   22.9200 H         5 CUB7        0.0000 
     57 DU          7.1400   19.4300   23.7400 H         5 CUB7        0.0000 
     58 DU          6.9000   18.5200   25.6400 H         5 CUB7        0.0000 
     59 DU          5.8600   18.5800   26.7200 H         5 CUB7        0.0000 
     60 DU          7.8800   20.5700   24.3800 H         5 CUB7        0.0000 
     61 DU          8.6700   19.6000   25.2000 H         5 CUB7        0.0000 
     62 DU          7.6300   19.6600   26.2800 H         5 CUB7        0.0000 
     63 DU          6.6000   19.7200   27.3600 H         5 CUB7        0.0000 
@<TRIPOS>BOND
@<TRIPOS>SUBSTRUCTURE
     1 SER1        1 GROUP   
     2 ALA2        9 GROUP   
     3 PHE5       26 GROUP   
     4 GLY6       38 GROUP   
     5 CUB7       49 GROUP   
@<TRIPOS>SET

