#    Name: 6oex_2_FAD_CAVITY_N1_8
#    Modification time : Fri May 22 19:36:16 2020

@<TRIPOS>MOLECULE
6oex_2_FAD_CAVITY_N1_8
   80     0     7     0     0
SMALL
NO_CHARGES


@<TRIPOS>ATOM
      1 OG          4.6500  -22.4500  -41.9200 O.3       1 SER1        0.0000 
      2 OG          4.1700  -22.8900  -40.5700 O.3       1 SER1        0.0000 
      3 OG          4.5400  -20.9500  -39.8000 O.3       1 SER1        0.0000 
      4 OG          5.3500  -22.2100  -39.9300 O.3       1 SER1        0.0000 
      5 OG          5.3900  -18.5700  -40.3800 O.3       1 SER1        0.0000 
      6 OG          8.5400  -18.4600  -39.2300 O.3       1 SER1        0.0000 
      7 OG         10.1900  -17.3400  -39.9400 O.3       1 SER1        0.0000 
      8 N           2.6300  -25.5200  -41.9700 N.am      2 ALA2        0.0000 
      9 O           4.3900  -25.8900  -44.8000 O.2       2 ALA2        0.0000 
     10 N           3.9100  -26.3400  -43.4500 N.am      2 ALA2        0.0000 
     11 N           4.2800  -24.3900  -42.6900 N.am      2 ALA2        0.0000 
     12 N           3.8000  -24.8400  -41.3400 N.am      2 ALA2        0.0000 
     13 N           3.3200  -25.2800  -39.9800 N.am      2 ALA2        0.0000 
     14 O           5.5600  -25.2100  -44.1600 O.2       2 ALA2        0.0000 
     15 N           5.0900  -25.6500  -42.8100 N.am      2 ALA2        0.0000 
     16 N           4.6100  -26.1000  -41.4600 N.am      2 ALA2        0.0000 
     17 O           3.6900  -23.3400  -39.2200 O.2       2 ALA2        0.0000 
     18 N           5.4600  -23.7100  -42.0500 N.am      2 ALA2        0.0000 
     19 N           4.5000  -24.6000  -39.3400 N.am      2 ALA2        0.0000 
     20 N           5.7800  -25.4200  -40.8200 N.am      2 ALA2        0.0000 
     21 N           9.3000  -26.1600  -46.4800 N.am      2 ALA2        0.0000 
     22 N           8.8200  -26.6100  -45.1300 N.am      2 ALA2        0.0000 
     23 O           5.0200  -20.5100  -41.1500 O.2       2 ALA2        0.0000 
     24 O           5.8200  -21.7700  -41.2800 O.2       2 ALA2        0.0000 
     25 N          10.0000  -25.9300  -44.4900 N.am      2 ALA2        0.0000 
     26 O           4.8000  -17.5100  -36.9100 O.2       2 ALA2        0.0000 
     27 O           6.5600  -17.8800  -39.7400 O.2       2 ALA2        0.0000 
     28 O           6.0800  -18.3300  -38.3900 O.2       2 ALA2        0.0000 
     29 O           7.3700  -19.1400  -39.8700 O.2       2 ALA2        0.0000 
     30 N           8.9100  -16.5200  -38.4600 N.am      2 ALA2        0.0000 
     31 OD1         5.2000  -27.1500  -44.9300 O.co2     3 ASP3        0.0000 
     32 OD1         6.4800  -27.9700  -46.4100 O.co2     3 ASP3        0.0000 
     33 OD1         8.2300  -25.5500  -41.6600 O.co2     3 ASP3        0.0000 
     34 NZ          7.2800  -29.2300  -46.5400 N.4       4 LYS4        0.0000 
     35 NZ          4.8700  -22.6600  -38.5800 N.4       4 LYS4        0.0000 
     36 NZ          6.1500  -23.4700  -40.0600 N.4       4 LYS4        0.0000 
     37 NZ          5.6700  -23.9200  -38.7000 N.4       4 LYS4        0.0000 
     38 NZ          5.2400  -20.7100  -37.8100 N.4       4 LYS4        0.0000 
     39 NZ          6.5200  -21.5300  -39.2900 N.4       4 LYS4        0.0000 
     40 NZ          6.4100  -20.0300  -37.1700 N.4       4 LYS4        0.0000 
     41 CZ          3.4300  -26.7800  -42.1000 C.ar      5 PHE5        0.0000 
     42 CZ          4.7200  -27.6000  -43.5800 C.ar      5 PHE5        0.0000 
     43 CZ          6.0000  -28.4100  -45.0600 C.ar      5 PHE5        0.0000 
     44 CZ          5.8900  -26.9200  -42.9400 C.ar      5 PHE5        0.0000 
     45 CZ          5.4100  -27.3600  -41.5900 C.ar      5 PHE5        0.0000 
     46 CZ          8.1300  -26.8500  -47.1200 C.ar      5 PHE5        0.0000 
     47 CZ          7.1700  -27.7300  -44.4200 C.ar      5 PHE5        0.0000 
     48 CZ          8.9300  -28.1100  -47.2500 C.ar      5 PHE5        0.0000 
     49 CZ          7.0600  -26.2300  -42.3000 C.ar      5 PHE5        0.0000 
     50 CZ          6.5800  -26.6800  -40.9500 C.ar      5 PHE5        0.0000 
     51 CA          5.6700  -26.7100  -46.2800 C.3       6 GLY6        0.0000 
     52 CA          6.3700  -26.4700  -44.2900 C.3       6 GLY6        0.0000 
     53 CA          7.6500  -27.2900  -45.7700 C.3       6 GLY6        0.0000 
     54 CA          8.4500  -28.5500  -45.9000 C.3       6 GLY6        0.0000 
     55 CA          5.9300  -23.2700  -43.4000 C.3       6 GLY6        0.0000 
     56 CA          6.7400  -24.5300  -43.5200 C.3       6 GLY6        0.0000 
     57 CA          8.0200  -25.3500  -45.0000 C.3       6 GLY6        0.0000 
     58 CA          7.5400  -25.7900  -43.6500 C.3       6 GLY6        0.0000 
     59 CA          8.3400  -27.0500  -43.7800 C.3       6 GLY6        0.0000 
     60 CA          7.8600  -27.4900  -42.4300 C.3       6 GLY6        0.0000 
     61 CA          9.6300  -27.8700  -45.2600 C.3       6 GLY6        0.0000 
     62 CA          4.0600  -21.3900  -38.4500 C.3       6 GLY6        0.0000 
     63 CA          6.6300  -23.0300  -41.4100 C.3       6 GLY6        0.0000 
     64 CA          7.4300  -24.2900  -41.5300 C.3       6 GLY6        0.0000 
     65 CA          8.7100  -25.1100  -43.0100 C.3       6 GLY6        0.0000 
     66 CA          4.9100  -19.0100  -39.0300 C.3       6 GLY6        0.0000 
     67 CA          4.4300  -19.4500  -37.6800 C.3       6 GLY6        0.0000 
     68 CA          6.1900  -19.8300  -40.5100 C.3       6 GLY6        0.0000 
     69 CA          7.0000  -21.0900  -40.6400 C.3       6 GLY6        0.0000 
     70 CA          5.6100  -18.7700  -37.0400 C.3       6 GLY6        0.0000 
     71 CA          6.8900  -19.5900  -38.5200 C.3       6 GLY6        0.0000 
     72 CA          8.2200  -16.7600  -40.4500 C.3       6 GLY6        0.0000 
     73 CA          7.7400  -17.2000  -39.1000 C.3       6 GLY6        0.0000 
     74 CA          7.2600  -17.6500  -37.7500 C.3       6 GLY6        0.0000 
     75 CA          6.7800  -18.0900  -36.4000 C.3       6 GLY6        0.0000 
     76 CA          8.0600  -18.9100  -37.8800 C.3       6 GLY6        0.0000 
     77 CA          9.7100  -17.7800  -38.5900 C.3       6 GLY6        0.0000 
     78 DU          4.9800  -24.1500  -40.7000 H         7 CUB7        0.0000 
     79 DU          6.2600  -24.9700  -42.1700 H         7 CUB7        0.0000 
     80 DU          5.7100  -20.2700  -39.1600 H         7 CUB7        0.0000 
@<TRIPOS>BOND
@<TRIPOS>SUBSTRUCTURE
     1 SER1        1 GROUP   
     2 ALA2        8 GROUP   
     3 ASP3       31 GROUP   
     4 LYS4       34 GROUP   
     5 PHE5       41 GROUP   
     6 GLY6       51 GROUP   
     7 CUB7       78 GROUP   
@<TRIPOS>SET

