#    Name: 6oex_2_FAD
#    Modification time : Fri May 22 19:36:14 2020

@<TRIPOS>MOLECULE
6oex_2_FAD
   53    58     1     0     1
SMALL
NO_CHARGES


@<TRIPOS>ATOM
      1 PA          7.5950  -17.9020  -39.3790 P.3       1 FAD501      0.0000 
      2 O1A         6.2870  -17.9310  -40.1320 O.co2     1 FAD501      0.0000 
      3 O2A         8.6950  -18.8700  -39.7350 O.co2     1 FAD501      0.0000 
      4 O5B         8.1880  -16.4200  -39.4900 O.3       1 FAD501      0.0000 
      5 C5B         9.4270  -16.0970  -38.8680 C.3       1 FAD501      0.0000 
      6 C4B        10.0130  -14.8950  -39.5850 C.3       1 FAD501      0.0000 
      7 O4B        10.9630  -14.2490  -38.7450 O.3       1 FAD501      0.0000 
      8 C3B        10.7330  -15.2680  -40.8760 C.3       1 FAD501      0.0000 
      9 O3B        10.0920  -14.6080  -41.9730 O.3       1 FAD501      0.0000 
     10 C2B        12.1660  -14.7970  -40.6910 C.3       1 FAD501      0.0000 
     11 O2B        12.6900  -14.1670  -41.8620 O.3       1 FAD501      0.0000 
     12 C1B        12.0510  -13.8010  -39.5500 C.3       1 FAD501      0.0000 
     13 N9A        13.2340  -13.6750  -38.6720 N.pl3     1 FAD501      0.0000 
     14 C8A        13.9970  -14.6590  -38.1620 C.2       1 FAD501      0.0000 
     15 N7A        14.9780  -14.1350  -37.3780 N.2       1 FAD501      0.0000 
     16 C5A        14.8360  -12.7970  -37.3820 C.ar      1 FAD501      0.0000 
     17 C6A        15.5160  -11.6370  -36.7690 C.ar      1 FAD501      0.0000 
     18 N6A        16.5920  -11.7980  -35.9670 N.pl3     1 FAD501      0.0000 
     19 N1A        15.0340  -10.4060  -37.0410 N.ar      1 FAD501      0.0000 
     20 C2A        13.9660  -10.2100  -37.8360 C.ar      1 FAD501      0.0000 
     21 N3A        13.3010  -11.2200  -38.4200 N.ar      1 FAD501      0.0000 
     22 C4A        13.6820  -12.5040  -38.2370 C.ar      1 FAD501      0.0000 
     23 N1          2.4620  -25.4410  -41.3190 N.2       1 FAD501      0.0000 
     24 C2          1.1650  -25.7140  -41.5980 C.2       1 FAD501      0.0000 
     25 O2          0.2750  -25.3660  -40.7860 O.2       1 FAD501      0.0000 
     26 N3          0.7890  -26.3510  -42.7210 N.am      1 FAD501      0.0000 
     27 C4          1.6600  -26.7620  -43.6490 C.2       1 FAD501      0.0000 
     28 O4          1.2760  -27.3500  -44.6840 O.2       1 FAD501      0.0000 
     29 C4X         3.1000  -26.5010  -43.4220 C.2       1 FAD501      0.0000 
     30 N5          4.0530  -26.8800  -44.3010 N.2       1 FAD501      0.0000 
     31 C5X         5.3590  -26.6140  -44.0530 C.ar      1 FAD501      0.0000 
     32 C6          6.3150  -27.0150  -44.9820 C.ar      1 FAD501      0.0000 
     33 C7          7.6650  -26.7630  -44.7600 C.ar      1 FAD501      0.0000 
     34 C7M         8.6900  -27.2010  -45.7740 C.3       1 FAD501      0.0000 
     35 C8          8.0860  -26.0560  -43.5230 C.ar      1 FAD501      0.0000 
     36 C8M         9.5320  -25.7570  -43.2370 C.3       1 FAD501      0.0000 
     37 C9          7.1390  -25.6560  -42.5930 C.ar      1 FAD501      0.0000 
     38 C9A         5.7860  -25.9060  -42.8060 C.ar      1 FAD501      0.0000 
     39 N10         4.7940  -25.5070  -41.8770 N.pl3     1 FAD501      0.0000 
     40 C10         3.4530  -25.7960  -42.1690 C.2       1 FAD501      0.0000 
     41 C1'         5.0680  -24.8260  -40.6130 C.3       1 FAD501      0.0000 
     42 C2'         4.8240  -23.3400  -40.7470 C.3       1 FAD501      0.0000 
     43 O2'         5.5070  -22.8230  -41.8980 O.3       1 FAD501      0.0000 
     44 C3'         5.3390  -22.6980  -39.4750 C.3       1 FAD501      0.0000 
     45 O3'         4.8460  -23.4230  -38.3430 O.3       1 FAD501      0.0000 
     46 C4'         4.9020  -21.2530  -39.3810 C.3       1 FAD501      0.0000 
     47 O4'         5.4090  -20.5300  -40.5090 O.3       1 FAD501      0.0000 
     48 C5'         5.4280  -20.6480  -38.0920 C.3       1 FAD501      0.0000 
     49 O5'         5.2020  -19.2490  -38.1390 O.3       1 FAD501      0.0000 
     50 P           5.9330  -18.2930  -37.0840 P.3       1 FAD501      0.0000 
     51 O1P         5.1640  -16.9960  -37.0010 O.co2     1 FAD501      0.0000 
     52 O2P         6.2640  -19.0760  -35.8390 O.co2     1 FAD501      0.0000 
     53 O3P         7.3480  -17.9860  -37.7900 O.3       1 FAD501      0.0000 
@<TRIPOS>BOND
     1    1    2 ar   
     2    1    3 ar   
     3    1    4 1    
     4    1   53 1    
     5    4    5 1    
     6    5    6 1    
     7    6    7 1    
     8    6    8 1    
     9    7   12 1    
    10    8    9 1    
    11    8   10 1    
    12   10   11 1    
    13   10   12 1    
    14   12   13 1    
    15   13   14 1    
    16   13   22 1    
    17   14   15 2    
    18   15   16 1    
    19   16   17 ar   
    20   16   22 ar   
    21   17   18 1    
    22   17   19 ar   
    23   19   20 ar   
    24   20   21 ar   
    25   21   22 ar   
    26   23   24 1    
    27   23   40 2    
    28   24   25 2    
    29   24   26 am   
    30   26   27 am   
    31   27   28 2    
    32   27   29 1    
    33   29   30 2    
    34   29   40 1    
    35   30   31 1    
    36   31   32 ar   
    37   31   38 ar   
    38   32   33 ar   
    39   33   34 1    
    40   33   35 ar   
    41   35   36 1    
    42   35   37 ar   
    43   37   38 ar   
    44   38   39 1    
    45   39   40 1    
    46   39   41 1    
    47   41   42 1    
    48   42   43 1    
    49   42   44 1    
    50   44   45 1    
    51   44   46 1    
    52   46   47 1    
    53   46   48 1    
    54   48   49 1    
    55   49   50 1    
    56   50   51 ar   
    57   50   52 ar   
    58   50   53 1    
@<TRIPOS>SUBSTRUCTURE
     1 FAD501      1 GROUP   
@<TRIPOS>SET
ATOM$ORANGE STATIC     ATOMS   COLORGROUP SYSTEM 
54 5 5 6 6 8 8 10 10 12 12 14 14 16 16 17 17 20 \
20 22 22 24 24 27 27 29 29 31 31 32 32 33 33 34 34 35 \
35 36 36 37 37 38 38 40 40 41 41 42 42 44 44 46 46 48 \
48 

