#    Name: 6qvg_1_DDF
#    Modification time : Fri May 22 19:37:54 2020

@<TRIPOS>MOLECULE
6qvg_1_DDF
   32    34     1     0     0
SMALL
NO_CHARGES


@<TRIPOS>ATOM
      1 N1         38.8630   65.4900   -4.7160 N.pl3     1 DDF607      0.0000 
      2 C2         38.4530   64.7350   -3.4930 C.2       1 DDF607      0.0000 
      3 NA2        39.3980   63.9460   -2.9980 N.pl3     1 DDF607      0.0000 
      4 N3         37.1240   64.9130   -2.9810 N.2       1 DDF607      0.0000 
      5 C4         36.2560   65.7570   -3.5790 C.2       1 DDF607      0.0000 
      6 O4         35.0060   65.8780   -3.0260 O.2       1 DDF607      0.0000 
      7 C4A        36.6040   66.5250   -4.7800 C.2       1 DDF607      0.0000 
      8 C5         35.6670   67.5040   -5.4960 C.3       1 DDF607      0.0000 
      9 C6         36.3800   68.7050   -6.2110 C.3       1 DDF607      0.0000 
     10 C7         37.3410   68.0260   -7.1420 C.3       1 DDF607      0.0000 
     11 N8         38.3160   67.0840   -6.4720 N.pl3     1 DDF607      0.0000 
     12 C8A        37.8820   66.3630   -5.2970 C.2       1 DDF607      0.0000 
     13 C9         37.2210   69.7190   -5.3090 C.3       1 DDF607      0.0000 
     14 C10        36.4620   70.6390   -4.3650 C.3       1 DDF607      0.0000 
     15 C11        38.4440   74.2650   -2.6530 C.ar      1 DDF607      0.0000 
     16 C12        37.1120   74.2680   -3.1200 C.ar      1 DDF607      0.0000 
     17 C13        36.4950   73.1080   -3.6540 C.ar      1 DDF607      0.0000 
     18 C14        37.1550   71.8690   -3.7680 C.ar      1 DDF607      0.0000 
     19 C15        38.4940   71.8520   -3.3050 C.ar      1 DDF607      0.0000 
     20 C16        39.1160   73.0100   -2.7600 C.ar      1 DDF607      0.0000 
     21 C          39.0580   75.5880   -2.0440 C.2       1 DDF607      0.0000 
     22 O          40.1400   75.3460   -1.4120 O.2       1 DDF607      0.0000 
     23 N          38.5780   76.8880   -2.0820 N.am      1 DDF607      0.0000 
     24 CA         39.1840   78.1790   -1.4640 C.3       1 DDF607      0.0000 
     25 CB         40.7340   78.4660   -1.8450 C.3       1 DDF607      0.0000 
     26 CG         41.3210   77.7050   -3.1110 C.3       1 DDF607      0.0000 
     27 CD         42.3480   78.4990   -3.9700 C.2       1 DDF607      0.0000 
     28 OE1        42.2990   78.3510   -5.2490 O.co2     1 DDF607      0.0000 
     29 OE2        43.1980   79.2490   -3.4210 O.co2     1 DDF607      0.0000 
     30 CT         38.2040   79.4810   -1.7760 C.2       1 DDF607      0.0000 
     31 O1         37.1770   79.6540   -1.1040 O.co2     1 DDF607      0.0000 
     32 O2         38.5900   80.2370   -2.7280 O.co2     1 DDF607      0.0000 
@<TRIPOS>BOND
     1    1    2 1    
     2    1   12 1    
     3    2    3 1    
     4    2    4 2    
     5    4    5 1    
     6    5    6 2    
     7    5    7 1    
     8    7    8 1    
     9    7   12 2    
    10    8    9 1    
    11    9   10 1    
    12    9   13 1    
    13   10   11 1    
    14   11   12 1    
    15   13   14 1    
    16   14   18 1    
    17   15   16 ar   
    18   15   20 ar   
    19   15   21 1    
    20   16   17 ar   
    21   17   18 ar   
    22   18   19 ar   
    23   19   20 ar   
    24   21   22 2    
    25   21   23 am   
    26   23   24 1    
    27   24   25 1    
    28   24   30 1    
    29   25   26 1    
    30   26   27 1    
    31   27   28 ar   
    32   27   29 ar   
    33   30   31 ar   
    34   30   32 ar   
@<TRIPOS>SUBSTRUCTURE
     1 DDF607      1 GROUP   
@<TRIPOS>SET

