#    Name: 6qvg_2_DDF
#    Modification time : Fri May 22 19:38:01 2020

@<TRIPOS>MOLECULE
6qvg_2_DDF
   32    34     1     0     0
SMALL
NO_CHARGES


@<TRIPOS>ATOM
      1 N1          1.4160   71.1680    3.1010 N.pl3     1 DDF602      0.0000 
      2 C2          2.1790   72.4490    3.1020 C.2       1 DDF602      0.0000 
      3 NA2         1.4210   73.5340    3.1700 N.pl3     1 DDF602      0.0000 
      4 N3          3.6000   72.4140    3.0310 N.2       1 DDF602      0.0000 
      5 C4          4.2530   71.2430    2.9570 C.2       1 DDF602      0.0000 
      6 O4          5.6260   71.2980    2.8860 O.2       1 DDF602      0.0000 
      7 C4A         3.5690   69.9410    2.9560 C.2       1 DDF602      0.0000 
      8 C5          4.2890   68.5980    2.8710 C.3       1 DDF602      0.0000 
      9 C6          3.5590   67.3220    3.4430 C.3       1 DDF602      0.0000 
     10 C7          2.1520   67.3730    2.9200 C.3       1 DDF602      0.0000 
     11 N8          1.4240   68.7120    3.0190 N.pl3     1 DDF602      0.0000 
     12 C8A         2.1900   69.9450    3.0210 C.2       1 DDF602      0.0000 
     13 C9          3.4600   67.1600    4.9910 C.3       1 DDF602      0.0000 
     14 C10         4.5980   67.6860    5.8280 C.3       1 DDF602      0.0000 
     15 C11         4.6300   66.9140   10.1990 C.ar      1 DDF602      0.0000 
     16 C12         5.3310   66.0880    9.2860 C.ar      1 DDF602      0.0000 
     17 C13         5.3130   66.3290    7.8910 C.ar      1 DDF602      0.0000 
     18 C14         4.6180   67.4150    7.3180 C.ar      1 DDF602      0.0000 
     19 C15         3.9290   68.2410    8.2190 C.ar      1 DDF602      0.0000 
     20 C16         3.9410   68.0070    9.6080 C.ar      1 DDF602      0.0000 
     21 C           4.6940   66.6270   11.7520 C.2       1 DDF602      0.0000 
     22 O           4.0720   67.5060   12.4330 O.2       1 DDF602      0.0000 
     23 N           5.3440   65.6390   12.4130 N.am      1 DDF602      0.0000 
     24 CA          5.4490   65.3970   13.9080 C.3       1 DDF602      0.0000 
     25 CB          4.1050   65.4300   14.7240 C.3       1 DDF602      0.0000 
     26 CG          2.8860   64.6820   14.1300 C.3       1 DDF602      0.0000 
     27 CD          1.7990   64.3790   15.1930 C.2       1 DDF602      0.0000 
     28 OE1         1.4070   65.3470   15.9400 O.co2     1 DDF602      0.0000 
     29 OE2         1.3370   63.2180   15.3240 O.co2     1 DDF602      0.0000 
     30 CT          6.2180   64.0320   14.1500 C.2       1 DDF602      0.0000 
     31 O1          5.7790   62.9850   13.6680 O.co2     1 DDF602      0.0000 
     32 O2          7.2760   64.1670   14.8390 O.co2     1 DDF602      0.0000 
@<TRIPOS>BOND
     1    1    2 1    
     2    1   12 1    
     3    2    3 1    
     4    2    4 2    
     5    4    5 1    
     6    5    6 2    
     7    5    7 1    
     8    7    8 1    
     9    7   12 2    
    10    8    9 1    
    11    9   10 1    
    12    9   13 1    
    13   10   11 1    
    14   11   12 1    
    15   13   14 1    
    16   14   18 1    
    17   15   16 ar   
    18   15   20 ar   
    19   15   21 1    
    20   16   17 ar   
    21   17   18 ar   
    22   18   19 ar   
    23   19   20 ar   
    24   21   22 2    
    25   21   23 am   
    26   23   24 1    
    27   24   25 1    
    28   24   30 1    
    29   25   26 1    
    30   26   27 1    
    31   27   28 ar   
    32   27   29 ar   
    33   30   31 ar   
    34   30   32 ar   
@<TRIPOS>SUBSTRUCTURE
     1 DDF602      1 GROUP   
@<TRIPOS>SET

