#    Name: 6gsg_1_RCO_CAVITY_N1_4
#    Modification time : Fri May 22 19:29:43 2020

@<TRIPOS>MOLECULE
6gsg_1_RCO_CAVITY_N1_4
   15     0     4     0     0
SMALL
NO_CHARGES


@<TRIPOS>ATOM
      1 OG       -121.6100  -38.0100   91.5200 O.3       1 SER1        0.0000 
      2 OG       -120.7300  -37.6400   90.3600 O.3       1 SER1        0.0000 
      3 CZ       -122.5600  -39.9800   94.0600 C.ar      2 PHE5        0.0000 
      4 CZ       -120.7900  -39.2500   91.7500 C.ar      2 PHE5        0.0000 
      5 CZ       -119.8300  -36.8800   91.2900 C.ar      2 PHE5        0.0000 
      6 CA       -125.1500  -39.8800   94.0600 C.3       3 GLY6        0.0000 
      7 CA       -124.2700  -39.5100   92.9000 C.3       3 GLY6        0.0000 
      8 CA       -123.4500  -40.7500   93.1300 C.3       3 GLY6        0.0000 
      9 CA       -121.7500  -41.6200   92.2100 C.3       3 GLY6        0.0000 
     10 CA       -122.5100  -38.7700   90.5900 C.3       3 GLY6        0.0000 
     11 CA       -122.4900  -38.3800   92.6700 C.3       3 GLY6        0.0000 
     12 CA       -121.6700  -39.6100   92.9000 C.3       3 GLY6        0.0000 
     13 CA       -119.9000  -38.4800   92.6700 C.3       3 GLY6        0.0000 
     14 DU       -123.3700  -38.7400   93.8300 H         4 CUB7        0.0000 
     15 DU       -120.7100  -37.2400   92.4500 H         4 CUB7        0.0000 
@<TRIPOS>BOND
@<TRIPOS>SUBSTRUCTURE
     1 SER1        1 GROUP   
     2 PHE5        3 GROUP   
     3 GLY6        6 GROUP   
     4 CUB7       14 GROUP   
@<TRIPOS>SET

