#    Name: 6gsg_1_RCO
#    Modification time : Fri May 22 19:29:43 2020

@<TRIPOS>MOLECULE
6gsg_1_RCO
    8     8     1     0     0
SMALL
NO_CHARGES


@<TRIPOS>ATOM
      1 C1       -122.0100  -41.9890   93.5630 C.ar      1 RCO2013     0.0000 
      2 C2       -121.7560  -43.0820   92.7390 C.ar      1 RCO2013     0.0000 
      3 C3       -120.8720  -42.9640   91.6760 C.ar      1 RCO2013     0.0000 
      4 C4       -120.2430  -41.7480   91.4330 C.ar      1 RCO2013     0.0000 
      5 C5       -120.4960  -40.6550   92.2580 C.ar      1 RCO2013     0.0000 
      6 C6       -121.3800  -40.7730   93.3240 C.ar      1 RCO2013     0.0000 
      7 O1       -122.8790  -42.1110   94.6040 O.3       1 RCO2013     0.0000 
      8 O3       -120.6270  -44.0400   90.8740 O.3       1 RCO2013     0.0000 
@<TRIPOS>BOND
     1    1    2 ar   
     2    1    6 ar   
     3    1    7 1    
     4    2    3 ar   
     5    3    4 ar   
     6    3    8 1    
     7    4    5 ar   
     8    5    6 ar   
@<TRIPOS>SUBSTRUCTURE
     1 RCO2013     1 GROUP   
@<TRIPOS>SET

