#    Name: 6gsg_1_RCO_CAVITY_N1_6
#    Modification time : Fri May 22 19:29:43 2020

@<TRIPOS>MOLECULE
6gsg_1_RCO_CAVITY_N1_6
   43     0     5     0     0
SMALL
NO_CHARGES


@<TRIPOS>ATOM
      1 OG       -123.3400  -37.9300   88.2800 O.3       1 SER1        0.0000 
      2 OG       -122.4400  -37.1700   89.2000 O.3       1 SER1        0.0000 
      3 OG       -121.5600  -36.8000   88.0500 O.3       1 SER1        0.0000 
      4 OG       -121.6100  -38.0100   91.5200 O.3       1 SER1        0.0000 
      5 OG       -121.5400  -36.4000   90.1300 O.3       1 SER1        0.0000 
      6 OG       -120.7300  -37.6400   90.3600 O.3       1 SER1        0.0000 
      7 OG       -120.6300  -35.2400   93.1400 O.3       1 SER1        0.0000 
      8 N        -119.8100  -36.4800   93.3700 N.am      2 ALA2        0.0000 
      9 CZ       -126.8700  -39.4000   92.9000 C.ar      3 PHE5        0.0000 
     10 CZ       -125.0900  -38.2700   92.6700 C.ar      3 PHE5        0.0000 
     11 CZ       -125.0200  -36.6700   91.2900 C.ar      3 PHE5        0.0000 
     12 CZ       -122.5600  -39.9800   94.0600 C.ar      3 PHE5        0.0000 
     13 CZ       -123.3100  -37.1400   92.4500 C.ar      3 PHE5        0.0000 
     14 CZ       -120.7900  -39.2500   91.7500 C.ar      3 PHE5        0.0000 
     15 CZ       -123.2300  -35.1400   93.1400 C.ar      3 PHE5        0.0000 
     16 CZ       -122.4100  -36.3800   93.3700 C.ar      3 PHE5        0.0000 
     17 CZ       -119.8300  -36.8800   91.2900 C.ar      3 PHE5        0.0000 
     18 CA       -127.7600  -40.1700   91.9700 C.3       4 GLY6        0.0000 
     19 CA       -126.8800  -39.8000   90.8200 C.3       4 GLY6        0.0000 
     20 CA       -125.9800  -39.0400   91.7500 C.3       4 GLY6        0.0000 
     21 CA       -125.1000  -38.6700   90.5900 C.3       4 GLY6        0.0000 
     22 CA       -124.2200  -38.3000   89.4300 C.3       4 GLY6        0.0000 
     23 CA       -125.1500  -39.8800   94.0600 C.3       4 GLY6        0.0000 
     24 CA       -124.2700  -39.5100   92.9000 C.3       4 GLY6        0.0000 
     25 CA       -123.4500  -40.7500   93.1300 C.3       4 GLY6        0.0000 
     26 CA       -124.2100  -37.9000   91.5200 C.3       4 GLY6        0.0000 
     27 CA       -121.7500  -41.6200   92.2100 C.3       4 GLY6        0.0000 
     28 CA       -123.3200  -37.5400   90.3600 C.3       4 GLY6        0.0000 
     29 CA       -122.5100  -38.7700   90.5900 C.3       4 GLY6        0.0000 
     30 CA       -124.1200  -35.9000   92.2200 C.3       4 GLY6        0.0000 
     31 CA       -122.4900  -38.3800   92.6700 C.3       4 GLY6        0.0000 
     32 CA       -121.6700  -39.6100   92.9000 C.3       4 GLY6        0.0000 
     33 CA       -123.2400  -35.5300   91.0600 C.3       4 GLY6        0.0000 
     34 CA       -120.6600  -36.0400   88.9800 C.3       4 GLY6        0.0000 
     35 CA       -119.9000  -38.4800   92.6700 C.3       4 GLY6        0.0000 
     36 CA       -120.6500  -35.6400   91.0600 C.3       4 GLY6        0.0000 
     37 CA       -119.7700  -35.2700   89.9000 C.3       4 GLY6        0.0000 
     38 CA       -118.9500  -36.5100   90.1300 C.3       4 GLY6        0.0000 
     39 CA       -119.7500  -34.8800   91.9900 C.3       4 GLY6        0.0000 
     40 DU       -123.3700  -38.7400   93.8300 H         5 CUB7        0.0000 
     41 DU       -122.4300  -36.7700   91.2900 H         5 CUB7        0.0000 
     42 DU       -121.5300  -36.0100   92.2200 H         5 CUB7        0.0000 
     43 DU       -120.7100  -37.2400   92.4500 H         5 CUB7        0.0000 
@<TRIPOS>BOND
@<TRIPOS>SUBSTRUCTURE
     1 SER1        1 GROUP   
     2 ALA2        8 GROUP   
     3 PHE5        9 GROUP   
     4 GLY6       18 GROUP   
     5 CUB7       40 GROUP   
@<TRIPOS>SET

