#    Name: 6mwi_1_EZL
#    Modification time : Fri May 22 19:29:21 2020

@<TRIPOS>MOLECULE
6mwi_1_EZL
   16    17     1     0     0
SMALL
NO_CHARGES


@<TRIPOS>ATOM
      1 N1         32.9260  -36.5100  -25.3540 N.pl3     1 EZL202      0.0000 
      2 C2         34.6980  -38.0450  -28.9420 C.ar      1 EZL202      0.0000 
      3 C3         33.8520  -38.0460  -30.0440 C.ar      1 EZL202      0.0000 
      4 C4         34.2770  -38.4960  -31.2750 C.ar      1 EZL202      0.0000 
      5 C5         35.5780  -38.9400  -31.3880 C.ar      1 EZL202      0.0000 
      6 C8         35.3070  -38.9600  -33.8040 C.3       1 EZL202      0.0000 
      7 O1         30.6320  -37.4470  -26.4000 O.2       1 EZL202      0.0000 
      8 O2         31.6400  -35.0340  -27.1420 O.2       1 EZL202      0.0000 
      9 S1         31.8730  -36.5190  -26.6710 S.o2      1 EZL202      0.0000 
     10 C1         32.9250  -37.2140  -27.9410 C.2       1 EZL202      0.0000 
     11 N2         34.1160  -37.5510  -27.7590 N.2       1 EZL202      0.0000 
     12 S2         32.2270  -37.4090  -29.5900 S.3       1 EZL202      0.0000 
     13 C6         36.4350  -38.9300  -30.2890 C.ar      1 EZL202      0.0000 
     14 C7         36.0020  -38.4920  -29.0620 C.ar      1 EZL202      0.0000 
     15 O3         36.0340  -39.3940  -32.6100 O.3       1 EZL202      0.0000 
     16 C9         36.0950  -39.4950  -34.9920 C.3       1 EZL202      0.0000 
@<TRIPOS>BOND
     1    1    9 1    
     2    2    3 ar   
     3    2   11 1    
     4    2   14 ar   
     5    3    4 ar   
     6    3   12 1    
     7    4    5 ar   
     8    5   13 ar   
     9    5   15 1    
    10    6   15 1    
    11    6   16 1    
    12    7    9 2    
    13    8    9 2    
    14    9   10 1    
    15   10   11 2    
    16   10   12 1    
    17   13   14 ar   
@<TRIPOS>SUBSTRUCTURE
     1 EZL202      1 GROUP   
@<TRIPOS>SET

