#    Name: 5z12_4_33Y
#    Modification time : Fri May 22 19:26:26 2020

@<TRIPOS>MOLECULE
5z12_4_33Y
   32    35     1     0     0
SMALL
NO_CHARGES


@<TRIPOS>ATOM
      1 F32       -18.0470  -51.9920  -29.4590 F         1 33Y501      0.0000 
      2 C24       -18.6060  -51.6400  -28.2880 C.ar      1 33Y501      0.0000 
      3 C23       -19.9740  -51.4760  -28.2810 C.ar      1 33Y501      0.0000 
      4 F26       -20.6400  -51.6870  -29.4070 F         1 33Y501      0.0000 
      5 C22       -20.6600  -51.1020  -27.1680 C.ar      1 33Y501      0.0000 
      6 C21       -19.9320  -50.8870  -26.0140 C.ar      1 33Y501      0.0000 
      7 C25       -17.8530  -51.4330  -27.1410 C.ar      1 33Y501      0.0000 
      8 C20       -18.5330  -51.0470  -25.9790 C.ar      1 33Y501      0.0000 
      9 C18       -17.8040  -50.8160  -24.6630 C.2       1 33Y501      0.0000 
     10 O19       -18.4220  -50.9600  -23.6060 O.2       1 33Y501      0.0000 
     11 N12       -16.4890  -50.5330  -24.6460 N.am      1 33Y501      0.0000 
     12 C13       -15.6250  -51.4600  -23.8950 C.3       1 33Y501      0.0000 
     13 C14       -14.6520  -50.8900  -22.8790 C.3       1 33Y501      0.0000 
     14 C27       -14.3250  -52.0260  -21.9280 C.3       1 33Y501      0.0000 
     15 C28       -15.2520  -49.7540  -22.0640 C.3       1 33Y501      0.0000 
     16 C9        -13.4980  -50.3710  -23.7070 C.2       1 33Y501      0.0000 
     17 C5        -12.1270  -50.6020  -23.4840 C.ar      1 33Y501      0.0000 
     18 C6        -11.3600  -51.2940  -22.5410 C.ar      1 33Y501      0.0000 
     19 C1         -9.9690  -51.3170  -22.5930 C.ar      1 33Y501      0.0000 
     20 C11       -16.0870  -49.5390  -25.3740 C.2       1 33Y501      0.0000 
     21 C10       -14.8380  -49.0330  -25.5490 C.2       1 33Y501      0.0000 
     22 C15       -14.6590  -47.9150  -26.4790 C.2       1 33Y501      0.0000 
     23 O17       -15.7680  -47.0850  -26.9560 O.3       1 33Y501      0.0000 
     24 C29       -15.5000  -46.0840  -27.9360 C.3       1 33Y501      0.0000 
     25 C31       -15.9110  -46.6200  -29.2840 C.3       1 33Y501      0.0000 
     26 C30       -16.3170  -44.8410  -27.6350 C.3       1 33Y501      0.0000 
     27 O16       -13.5280  -47.7250  -26.8800 O.2       1 33Y501      0.0000 
     28 C8        -13.5720  -49.5370  -24.9230 C.2       1 33Y501      0.0000 
     29 N7        -12.3160  -49.3070  -25.3110 N.pl3     1 33Y501      0.0000 
     30 C4        -11.4460  -49.9150  -24.4810 C.ar      1 33Y501      0.0000 
     31 C3        -10.0490  -49.9440  -24.5200 C.ar      1 33Y501      0.0000 
     32 C2         -9.3070  -50.6430  -23.5910 C.ar      1 33Y501      0.0000 
@<TRIPOS>BOND
     1    1    2 1    
     2    2    3 ar   
     3    2    7 ar   
     4    3    4 1    
     5    3    5 ar   
     6    5    6 ar   
     7    6    8 ar   
     8    7    8 ar   
     9    8    9 1    
    10    9   10 2    
    11    9   11 am   
    12   11   12 1    
    13   11   20 1    
    14   12   13 1    
    15   13   14 1    
    16   13   15 1    
    17   13   16 1    
    18   16   17 1    
    19   16   28 2    
    20   17   18 ar   
    21   17   30 ar   
    22   18   19 ar   
    23   19   32 ar   
    24   20   21 2    
    25   21   22 1    
    26   21   28 1    
    27   22   23 1    
    28   22   27 2    
    29   23   24 1    
    30   24   25 1    
    31   24   26 1    
    32   28   29 1    
    33   29   30 1    
    34   30   31 ar   
    35   31   32 ar   
@<TRIPOS>SUBSTRUCTURE
     1 33Y501      1 GROUP   
@<TRIPOS>SET

