#    Name: 5z12_2_9CR
#    Modification time : Fri May 22 19:26:19 2020

@<TRIPOS>MOLECULE
5z12_2_9CR
   22    22     1     0     0
SMALL
NO_CHARGES


@<TRIPOS>ATOM
      1 C1        -34.4370    7.4920  -22.6420 C.3       1 9CR501      0.0000 
      2 C2        -35.6740    8.1190  -21.9930 C.3       1 9CR501      0.0000 
      3 C3        -36.0620    9.4850  -22.5650 C.3       1 9CR501      0.0000 
      4 C4        -34.8890   10.4330  -22.7870 C.3       1 9CR501      0.0000 
      5 C5        -33.5860    9.8040  -22.3620 C.2       1 9CR501      0.0000 
      6 C6        -33.3170    8.5180  -22.6440 C.2       1 9CR501      0.0000 
      7 C7        -31.9390    8.2420  -23.0880 C.2       1 9CR501      0.0000 
      8 C8        -31.2920    7.0730  -23.2120 C.2       1 9CR501      0.0000 
      9 C9        -29.8790    7.1470  -23.6110 C.2       1 9CR501      0.0000 
     10 C10       -29.5810    8.2160  -24.3590 C.2       1 9CR501      0.0000 
     11 C11       -28.3220    8.5990  -24.9280 C.2       1 9CR501      0.0000 
     12 C12       -28.4510    9.5010  -25.9290 C.2       1 9CR501      0.0000 
     13 C13       -27.3350   10.0850  -26.6820 C.2       1 9CR501      0.0000 
     14 C14       -27.5530   11.2170  -27.3690 C.2       1 9CR501      0.0000 
     15 C15       -26.4950   11.9340  -28.1250 C.2       1 9CR501      0.0000 
     16 C16       -34.2060    6.1610  -21.9500 C.3       1 9CR501      0.0000 
     17 C17       -34.7080    7.1990  -24.1160 C.3       1 9CR501      0.0000 
     18 C18       -32.6120   10.6760  -21.6160 C.3       1 9CR501      0.0000 
     19 C19       -28.8760    6.1590  -23.1220 C.3       1 9CR501      0.0000 
     20 C20       -25.9700    9.4910  -26.5930 C.3       1 9CR501      0.0000 
     21 O1        -26.8180   12.8910  -28.7910 O.co2     1 9CR501      0.0000 
     22 O2        -25.2020   11.6320  -28.1000 O.co2     1 9CR501      0.0000 
@<TRIPOS>BOND
     1    1    2 1    
     2    1    6 1    
     3    1   16 1    
     4    1   17 1    
     5    2    3 1    
     6    3    4 1    
     7    4    5 1    
     8    5    6 2    
     9    5   18 1    
    10    6    7 1    
    11    7    8 2    
    12    8    9 1    
    13    9   10 2    
    14    9   19 1    
    15   10   11 1    
    16   11   12 2    
    17   12   13 1    
    18   13   14 2    
    19   13   20 1    
    20   14   15 1    
    21   15   21 ar   
    22   15   22 ar   
@<TRIPOS>SUBSTRUCTURE
     1 9CR501      1 GROUP   
@<TRIPOS>SET

