#    Name: 5z12_3_9CR
#    Modification time : Fri May 22 19:26:22 2020

@<TRIPOS>MOLECULE
5z12_3_9CR
   22    22     1     0     0
SMALL
NO_CHARGES


@<TRIPOS>ATOM
      1 C1        -12.8270  -37.5030    5.1080 C.3       1 9CR501      0.0000 
      2 C2        -11.6240  -37.1580    4.2590 C.3       1 9CR501      0.0000 
      3 C3        -10.3290  -37.7400    4.8040 C.3       1 9CR501      0.0000 
      4 C4        -10.3950  -39.0270    5.6410 C.3       1 9CR501      0.0000 
      5 C5        -11.7550  -39.6860    5.6250 C.2       1 9CR501      0.0000 
      6 C6        -12.8460  -39.0390    5.1730 C.2       1 9CR501      0.0000 
      7 C7        -14.1680  -39.6950    5.0140 C.2       1 9CR501      0.0000 
      8 C8        -14.8470  -39.5950    6.1660 C.2       1 9CR501      0.0000 
      9 C9        -16.2750  -39.9690    6.4130 C.2       1 9CR501      0.0000 
     10 C10       -16.7370  -39.3040    7.4950 C.2       1 9CR501      0.0000 
     11 C11       -18.0610  -39.0820    8.1210 C.2       1 9CR501      0.0000 
     12 C12       -17.9410  -38.0240    8.9420 C.2       1 9CR501      0.0000 
     13 C13       -18.8210  -37.2010    9.7930 C.2       1 9CR501      0.0000 
     14 C14       -20.1590  -37.2320    9.9280 C.2       1 9CR501      0.0000 
     15 C15       -20.8650  -36.2060   10.7710 C.2       1 9CR501      0.0000 
     16 C16       -12.6110  -36.7670    6.4020 C.3       1 9CR501      0.0000 
     17 C17       -14.0820  -36.8560    4.5170 C.3       1 9CR501      0.0000 
     18 C18       -11.8160  -41.1000    6.1050 C.3       1 9CR501      0.0000 
     19 C19       -17.1240  -40.8670    5.5700 C.3       1 9CR501      0.0000 
     20 C20       -18.0190  -36.1370   10.4930 C.3       1 9CR501      0.0000 
     21 O1        -22.0540  -36.0180   10.7420 O.co2     1 9CR501      0.0000 
     22 O2        -20.3000  -35.2700   11.4900 O.co2     1 9CR501      0.0000 
@<TRIPOS>BOND
     1    1    2 1    
     2    1    6 1    
     3    1   16 1    
     4    1   17 1    
     5    2    3 1    
     6    3    4 1    
     7    4    5 1    
     8    5    6 2    
     9    5   18 1    
    10    6    7 1    
    11    7    8 2    
    12    8    9 1    
    13    9   10 2    
    14    9   19 1    
    15   10   11 1    
    16   11   12 2    
    17   12   13 1    
    18   13   14 2    
    19   13   20 1    
    20   14   15 1    
    21   15   21 ar   
    22   15   22 ar   
@<TRIPOS>SUBSTRUCTURE
     1 9CR501      1 GROUP   
@<TRIPOS>SET

