#    Name: 5z12_1_33Y
#    Modification time : Fri May 22 19:26:14 2020

@<TRIPOS>MOLECULE
5z12_1_33Y
   32    35     1     0     0
SMALL
NO_CHARGES


@<TRIPOS>ATOM
      1 F32       -27.2190   -4.9730   11.8010 F         1 33Y501      0.0000 
      2 C24       -26.5780   -4.6470   10.6790 C.ar      1 33Y501      0.0000 
      3 C23       -25.2300   -4.4220   10.7870 C.ar      1 33Y501      0.0000 
      4 F26       -24.6690   -4.5420   11.9950 F         1 33Y501      0.0000 
      5 C22       -24.5050   -4.0910    9.6740 C.ar      1 33Y501      0.0000 
      6 C21       -25.1820   -3.9870    8.4530 C.ar      1 33Y501      0.0000 
      7 C25       -27.2640   -4.5550    9.4860 C.ar      1 33Y501      0.0000 
      8 C20       -26.5610   -4.2120    8.3500 C.ar      1 33Y501      0.0000 
      9 C18       -27.2400   -4.0880    7.0070 C.2       1 33Y501      0.0000 
     10 O19       -26.6360   -4.5880    6.0740 O.2       1 33Y501      0.0000 
     11 N12       -28.4330   -3.4740    6.7990 N.am      1 33Y501      0.0000 
     12 C13       -29.1100   -3.6290    5.5170 C.3       1 33Y501      0.0000 
     13 C14       -30.2500   -4.5550    5.2060 C.3       1 33Y501      0.0000 
     14 C27       -29.9000   -6.0090    5.4620 C.3       1 33Y501      0.0000 
     15 C28       -30.4780   -4.2700    3.7160 C.3       1 33Y501      0.0000 
     16 C9        -31.3890   -4.0460    6.0170 C.2       1 33Y501      0.0000 
     17 C5        -32.6990   -4.4130    5.7040 C.ar      1 33Y501      0.0000 
     18 C6        -33.3020   -5.2360    4.7320 C.ar      1 33Y501      0.0000 
     19 C1        -34.6870   -5.3930    4.6700 C.ar      1 33Y501      0.0000 
     20 C11       -28.9550   -2.6670    7.6720 C.2       1 33Y501      0.0000 
     21 C10       -30.2840   -2.4830    7.9280 C.2       1 33Y501      0.0000 
     22 C15       -30.6630   -1.5920    9.0760 C.2       1 33Y501      0.0000 
     23 O17       -29.9750   -1.4690   10.3950 O.3       1 33Y501      0.0000 
     24 C29       -29.4680   -0.1930   10.8320 C.3       1 33Y501      0.0000 
     25 C31       -28.3960    0.3370    9.9010 C.3       1 33Y501      0.0000 
     26 C30       -30.5080    0.9030   10.8650 C.3       1 33Y501      0.0000 
     27 O16       -31.6610   -0.9090    8.9630 O.2       1 33Y501      0.0000 
     28 C8        -31.4330   -3.0960    7.1480 C.2       1 33Y501      0.0000 
     29 N7        -32.7330   -3.0280    7.4570 N.pl3     1 33Y501      0.0000 
     30 C4        -33.4940   -3.7580    6.6200 C.ar      1 33Y501      0.0000 
     31 C3        -34.8740   -3.9370    6.5790 C.ar      1 33Y501      0.0000 
     32 C2        -35.4740   -4.7410    5.6050 C.ar      1 33Y501      0.0000 
@<TRIPOS>BOND
     1    1    2 1    
     2    2    3 ar   
     3    2    7 ar   
     4    3    4 1    
     5    3    5 ar   
     6    5    6 ar   
     7    6    8 ar   
     8    7    8 ar   
     9    8    9 1    
    10    9   10 2    
    11    9   11 am   
    12   11   12 1    
    13   11   20 1    
    14   12   13 1    
    15   13   14 1    
    16   13   15 1    
    17   13   16 1    
    18   16   17 1    
    19   16   28 2    
    20   17   18 ar   
    21   17   30 ar   
    22   18   19 ar   
    23   19   32 ar   
    24   20   21 2    
    25   21   22 1    
    26   21   28 1    
    27   22   23 1    
    28   22   27 2    
    29   23   24 1    
    30   24   25 1    
    31   24   26 1    
    32   28   29 1    
    33   29   30 1    
    34   30   31 ar   
    35   31   32 ar   
@<TRIPOS>SUBSTRUCTURE
     1 33Y501      1 GROUP   
@<TRIPOS>SET

