#    Name: 6af6_1_FAD
#    Modification time : Fri May 22 19:33:35 2020

@<TRIPOS>MOLECULE
6af6_1_FAD
   53    58     1     0     1
SMALL
NO_CHARGES


@<TRIPOS>ATOM
      1 PA          2.6130   19.1430   14.6690 P.3       1 FAD501      0.0000 
      2 O1A         1.4330   19.7200   15.2520 O.co2     1 FAD501      0.0000 
      3 O2A         3.6200   19.9730   14.1260 O.co2     1 FAD501      0.0000 
      4 O5B         2.1630   18.1430   13.4820 O.3       1 FAD501      0.0000 
      5 C5B         0.8100   17.6290   13.4410 C.3       1 FAD501      0.0000 
      6 C4B         0.6070   16.9720   12.0650 C.3       1 FAD501      0.0000 
      7 O4B         0.6960   18.0130   11.0610 O.3       1 FAD501      0.0000 
      8 C3B         1.6870   15.9540   11.6810 C.3       1 FAD501      0.0000 
      9 O3B         1.1140   14.9610   10.8230 O.3       1 FAD501      0.0000 
     10 C2B         2.6560   16.8100   10.8690 C.3       1 FAD501      0.0000 
     11 O2B         3.4210   16.0600    9.9540 O.3       1 FAD501      0.0000 
     12 C1B         1.6500   17.6740   10.1040 C.3       1 FAD501      0.0000 
     13 N9A         2.2310   18.8840    9.5320 N.pl3     1 FAD501      0.0000 
     14 C8A         2.7100   19.9940   10.2060 C.2       1 FAD501      0.0000 
     15 N7A         3.2410   20.8900    9.4130 N.2       1 FAD501      0.0000 
     16 C5A         3.1670   20.3080    8.1460 C.ar      1 FAD501      0.0000 
     17 C6A         3.6020   20.7360    6.8720 C.ar      1 FAD501      0.0000 
     18 N6A         4.2050   21.9080    6.6500 N.pl3     1 FAD501      0.0000 
     19 N1A         3.3580   19.9130    5.8100 N.ar      1 FAD501      0.0000 
     20 C2A         2.7280   18.7460    6.0400 C.ar      1 FAD501      0.0000 
     21 N3A         2.2720   18.2520    7.1890 N.ar      1 FAD501      0.0000 
     22 C4A         2.5270   19.0860    8.2110 C.ar      1 FAD501      0.0000 
     23 N1         11.0650   18.0030   21.2910 N.2       1 FAD501      0.0000 
     24 C2         12.1040   18.6390   21.9180 C.2       1 FAD501      0.0000 
     25 O2         12.3120   19.8550   21.8190 O.2       1 FAD501      0.0000 
     26 N3         12.9210   17.9280   22.7340 N.am      1 FAD501      0.0000 
     27 C4         12.8220   16.5360   22.9580 C.2       1 FAD501      0.0000 
     28 O4         13.5780   15.9560   23.7500 O.2       1 FAD501      0.0000 
     29 C4X        11.7420   15.8800   22.2480 C.2       1 FAD501      0.0000 
     30 N5         11.6030   14.5820   22.4100 N.2       1 FAD501      0.0000 
     31 C5X        10.5060   13.9730   21.8370 C.ar      1 FAD501      0.0000 
     32 C6         10.3510   12.6010   22.0150 C.ar      1 FAD501      0.0000 
     33 C7          9.2850   11.9360   21.4300 C.ar      1 FAD501      0.0000 
     34 C7M         9.1290   10.4510   21.6600 C.3       1 FAD501      0.0000 
     35 C8          8.4100   12.6320   20.5880 C.ar      1 FAD501      0.0000 
     36 C8M         7.2240   11.9220   19.9420 C.3       1 FAD501      0.0000 
     37 C9          8.5570   14.0030   20.4200 C.ar      1 FAD501      0.0000 
     38 C9A         9.6390   14.6590   20.9840 C.ar      1 FAD501      0.0000 
     39 N10         9.8630   16.0460   20.7770 N.pl3     1 FAD501      0.0000 
     40 C10        10.8840   16.6950   21.4560 C.2       1 FAD501      0.0000 
     41 C1'         8.8630   16.8520   20.0190 C.3       1 FAD501      0.0000 
     42 C2'         8.8770   16.6310   18.5050 C.3       1 FAD501      0.0000 
     43 O2'        10.0040   17.3340   17.9880 O.3       1 FAD501      0.0000 
     44 C3'         7.5590   17.1650   17.9120 C.3       1 FAD501      0.0000 
     45 O3'         6.5620   16.2790   18.4140 O.3       1 FAD501      0.0000 
     46 C4'         7.5710   17.1370   16.3910 C.3       1 FAD501      0.0000 
     47 O4'         8.5140   18.0790   15.8760 O.3       1 FAD501      0.0000 
     48 C5'         6.1920   17.3300   15.7980 C.3       1 FAD501      0.0000 
     49 O5'         5.5530   18.5120   16.3890 O.3       1 FAD501      0.0000 
     50 P           4.1690   18.4600   17.0010 P.3       1 FAD501      0.0000 
     51 O1P         4.0380   17.2800   17.9460 O.co2     1 FAD501      0.0000 
     52 O2P         3.8420   19.8040   17.4790 O.co2     1 FAD501      0.0000 
     53 O3P         3.2340   18.0800   15.6870 O.3       1 FAD501      0.0000 
@<TRIPOS>BOND
     1    1    2 ar   
     2    1    3 ar   
     3    1    4 1    
     4    1   53 1    
     5    4    5 1    
     6    5    6 1    
     7    6    7 1    
     8    6    8 1    
     9    7   12 1    
    10    8    9 1    
    11    8   10 1    
    12   10   11 1    
    13   10   12 1    
    14   12   13 1    
    15   13   14 1    
    16   13   22 1    
    17   14   15 2    
    18   15   16 1    
    19   16   17 ar   
    20   16   22 ar   
    21   17   18 1    
    22   17   19 ar   
    23   19   20 ar   
    24   20   21 ar   
    25   21   22 ar   
    26   23   24 1    
    27   23   40 2    
    28   24   25 2    
    29   24   26 am   
    30   26   27 am   
    31   27   28 2    
    32   27   29 1    
    33   29   30 2    
    34   29   40 1    
    35   30   31 1    
    36   31   32 ar   
    37   31   38 ar   
    38   32   33 ar   
    39   33   34 1    
    40   33   35 ar   
    41   35   36 1    
    42   35   37 ar   
    43   37   38 ar   
    44   38   39 1    
    45   39   40 1    
    46   39   41 1    
    47   41   42 1    
    48   42   43 1    
    49   42   44 1    
    50   44   45 1    
    51   44   46 1    
    52   46   47 1    
    53   46   48 1    
    54   48   49 1    
    55   49   50 1    
    56   50   51 ar   
    57   50   52 ar   
    58   50   53 1    
@<TRIPOS>SUBSTRUCTURE
     1 FAD501      1 GROUP   
@<TRIPOS>SET
ATOM$ORANGE STATIC     ATOMS   COLORGROUP SYSTEM 
54 5 5 6 6 8 8 10 10 12 12 14 14 16 16 17 17 20 \
20 22 22 24 24 27 27 29 29 31 31 32 32 33 33 34 34 35 \
35 36 36 37 37 38 38 40 40 41 41 42 42 44 44 46 46 48 \
48 

