#    Name: 6jix_3_PLP_CAVITY_N1_4
#    Modification time : Fri May 22 19:26:04 2020

@<TRIPOS>MOLECULE
6jix_3_PLP_CAVITY_N1_4
   53     0     6     0     0
SMALL
NO_CHARGES


@<TRIPOS>ATOM
      1 OG         17.4500  -42.1500   41.5400 O.3       1 SER1        0.0000 
      2 OG         19.2100  -41.4300   42.4700 O.3       1 SER1        0.0000 
      3 OG         17.8100  -40.9200   42.3200 O.3       1 SER1        0.0000 
      4 OG         17.4200  -41.6200   43.5900 O.3       1 SER1        0.0000 
      5 O          17.4800  -42.6800   39.4800 O.2       2 ALA2        0.0000 
      6 O          17.8400  -41.4500   40.2700 O.2       2 ALA2        0.0000 
      7 O          16.4300  -40.9500   40.1200 O.2       2 ALA2        0.0000 
      8 O          16.7900  -39.7200   40.9000 O.2       2 ALA2        0.0000 
      9 N          15.3900  -39.2200   40.7500 N.am      2 ALA2        0.0000 
     10 N          15.3500  -38.6900   42.8000 N.am      2 ALA2        0.0000 
     11 N          15.3200  -38.1600   44.8600 N.am      2 ALA2        0.0000 
     12 OD1        19.1800  -40.9000   44.5300 O.co2     3 ASP3        0.0000 
     13 OD1        17.7800  -40.3900   44.3800 O.co2     3 ASP3        0.0000 
     14 OD1        20.2000  -42.1000   45.9500 O.co2     3 ASP3        0.0000 
     15 OD1        19.1500  -40.3700   46.5800 O.co2     3 ASP3        0.0000 
     16 OD1        17.7500  -39.8600   46.4300 O.co2     3 ASP3        0.0000 
     17 OD1        18.7600  -41.0700   47.8500 O.co2     3 ASP3        0.0000 
     18 OD1        21.3000  -38.9400   46.2500 O.co2     3 ASP3        0.0000 
     19 NZ         20.5900  -41.4000   44.6800 N.4       4 LYS4        0.0000 
     20 NZ         22.3500  -40.6800   45.6100 N.4       4 LYS4        0.0000 
     21 NZ         20.9400  -40.1700   45.4600 N.4       4 LYS4        0.0000 
     22 NZ         13.9200  -37.6500   44.7100 N.4       4 LYS4        0.0000 
     23 NZ         15.6800  -36.9300   45.6400 N.4       4 LYS4        0.0000 
     24 NZ         15.2900  -37.6300   46.9100 N.4       4 LYS4        0.0000 
     25 CZ         18.2000  -40.2200   41.0500 C.ar      5 PHE5        0.0000 
     26 CZ         17.1500  -38.4900   41.6900 C.ar      5 PHE5        0.0000 
     27 CZ         19.5700  -40.2000   43.2600 C.ar      5 PHE5        0.0000 
     28 CZ         18.1600  -39.6900   43.1100 C.ar      5 PHE5        0.0000 
     29 CZ         16.7600  -39.1900   42.9500 C.ar      5 PHE5        0.0000 
     30 CZ         19.5400  -39.6700   45.3100 C.ar      5 PHE5        0.0000 
     31 CZ         18.1300  -39.1600   45.1600 C.ar      5 PHE5        0.0000 
     32 CZ         16.7300  -38.6600   45.0100 C.ar      5 PHE5        0.0000 
     33 CA         16.0500  -41.6500   41.3900 C.3       6 GLY6        0.0000 
     34 CA         16.4000  -40.4200   42.1700 C.3       6 GLY6        0.0000 
     35 CA         15.0000  -39.9100   42.0200 C.3       6 GLY6        0.0000 
     36 CA         16.0200  -41.1200   43.4400 C.3       6 GLY6        0.0000 
     37 CA         16.3700  -39.8900   44.2200 C.3       6 GLY6        0.0000 
     38 CA         14.9700  -39.3800   44.0700 C.3       6 GLY6        0.0000 
     39 CA         13.5600  -38.8800   43.9200 C.3       6 GLY6        0.0000 
     40 CA         15.9800  -40.5900   45.4900 C.3       6 GLY6        0.0000 
     41 CA         14.5800  -40.0800   45.3400 C.3       6 GLY6        0.0000 
     42 CA         20.5500  -40.8700   46.7300 C.3       6 GLY6        0.0000 
     43 CA         16.3400  -39.3600   46.2800 C.3       6 GLY6        0.0000 
     44 CA         14.9400  -38.8600   46.1300 C.3       6 GLY6        0.0000 
     45 CA         13.5300  -38.3500   45.9800 C.3       6 GLY6        0.0000 
     46 CA         20.1700  -41.5700   48.0000 C.3       6 GLY6        0.0000 
     47 CA         19.8900  -38.4400   46.1000 C.3       6 GLY6        0.0000 
     48 CA         18.4900  -37.9400   45.9400 C.3       6 GLY6        0.0000 
     49 CA         17.0800  -37.4300   45.7900 C.3       6 GLY6        0.0000 
     50 CA         20.9100  -39.6400   47.5200 C.3       6 GLY6        0.0000 
     51 CA         19.5100  -39.1400   47.3600 C.3       6 GLY6        0.0000 
     52 CA         16.7000  -38.1300   47.0600 C.3       6 GLY6        0.0000 
     53 CA         19.1200  -39.8400   48.6300 C.3       6 GLY6        0.0000 
@<TRIPOS>BOND
@<TRIPOS>SUBSTRUCTURE
     1 SER1        1 GROUP   
     2 ALA2        5 GROUP   
     3 ASP3       12 GROUP   
     4 LYS4       19 GROUP   
     5 PHE5       25 GROUP   
     6 GLY6       33 GROUP   
@<TRIPOS>SET

