#    Name: 6jix_3_PLP
#    Modification time : Fri May 22 19:26:03 2020

@<TRIPOS>MOLECULE
6jix_3_PLP
   25    25     1     0     0
SMALL
NO_CHARGES


@<TRIPOS>ATOM
      1 N1         14.2690  -38.2920   42.7550 N.ar      1 PLP504      0.0000 
      2 C2         14.6040  -38.3030   44.0440 C.ar      1 PLP504      0.0000 
      3 C2A        13.7650  -37.5290   45.0470 C.3       1 PLP504      0.0000 
      4 C3         15.7490  -39.0240   44.4910 C.ar      1 PLP504      0.0000 
      5 O3         16.1220  -39.0440   45.8290 O.3       1 PLP504      0.0000 
      6 C4         16.5080  -39.7280   43.5800 C.ar      1 PLP504      0.0000 
      7 C4A        17.7520  -40.5150   44.0730 C.2       1 PLP504      0.0000 
      8 O4A        18.5130  -40.0100   44.8900 O.2       1 PLP504      0.0000 
      9 C5         16.1050  -39.6870   42.2070 C.ar      1 PLP504      0.0000 
     10 C6         14.9710  -38.9620   41.8260 C.ar      1 PLP504      0.0000 
     11 C5A        16.9300  -40.4650   41.1170 C.3       1 PLP504      0.0000 
     12 O4P        16.5610  -41.7940   41.2180 O.3       1 PLP504      0.0000 
     13 P          17.4330  -42.9650   40.4960 P.3       1 PLP504      0.0000 
     14 O1P        17.6460  -42.6270   39.0780 O.co2     1 PLP504      0.0000 
     15 O2P        18.9080  -43.1710   41.2810 O.co2     1 PLP504      0.0000 
     16 O3P        16.6640  -44.2150   40.4590 O.co2     1 PLP504      0.0000 
     17 H2A1       13.5180  -36.6700   44.6690 H         1 PLP504      0.0000 
     18 H2A2       14.2770  -37.3880   45.8590 H         1 PLP504      0.0000 
     19 H2A3       12.9620  -38.0320   45.2550 H         1 PLP504      0.0000 
     20 HO3        16.9030  -38.7190   45.9110 H         1 PLP504      0.0000 
     21 H4A        17.9210  -41.3700   43.7490 H         1 PLP504      0.0000 
     22 H6         14.7030  -38.9440   40.9350 H         1 PLP504      0.0000 
     23 H5A1       16.7190  -40.1280   40.2320 H         1 PLP504      0.0000 
     24 H5A2       17.8810  -40.3710   41.2840 H         1 PLP504      0.0000 
     25 HOP2       19.3370  -42.4370   41.2790 H         1 PLP504      0.0000 
@<TRIPOS>BOND
     1    1    2 ar   
     2    1   10 ar   
     3    2    3 1    
     4    2    4 ar   
     5    3   17 1    
     6    3   18 1    
     7    3   19 1    
     8    4    5 1    
     9    4    6 ar   
    10    5   20 1    
    11    6    7 1    
    12    6    9 ar   
    13    7    8 2    
    14    9   10 ar   
    15    7   21 1    
    16    9   11 1    
    17   11   12 1    
    18   10   22 1    
    19   11   23 1    
    20   11   24 1    
    21   12   13 1    
    22   13   14 ar   
    23   13   15 ar   
    24   13   16 ar   
    25   15   25 1    
@<TRIPOS>SUBSTRUCTURE
     1 PLP504      1 GROUP   
@<TRIPOS>SET

