#    Name: 5zzw_3_SAH
#    Modification time : Fri May 22 19:23:58 2020

@<TRIPOS>MOLECULE
5zzw_3_SAH
   26    28     1     0     0
SMALL
NO_CHARGES


@<TRIPOS>ATOM
      1 N          11.5880   54.2550   32.7300 N.4       1 SAH501      0.0000 
      2 CA         12.6650   53.7720   31.8740 C.3       1 SAH501      0.0000 
      3 CB         12.5460   54.3250   30.4520 C.3       1 SAH501      0.0000 
      4 CG         12.2120   55.8030   30.3650 C.3       1 SAH501      0.0000 
      5 SD         12.2270   56.2900   28.6610 S.3       1 SAH501      0.0000 
      6 C          14.0100   54.1050   32.4440 C.2       1 SAH501      0.0000 
      7 O          15.0370   53.8480   31.8210 O.co2     1 SAH501      0.0000 
      8 OXT        14.1150   54.6240   33.5460 O.co2     1 SAH501      0.0000 
      9 C5'        10.5110   56.4600   28.2640 C.3       1 SAH501      0.0000 
     10 C4'         9.8020   55.1080   28.0980 C.3       1 SAH501      0.0000 
     11 O4'         8.3970   55.3030   27.9210 O.3       1 SAH501      0.0000 
     12 C3'        10.2560   54.3470   26.8570 C.3       1 SAH501      0.0000 
     13 O3'        10.2510   52.9460   27.1760 O.3       1 SAH501      0.0000 
     14 C2'         9.2270   54.6990   25.7950 C.3       1 SAH501      0.0000 
     15 O2'         9.0970   53.7260   24.7600 O.3       1 SAH501      0.0000 
     16 C1'         7.9650   54.8210   26.6370 C.3       1 SAH501      0.0000 
     17 N9          6.9440   55.7700   26.1260 N.pl3     1 SAH501      0.0000 
     18 C8          7.1560   57.0080   25.6140 C.2       1 SAH501      0.0000 
     19 N7          5.9750   57.5950   25.2740 N.2       1 SAH501      0.0000 
     20 C5          4.9900   56.7310   25.5870 C.ar      1 SAH501      0.0000 
     21 C6          3.5140   56.7170   25.4870 C.ar      1 SAH501      0.0000 
     22 N6          2.8550   57.7780   24.9720 N.pl3     1 SAH501      0.0000 
     23 N1          2.8560   55.6130   25.9230 N.ar      1 SAH501      0.0000 
     24 C2          3.5090   54.5380   26.4300 C.ar      1 SAH501      0.0000 
     25 N3          4.8540   54.4770   26.5470 N.ar      1 SAH501      0.0000 
     26 C4          5.6310   55.5270   26.1500 C.ar      1 SAH501      0.0000 
@<TRIPOS>BOND
     1    1    2 1    
     2    2    3 1    
     3    2    6 1    
     4    3    4 1    
     5    4    5 1    
     6    5    9 1    
     7    6    7 ar   
     8    6    8 ar   
     9    9   10 1    
    10   10   11 1    
    11   10   12 1    
    12   11   16 1    
    13   12   13 1    
    14   12   14 1    
    15   14   15 1    
    16   14   16 1    
    17   16   17 1    
    18   17   18 1    
    19   17   26 1    
    20   18   19 2    
    21   19   20 1    
    22   20   21 ar   
    23   20   26 ar   
    24   21   22 1    
    25   21   23 ar   
    26   23   24 ar   
    27   24   25 ar   
    28   25   26 ar   
@<TRIPOS>SUBSTRUCTURE
     1 SAH501      1 GROUP   
@<TRIPOS>SET

