#    Name: 5zzw_1_SAH
#    Modification time : Fri May 22 19:23:47 2020

@<TRIPOS>MOLECULE
5zzw_1_SAH
   26    28     1     0     0
SMALL
NO_CHARGES


@<TRIPOS>ATOM
      1 N          -3.0970   68.6800  -23.8270 N.4       1 SAH501      0.0000 
      2 CA         -4.4900   68.9920  -23.4890 C.3       1 SAH501      0.0000 
      3 CB         -5.4830   68.2420  -24.3770 C.3       1 SAH501      0.0000 
      4 CG         -5.1370   66.7840  -24.6290 C.3       1 SAH501      0.0000 
      5 SD         -6.4280   66.0920  -25.6190 S.3       1 SAH501      0.0000 
      6 C          -4.7780   68.6930  -22.0550 C.2       1 SAH501      0.0000 
      7 O          -5.9180   68.7750  -21.5960 O.co2     1 SAH501      0.0000 
      8 OXT        -3.8810   68.3740  -21.2850 O.co2     1 SAH501      0.0000 
      9 C5'        -5.6780   65.9380  -27.2160 C.3       1 SAH501      0.0000 
     10 C4'        -5.6500   67.2750  -27.9550 C.3       1 SAH501      0.0000 
     11 O4'        -4.9430   67.1120  -29.1840 O.3       1 SAH501      0.0000 
     12 C3'        -7.0050   67.8340  -28.3660 C.3       1 SAH501      0.0000 
     13 O3'        -6.9600   69.2580  -28.2770 O.3       1 SAH501      0.0000 
     14 C2'        -7.1780   67.3770  -29.7990 C.3       1 SAH501      0.0000 
     15 O2'        -8.0710   68.1910  -30.5850 O.3       1 SAH501      0.0000 
     16 C1'        -5.7610   67.4190  -30.3200 C.3       1 SAH501      0.0000 
     17 N9         -5.4340   66.4510  -31.3880 N.pl3     1 SAH501      0.0000 
     18 C8         -5.7890   65.1480  -31.4550 C.2       1 SAH501      0.0000 
     19 N7         -5.2790   64.5600  -32.5690 N.2       1 SAH501      0.0000 
     20 C5         -4.5570   65.4940  -33.2190 C.ar      1 SAH501      0.0000 
     21 C6         -3.7440   65.5450  -34.4540 C.ar      1 SAH501      0.0000 
     22 N6         -3.6110   64.4420  -35.2190 N.pl3     1 SAH501      0.0000 
     23 N1         -3.1560   66.7280  -34.7810 N.ar      1 SAH501      0.0000 
     24 C2         -3.2990   67.8360  -34.0170 C.ar      1 SAH501      0.0000 
     25 N3         -4.0210   67.8630  -32.8760 N.ar      1 SAH501      0.0000 
     26 C4         -4.6600   66.7440  -32.4350 C.ar      1 SAH501      0.0000 
@<TRIPOS>BOND
     1    1    2 1    
     2    2    3 1    
     3    2    6 1    
     4    3    4 1    
     5    4    5 1    
     6    5    9 1    
     7    6    7 ar   
     8    6    8 ar   
     9    9   10 1    
    10   10   11 1    
    11   10   12 1    
    12   11   16 1    
    13   12   13 1    
    14   12   14 1    
    15   14   15 1    
    16   14   16 1    
    17   16   17 1    
    18   17   18 1    
    19   17   26 1    
    20   18   19 2    
    21   19   20 1    
    22   20   21 ar   
    23   20   26 ar   
    24   21   22 1    
    25   21   23 ar   
    26   23   24 ar   
    27   24   25 ar   
    28   25   26 ar   
@<TRIPOS>SUBSTRUCTURE
     1 SAH501      1 GROUP   
@<TRIPOS>SET

