#    Name: 5zzw_2_SAH
#    Modification time : Fri May 22 19:23:52 2020

@<TRIPOS>MOLECULE
5zzw_2_SAH
   26    28     1     0     0
SMALL
NO_CHARGES


@<TRIPOS>ATOM
      1 N         -18.2070   31.9750  -12.4240 N.4       1 SAH501      0.0000 
      2 CA        -18.1840   32.5470  -13.7740 C.3       1 SAH501      0.0000 
      3 CB        -17.0360   31.9870  -14.6180 C.3       1 SAH501      0.0000 
      4 CG        -16.8420   30.4610  -14.4860 C.3       1 SAH501      0.0000 
      5 SD        -15.5640   29.9490  -15.5820 S.3       1 SAH501      0.0000 
      6 C         -19.4870   32.2990  -14.4790 C.2       1 SAH501      0.0000 
      7 O         -19.6360   32.5980  -15.6670 O.co2     1 SAH501      0.0000 
      8 OXT       -20.4390   31.7960  -13.8850 O.co2     1 SAH501      0.0000 
      9 C5'       -14.2080   29.6630  -14.4780 C.3       1 SAH501      0.0000 
     10 C4'       -13.5550   30.9530  -13.9970 C.3       1 SAH501      0.0000 
     11 O4'       -12.5410   30.6380  -13.0440 O.3       1 SAH501      0.0000 
     12 C3'       -12.8470   31.7460  -15.0820 C.3       1 SAH501      0.0000 
     13 O3'       -13.0160   33.1430  -14.7970 O.3       1 SAH501      0.0000 
     14 C2'       -11.3930   31.2980  -14.9900 C.3       1 SAH501      0.0000 
     15 O2'       -10.4640   32.2440  -15.5020 O.3       1 SAH501      0.0000 
     16 C1'       -11.2470   31.0830  -13.4950 C.3       1 SAH501      0.0000 
     17 N9        -10.2730   30.0400  -13.0870 N.pl3     1 SAH501      0.0000 
     18 C8        -10.0970   28.8160  -13.6400 C.2       1 SAH501      0.0000 
     19 N7         -9.1350   28.1230  -12.9800 N.2       1 SAH501      0.0000 
     20 C5         -8.6880   28.9000  -11.9810 C.ar      1 SAH501      0.0000 
     21 C6         -7.6750   28.7810  -10.9050 C.ar      1 SAH501      0.0000 
     22 N6         -6.9460   27.6470  -10.7860 N.pl3     1 SAH501      0.0000 
     23 N1         -7.5160   29.8440  -10.0620 N.ar      1 SAH501      0.0000 
     24 C2         -8.2490   30.9730  -10.1840 C.ar      1 SAH501      0.0000 
     25 N3         -9.1850   31.1500  -11.1390 N.ar      1 SAH501      0.0000 
     26 C4         -9.4440   30.1670  -12.0480 C.ar      1 SAH501      0.0000 
@<TRIPOS>BOND
     1    1    2 1    
     2    2    3 1    
     3    2    6 1    
     4    3    4 1    
     5    4    5 1    
     6    5    9 1    
     7    6    7 ar   
     8    6    8 ar   
     9    9   10 1    
    10   10   11 1    
    11   10   12 1    
    12   11   16 1    
    13   12   13 1    
    14   12   14 1    
    15   14   15 1    
    16   14   16 1    
    17   16   17 1    
    18   17   18 1    
    19   17   26 1    
    20   18   19 2    
    21   19   20 1    
    22   20   21 ar   
    23   20   26 ar   
    24   21   22 1    
    25   21   23 ar   
    26   23   24 ar   
    27   24   25 ar   
    28   25   26 ar   
@<TRIPOS>SUBSTRUCTURE
     1 SAH501      1 GROUP   
@<TRIPOS>SET

