#    Name: 5yth_1_DGT_CAVITY_N1_6
#    Modification time : Fri May 22 19:24:45 2020

@<TRIPOS>MOLECULE
5yth_1_DGT_CAVITY_N1_6
   47     0     5     0     0
SMALL
NO_CHARGES


@<TRIPOS>ATOM
      1 N         -36.8500  107.2800    4.9100 N.am      1 ALA2        0.0000 
      2 N         -35.8400  107.9900    5.7700 N.am      1 ALA2        0.0000 
      3 OD1       -37.5300  103.0600   -1.2500 O.co2     2 ASP3        0.0000 
      4 OD1       -38.6400  103.5200   -0.3500 O.co2     2 ASP3        0.0000 
      5 OD1       -36.5300  103.7700   -0.3900 O.co2     2 ASP3        0.0000 
      6 OD1       -37.8000  105.4700   -0.3100 O.co2     2 ASP3        0.0000 
      7 OD1       -35.7000  105.7200   -0.3600 O.co2     2 ASP3        0.0000 
      8 OD1       -36.8000  106.1800    0.5500 O.co2     2 ASP3        0.0000 
      9 OD1       -37.9100  106.6400    1.4500 O.co2     2 ASP3        0.0000 
     10 OD1       -35.8000  106.8900    1.4100 O.co2     2 ASP3        0.0000 
     11 OD1       -36.9100  107.3500    2.3100 O.co2     2 ASP3        0.0000 
     12 OD1       -34.6400  106.3600    3.1000 O.co2     2 ASP3        0.0000 
     13 OD1       -35.7400  106.8200    4.0100 O.co2     2 ASP3        0.0000 
     14 OD1       -33.6300  107.0700    3.9600 O.co2     2 ASP3        0.0000 
     15 OD1       -34.7400  107.5300    4.8700 O.co2     2 ASP3        0.0000 
     16 NZ        -32.6300  107.7800    4.8300 N.4       3 LYS4        0.0000 
     17 NZ        -32.8000  109.0200    4.0000 N.4       3 LYS4        0.0000 
     18 NZ        -32.9600  110.2600    3.1700 N.4       3 LYS4        0.0000 
     19 NZ        -33.7400  108.2400    5.7300 N.4       3 LYS4        0.0000 
     20 NZ        -33.9000  109.4800    4.9000 N.4       3 LYS4        0.0000 
     21 NZ        -32.9000  110.1900    5.7600 N.4       3 LYS4        0.0000 
     22 CA        -37.7000  104.3000   -2.0800 C.3       4 GLY6        0.0000 
     23 CA        -36.7000  105.0100   -1.2200 C.3       4 GLY6        0.0000 
     24 CA        -36.8600  106.2500   -2.0500 C.3       4 GLY6        0.0000 
     25 CA        -38.9100  105.9200    0.5900 C.3       4 GLY6        0.0000 
     26 CA        -34.7600  106.5000   -2.0900 C.3       4 GLY6        0.0000 
     27 CA        -39.0100  107.0900    2.3600 C.3       4 GLY6        0.0000 
     28 CA        -33.7600  107.2100   -1.2300 C.3       4 GLY6        0.0000 
     29 CA        -34.8600  107.6700   -0.3200 C.3       4 GLY6        0.0000 
     30 CA        -37.8500  106.5700    4.0500 C.3       4 GLY6        0.0000 
     31 CA        -38.0100  107.8000    3.2200 C.3       4 GLY6        0.0000 
     32 CA        -33.8600  108.3800    0.5400 C.3       4 GLY6        0.0000 
     33 CA        -34.9700  108.8400    1.4400 C.3       4 GLY6        0.0000 
     34 CA        -37.0100  108.5100    4.0800 C.3       4 GLY6        0.0000 
     35 CA        -33.9600  109.5500    2.3100 C.3       4 GLY6        0.0000 
     36 DU        -38.8000  104.7600   -1.1800 H         5 CUB7        0.0000 
     37 DU        -37.9700  106.7100   -1.1400 H         5 CUB7        0.0000 
     38 DU        -35.8600  106.9600   -1.1900 H         5 CUB7        0.0000 
     39 DU        -36.9700  107.4200   -0.2800 H         5 CUB7        0.0000 
     40 DU        -38.0700  107.8700    0.6200 H         5 CUB7        0.0000 
     41 DU        -35.9700  108.1300    0.5800 H         5 CUB7        0.0000 
     42 DU        -37.0700  108.5800    1.4900 H         5 CUB7        0.0000 
     43 DU        -34.8000  107.6000    2.2700 H         5 CUB7        0.0000 
     44 DU        -35.9100  108.0600    3.1800 H         5 CUB7        0.0000 
     45 DU        -36.0700  109.3000    2.3500 H         5 CUB7        0.0000 
     46 DU        -33.8000  108.3100    3.1300 H         5 CUB7        0.0000 
     47 DU        -34.9000  108.7700    4.0400 H         5 CUB7        0.0000 
@<TRIPOS>BOND
@<TRIPOS>SUBSTRUCTURE
     1 ALA2        1 GROUP   
     2 ASP3        3 GROUP   
     3 LYS4       16 GROUP   
     4 GLY6       22 GROUP   
     5 CUB7       36 GROUP   
@<TRIPOS>SET

