#    Name: 5yth_1_DGT_CAVITY_N1_4
#    Modification time : Fri May 22 19:24:45 2020

@<TRIPOS>MOLECULE
5yth_1_DGT_CAVITY_N1_4
   10     0     3     0     0
SMALL
NO_CHARGES


@<TRIPOS>ATOM
      1 OD1       -37.5300  103.0600   -1.2500 O.co2     1 ASP3        0.0000 
      2 OD1       -36.5300  103.7700   -0.3900 O.co2     1 ASP3        0.0000 
      3 OD1       -35.7000  105.7200   -0.3600 O.co2     1 ASP3        0.0000 
      4 OD1       -36.8000  106.1800    0.5500 O.co2     1 ASP3        0.0000 
      5 OD1       -35.8000  106.8900    1.4100 O.co2     1 ASP3        0.0000 
      6 OD1       -34.6400  106.3600    3.1000 O.co2     1 ASP3        0.0000 
      7 OD1       -35.7400  106.8200    4.0100 O.co2     1 ASP3        0.0000 
      8 OD1       -33.6300  107.0700    3.9600 O.co2     1 ASP3        0.0000 
      9 NZ        -32.6300  107.7800    4.8300 N.4       2 LYS4        0.0000 
     10 DU        -34.8000  107.6000    2.2700 H         3 CUB7        0.0000 
@<TRIPOS>BOND
@<TRIPOS>SUBSTRUCTURE
     1 ASP3        1 GROUP   
     2 LYS4        9 GROUP   
     3 CUB7       10 GROUP   
@<TRIPOS>SET

