#    Name: 5yth_1_DGT
#    Modification time : Fri May 22 19:24:44 2020

@<TRIPOS>MOLECULE
5yth_1_DGT
   31    33     1     0     0
SMALL
NO_CHARGES


@<TRIPOS>ATOM
      1 PG        -33.7100  102.5470    1.6260 P.3       1 DGT901      0.0000 
      2 O1G       -34.6590  101.5830    0.9730 O.co2     1 DGT901      0.0000 
      3 O2G       -34.3810  103.7470    2.2230 O.co2     1 DGT901      0.0000 
      4 O3G       -32.5420  102.9370    0.7830 O.co2     1 DGT901      0.0000 
      5 O3B       -33.2050  101.6740    2.8840 O.3       1 DGT901      0.0000 
      6 PB        -31.6950  101.1880    3.1270 P.3       1 DGT901      0.0000 
      7 O1B       -31.7500   99.9210    3.9260 O.co2     1 DGT901      0.0000 
      8 O2B       -30.9020  101.1070    1.8470 O.co2     1 DGT901      0.0000 
      9 O3A       -31.2090  102.3780    4.0960 O.3       1 DGT901      0.0000 
     10 PA        -30.2550  103.6020    3.6900 P.3       1 DGT901      0.0000 
     11 O1A       -30.7200  104.8360    4.4050 O.co2     1 DGT901      0.0000 
     12 O2A       -30.1250  103.7160    2.2020 O.co2     1 DGT901      0.0000 
     13 O5'       -28.8760  103.0870    4.2990 O.3       1 DGT901      0.0000 
     14 C5'       -28.0360  102.2010    3.5810 C.3       1 DGT901      0.0000 
     15 C4'       -27.5450  101.0580    4.4510 C.3       1 DGT901      0.0000 
     16 O4'       -26.7500  101.5340    5.5410 O.3       1 DGT901      0.0000 
     17 C3'       -28.6570  100.2330    5.0700 C.3       1 DGT901      0.0000 
     18 O3'       -29.1690   99.2480    4.1700 O.3       1 DGT901      0.0000 
     19 C2'       -27.9320   99.6180    6.2420 C.3       1 DGT901      0.0000 
     20 C1'       -26.9700  100.7120    6.6810 C.3       1 DGT901      0.0000 
     21 N9        -27.7000  101.4110    7.7560 N.pl3     1 DGT901      0.0000 
     22 C8        -28.4950  102.4900    7.6680 C.2       1 DGT901      0.0000 
     23 N7        -29.0130  102.7980    8.8740 N.2       1 DGT901      0.0000 
     24 C5        -28.5520  101.8940    9.7460 C.2       1 DGT901      0.0000 
     25 C6        -28.7070  101.6180   11.1870 C.2       1 DGT901      0.0000 
     26 O6        -29.4300  102.3580   11.8780 O.2       1 DGT901      0.0000 
     27 N1        -28.0550  100.5610   11.7000 N.am      1 DGT901      0.0000 
     28 C2        -27.2710   99.7540   10.9490 C.2       1 DGT901      0.0000 
     29 N2        -26.6340   98.7020   11.5070 N.pl3     1 DGT901      0.0000 
     30 N3        -27.0830   99.9510    9.6230 N.2       1 DGT901      0.0000 
     31 C4        -27.6920  100.9810    8.9980 C.2       1 DGT901      0.0000 
@<TRIPOS>BOND
     1    1    2 ar   
     2    1    3 ar   
     3    1    4 ar   
     4    1    5 1    
     5    5    6 1    
     6    6    7 ar   
     7    6    8 ar   
     8    6    9 1    
     9    9   10 1    
    10   10   11 ar   
    11   10   12 ar   
    12   10   13 1    
    13   13   14 1    
    14   14   15 1    
    15   15   16 1    
    16   15   17 1    
    17   16   20 1    
    18   17   18 1    
    19   17   19 1    
    20   19   20 1    
    21   20   21 1    
    22   21   22 1    
    23   21   31 1    
    24   22   23 2    
    25   23   24 1    
    26   24   25 1    
    27   24   31 2    
    28   25   26 2    
    29   25   27 am   
    30   27   28 1    
    31   28   29 1    
    32   28   30 2    
    33   30   31 1    
@<TRIPOS>SUBSTRUCTURE
     1 DGT901      1 GROUP   
@<TRIPOS>SET

