#    Name: 6g8h_2_NAR
#    Modification time : Fri May 22 19:30:06 2020

@<TRIPOS>MOLECULE
6g8h_2_NAR
   20    22     1     0     0
SMALL
NO_CHARGES


@<TRIPOS>ATOM
      1 C1         61.4920   90.0290    5.2770 C.ar      1 NAR1002     0.0000 
      2 C2         62.7320   90.6140    5.0220 C.ar      1 NAR1002     0.0000 
      3 C3         63.0200   91.9820    5.2690 C.ar      1 NAR1002     0.0000 
      4 C4         62.0220   92.8430    5.7820 C.ar      1 NAR1002     0.0000 
      5 C5         60.6660   92.2630    6.0810 C.ar      1 NAR1002     0.0000 
      6 C6         60.4500   90.7980    5.7910 C.ar      1 NAR1002     0.0000 
      7 C7         59.4700   93.0550    6.5860 C.2       1 NAR1002     0.0000 
      8 C8         58.1870   92.6020    5.9170 C.3       1 NAR1002     0.0000 
      9 C9         58.0590   91.0890    6.2620 C.3       1 NAR1002     0.0000 
     10 O1         59.2080   90.2280    5.9910 O.3       1 NAR1002     0.0000 
     11 O2         59.4740   93.9440    7.4410 O.2       1 NAR1002     0.0000 
     12 C10        56.7650   90.5150    5.7950 C.ar      1 NAR1002     0.0000 
     13 C11        55.8550   91.1960    4.9700 C.ar      1 NAR1002     0.0000 
     14 C12        54.6470   90.5840    4.6350 C.ar      1 NAR1002     0.0000 
     15 C13        54.3400   89.3050    5.1410 C.ar      1 NAR1002     0.0000 
     16 C14        55.2480   88.6330    5.9700 C.ar      1 NAR1002     0.0000 
     17 C15        56.4570   89.2440    6.3000 C.ar      1 NAR1002     0.0000 
     18 O3         53.1560   88.6920    4.8380 O.3       1 NAR1002     0.0000 
     19 O4         63.6870   89.7910    4.5260 O.3       1 NAR1002     0.0000 
     20 O5         62.2680   94.1740    6.0160 O.co2     1 NAR1002     0.0000 
@<TRIPOS>BOND
     1    1    2 ar   
     2    1    6 ar   
     3    2    3 ar   
     4    2   19 1    
     5    3    4 ar   
     6    4    5 ar   
     7    4   20 ar   
     8    5    6 ar   
     9    5    7 1    
    10    6   10 1    
    11    7    8 1    
    12    7   11 2    
    13    8    9 1    
    14    9   10 1    
    15    9   12 1    
    16   12   13 ar   
    17   12   17 ar   
    18   13   14 ar   
    19   14   15 ar   
    20   15   16 ar   
    21   15   18 1    
    22   16   17 ar   
@<TRIPOS>SUBSTRUCTURE
     1 NAR1002     1 GROUP   
@<TRIPOS>SET

