#    Name: 6g8h_1_NAR
#    Modification time : Fri May 22 19:29:59 2020

@<TRIPOS>MOLECULE
6g8h_1_NAR
   20    22     1     0     0
SMALL
NO_CHARGES


@<TRIPOS>ATOM
      1 C1         94.8940   96.4770  -18.6130 C.ar      1 NAR1001     0.0000 
      2 C2         93.7410   95.6850  -18.3490 C.ar      1 NAR1001     0.0000 
      3 C3         93.8050   94.4050  -17.7400 C.ar      1 NAR1001     0.0000 
      4 C4         95.0470   93.8520  -17.3650 C.ar      1 NAR1001     0.0000 
      5 C5         96.2600   94.6650  -17.6250 C.ar      1 NAR1001     0.0000 
      6 C6         96.1750   96.0180  -18.2660 C.ar      1 NAR1001     0.0000 
      7 C7         97.5910   94.1080  -17.2370 C.2       1 NAR1001     0.0000 
      8 C8         98.7960   94.9850  -17.5090 C.3       1 NAR1001     0.0000 
      9 C9         98.4240   96.4940  -17.5040 C.3       1 NAR1001     0.0000 
     10 O1         97.3530   96.7540  -18.4570 O.3       1 NAR1001     0.0000 
     11 O2         97.6770   92.9890  -16.7220 O.2       1 NAR1001     0.0000 
     12 C10        99.6590   97.3410  -17.6480 C.ar      1 NAR1001     0.0000 
     13 C11        99.5410   98.7230  -17.8660 C.ar      1 NAR1001     0.0000 
     14 C12       100.6950   99.5170  -17.9680 C.ar      1 NAR1001     0.0000 
     15 C13       101.9720   98.9210  -17.8560 C.ar      1 NAR1001     0.0000 
     16 C14       102.1060   97.5480  -17.6440 C.ar      1 NAR1001     0.0000 
     17 C15       100.9560   96.7710  -17.5310 C.ar      1 NAR1001     0.0000 
     18 O3        103.1080   99.6680  -17.9500 O.3       1 NAR1001     0.0000 
     19 O4         92.5020   96.1830  -18.6980 O.3       1 NAR1001     0.0000 
     20 O5         95.2040   92.6110  -16.7650 O.co2     1 NAR1001     0.0000 
@<TRIPOS>BOND
     1    1    2 ar   
     2    1    6 ar   
     3    2    3 ar   
     4    2   19 1    
     5    3    4 ar   
     6    4    5 ar   
     7    4   20 ar   
     8    5    6 ar   
     9    5    7 1    
    10    6   10 1    
    11    7    8 1    
    12    7   11 2    
    13    8    9 1    
    14    9   10 1    
    15    9   12 1    
    16   12   13 ar   
    17   12   17 ar   
    18   13   14 ar   
    19   14   15 ar   
    20   15   16 ar   
    21   15   18 1    
    22   16   17 ar   
@<TRIPOS>SUBSTRUCTURE
     1 NAR1001     1 GROUP   
@<TRIPOS>SET

