#    Name: 6n53_2_UZR
#    Modification time : Fri May 22 19:27:42 2020

@<TRIPOS>MOLECULE
6n53_2_UZR
   23    24     1     0     0
SMALL
NO_CHARGES


@<TRIPOS>ATOM
      1 P         -18.6090   -2.5000  -38.7800 P.3       1 UZR307      0.0000 
      2 N1        -22.8800   -4.8470  -34.3470 N.am      1 UZR307      0.0000 
      3 C2        -23.9770   -4.1050  -34.1090 C.2       1 UZR307      0.0000 
      4 O2        -23.9150   -2.8960  -34.2200 O.2       1 UZR307      0.0000 
      5 N3        -25.1400   -4.6750  -33.7450 N.am      1 UZR307      0.0000 
      6 C4        -25.2280   -6.0130  -33.6160 C.2       1 UZR307      0.0000 
      7 O4        -26.2810   -6.5300  -33.2870 O.2       1 UZR307      0.0000 
      8 C5        -24.0830   -6.8100  -33.8680 C.2       1 UZR307      0.0000 
      9 C6        -22.9280   -6.2090  -34.2320 C.2       1 UZR307      0.0000 
     10 C1'       -21.6430   -4.1660  -34.7470 C.3       1 UZR307      0.0000 
     11 C2'       -20.3700   -4.6440  -33.9810 C.3       1 UZR307      0.0000 
     12 C3'       -19.2490   -4.9300  -35.0080 C.3       1 UZR307      0.0000 
     13 N3'       -20.0680   -4.3640  -32.5640 N.2       1 UZR307      0.0000 
     14 O3'       -18.0320   -4.2880  -34.6290 O.3       1 UZR307      0.0000 
     15 C4'       -19.8770   -4.2390  -36.2290 C.3       1 UZR307      0.0000 
     16 N4'       -20.8560   -4.0730  -31.8180 N.1       1 UZR307      0.0000 
     17 O4'       -21.2930   -4.4860  -36.1180 O.3       1 UZR307      0.0000 
     18 C5'       -19.2740   -4.7800  -37.5300 C.3       1 UZR307      0.0000 
     19 N5'       -21.6220   -3.7540  -31.0610 N.2       1 UZR307      0.0000 
     20 O5'       -19.4840   -3.8370  -38.5860 O.3       1 UZR307      0.0000 
     21 OP1       -19.4840   -1.3930  -39.2260 O.co2     1 UZR307      0.0000 
     22 OP2       -17.9420   -2.1240  -37.3680 O.co2     1 UZR307      0.0000 
     23 OP3       -17.4560   -2.7330  -39.8780 O.co2     1 UZR307      0.0000 
@<TRIPOS>BOND
     1    1   20 1    
     2    1   21 ar   
     3    1   22 ar   
     4    1   23 ar   
     5    2    3 1    
     6    2    9 1    
     7    2   10 1    
     8    3    4 2    
     9    3    5 1    
    10    5    6 1    
    11    6    7 2    
    12    6    8 1    
    13    8    9 2    
    14   10   11 1    
    15   10   17 1    
    16   11   12 1    
    17   11   13 1    
    18   12   14 1    
    19   12   15 1    
    20   13   16 2    
    21   15   17 1    
    22   15   18 1    
    23   16   19 2    
    24   18   20 1    
@<TRIPOS>SUBSTRUCTURE
     1 UZR307      1 GROUP   
@<TRIPOS>SET

