#    Name: 6n53_1_UZR_CAVITY_N1_4
#    Modification time : Fri May 22 19:27:40 2020

@<TRIPOS>MOLECULE
6n53_1_UZR_CAVITY_N1_4
   77     0     7     0     0
SMALL
NO_CHARGES


@<TRIPOS>ATOM
      1 OG          9.4200  -23.8400  -27.3800 O.3       1 SER1        0.0000 
      2 OG         10.5800  -24.7500  -27.6700 O.3       1 SER1        0.0000 
      3 OG         10.1900  -23.2200  -26.2500 O.3       1 SER1        0.0000 
      4 OG         11.3400  -24.1300  -26.5400 O.3       1 SER1        0.0000 
      5 OG         11.5400  -24.5300  -24.4600 O.3       1 SER1        0.0000 
      6 OG         12.7000  -25.4400  -24.7500 O.3       1 SER1        0.0000 
      7 OG          8.6300  -20.7800  -24.5500 O.3       1 SER1        0.0000 
      8 OG         10.9500  -22.6000  -25.1200 O.3       1 SER1        0.0000 
      9 OG         12.1100  -23.5100  -25.4000 O.3       1 SER1        0.0000 
     10 OG          8.2300  -19.2600  -23.1300 O.3       1 SER1        0.0000 
     11 OG          9.3900  -20.1700  -23.4200 O.3       1 SER1        0.0000 
     12 N          16.3500  -25.6200  -25.1200 N.am      2 ALA2        0.0000 
     13 OD1         9.5900  -21.2900  -26.9100 O.co2     3 ASP3        0.0000 
     14 OD1        10.7500  -22.2000  -27.1900 O.co2     3 ASP3        0.0000 
     15 OD1        11.9100  -23.1100  -27.4800 O.co2     3 ASP3        0.0000 
     16 OD1        13.0700  -24.0200  -27.7600 O.co2     3 ASP3        0.0000 
     17 OD1        15.9600  -24.8100  -29.2700 O.co2     3 ASP3        0.0000 
     18 OD1        15.3700  -22.8900  -29.9300 O.co2     3 ASP3        0.0000 
     19 OD1         9.7900  -21.6900  -24.8300 O.co2     3 ASP3        0.0000 
     20 OD1        11.5200  -21.5800  -26.0600 O.co2     3 ASP3        0.0000 
     21 OD1        12.6800  -22.4900  -26.3400 O.co2     3 ASP3        0.0000 
     22 OD1        13.8400  -23.4000  -26.6300 O.co2     3 ASP3        0.0000 
     23 OD1        16.1500  -25.2200  -27.2000 O.co2     3 ASP3        0.0000 
     24 OD1        14.4000  -22.3800  -27.5700 O.co2     3 ASP3        0.0000 
     25 OD1        15.5600  -23.2900  -27.8500 O.co2     3 ASP3        0.0000 
     26 OD1        16.7200  -24.2000  -28.1400 O.co2     3 ASP3        0.0000 
     27 OD1         7.6600  -20.2800  -22.1900 O.co2     3 ASP3        0.0000 
     28 OD1        10.5500  -21.0700  -23.7000 O.co2     3 ASP3        0.0000 
     29 OD1        12.2800  -20.9600  -24.9300 O.co2     3 ASP3        0.0000 
     30 OD1        13.4400  -21.8700  -25.2100 O.co2     3 ASP3        0.0000 
     31 OD1        14.6000  -22.7800  -25.4900 O.co2     3 ASP3        0.0000 
     32 OD1        15.7600  -23.6900  -25.7800 O.co2     3 ASP3        0.0000 
     33 OD1        16.9200  -24.6000  -26.0600 O.co2     3 ASP3        0.0000 
     34 OD1        18.0800  -25.5000  -26.3500 O.co2     3 ASP3        0.0000 
     35 OD1         9.5900  -20.5700  -21.3400 O.co2     3 ASP3        0.0000 
     36 OD1        10.1600  -19.5500  -22.2800 O.co2     3 ASP3        0.0000 
     37 OD1        11.3200  -20.4500  -22.5700 O.co2     3 ASP3        0.0000 
     38 OD1        11.8800  -19.4300  -23.5100 O.co2     3 ASP3        0.0000 
     39 OD1        16.5200  -23.0700  -24.6500 O.co2     3 ASP3        0.0000 
     40 OD1        17.6800  -23.9800  -24.9300 O.co2     3 ASP3        0.0000 
     41 OD1        18.8400  -24.8900  -25.2100 O.co2     3 ASP3        0.0000 
     42 OD1        10.3500  -19.9500  -20.2100 O.co2     3 ASP3        0.0000 
     43 OD1        12.0800  -19.8300  -21.4300 O.co2     3 ASP3        0.0000 
     44 OD1        11.1100  -19.3300  -19.0800 O.co2     3 ASP3        0.0000 
     45 NZ          8.4600  -23.3300  -25.0300 N.4       4 LYS4        0.0000 
     46 NZ          8.0600  -21.8000  -23.6100 N.4       4 LYS4        0.0000 
     47 NZ          9.2200  -22.7100  -23.8900 N.4       4 LYS4        0.0000 
     48 NZ         10.3800  -23.6200  -24.1800 N.4       4 LYS4        0.0000 
     49 NZ          8.8200  -21.1900  -22.4800 N.4       4 LYS4        0.0000 
     50 NZ         10.7500  -21.4700  -21.6300 N.4       4 LYS4        0.0000 
     51 NZ         13.0400  -20.3400  -23.7900 N.4       4 LYS4        0.0000 
     52 NZ         14.2000  -21.2500  -24.0800 N.4       4 LYS4        0.0000 
     53 NZ         15.3600  -22.1600  -24.3600 N.4       4 LYS4        0.0000 
     54 NZ         10.9400  -21.8800  -19.5500 N.4       4 LYS4        0.0000 
     55 NZ         11.5100  -20.8600  -20.4900 N.4       4 LYS4        0.0000 
     56 CZ         14.2300  -24.9300  -28.0400 C.ar      5 PHE5        0.0000 
     57 CZ         15.5600  -22.5600  -22.2900 C.ar      5 PHE5        0.0000 
     58 CA          8.2600  -22.9300  -27.1000 C.3       6 GLY6        0.0000 
     59 CA         12.3100  -24.6400  -28.8900 C.3       6 GLY6        0.0000 
     60 CA          7.3000  -22.4200  -24.7400 C.3       6 GLY6        0.0000 
     61 CA          7.8700  -21.4000  -25.6800 C.3       6 GLY6        0.0000 
     62 CA          9.0300  -22.3100  -25.9700 C.3       6 GLY6        0.0000 
     63 CA         12.5000  -25.0400  -26.8200 C.3       6 GLY6        0.0000 
     64 CA          6.9000  -20.9000  -23.3200 C.3       6 GLY6        0.0000 
     65 CA          7.4700  -19.8800  -24.2700 C.3       6 GLY6        0.0000 
     66 CA         15.1900  -24.7100  -24.8400 C.3       6 GLY6        0.0000 
     67 CA         15.9500  -24.0900  -23.7000 C.3       6 GLY6        0.0000 
     68 CA         17.1100  -25.0000  -23.9900 C.3       6 GLY6        0.0000 
     69 CA         13.2400  -20.7400  -21.7200 C.3       6 GLY6        0.0000 
     70 CA         16.7200  -23.4700  -22.5700 C.3       6 GLY6        0.0000 
     71 CA         17.8800  -24.3800  -22.8600 C.3       6 GLY6        0.0000 
     72 CA         17.2800  -22.4500  -23.5100 C.3       6 GLY6        0.0000 
     73 DU         14.8000  -23.9100  -28.9900 H         7 CUB7        0.0000 
     74 DU         13.2700  -24.4200  -25.6900 H         7 CUB7        0.0000 
     75 DU         14.4300  -25.3300  -25.9700 H         7 CUB7        0.0000 
     76 DU         14.9900  -24.3100  -26.9100 H         7 CUB7        0.0000 
     77 DU         14.0300  -23.8000  -24.5500 H         7 CUB7        0.0000 
@<TRIPOS>BOND
@<TRIPOS>SUBSTRUCTURE
     1 SER1        1 GROUP   
     2 ALA2       12 GROUP   
     3 ASP3       13 GROUP   
     4 LYS4       45 GROUP   
     5 PHE5       56 GROUP   
     6 GLY6       58 GROUP   
     7 CUB7       73 GROUP   
@<TRIPOS>SET

