#    Name: 6n53_2_UZR_CAVITY_N1_6
#    Modification time : Fri May 22 19:27:44 2020

@<TRIPOS>MOLECULE
6n53_2_UZR_CAVITY_N1_6
  148     0     7     0     0
SMALL
NO_CHARGES


@<TRIPOS>ATOM
      1 OG        -28.9400   -4.4900  -31.9800 O.3       1 SER1        0.0000 
      2 OG        -27.7800   -5.3900  -32.2700 O.3       1 SER1        0.0000 
      3 OG        -26.6200   -6.3000  -32.5500 O.3       1 SER1        0.0000 
      4 OG        -25.4600   -7.2100  -32.8300 O.3       1 SER1        0.0000 
      5 OG        -26.0500   -5.2800  -33.4900 O.3       1 SER1        0.0000 
      6 OG        -23.1700   -6.0800  -35.0000 O.3       1 SER1        0.0000 
      7 OG        -22.6000   -5.0600  -35.9400 O.3       1 SER1        0.0000 
      8 OG        -26.4300   -6.7000  -30.4800 O.3       1 SER1        0.0000 
      9 OG        -27.0200   -4.7700  -31.1300 O.3       1 SER1        0.0000 
     10 OG        -22.4000   -5.4600  -33.8700 O.3       1 SER1        0.0000 
     11 OG        -21.8300   -4.4400  -34.8100 O.3       1 SER1        0.0000 
     12 OG        -20.6800   -5.3500  -35.0900 O.3       1 SER1        0.0000 
     13 OG        -18.3600   -7.1600  -35.6600 O.3       1 SER1        0.0000 
     14 OG        -20.1100   -4.3300  -36.0300 O.3       1 SER1        0.0000 
     15 OG        -18.9500   -5.2400  -36.3200 O.3       1 SER1        0.0000 
     16 OG        -20.1300   -1.3800  -37.6300 O.3       1 SER1        0.0000 
     17 OG        -18.9700   -2.2900  -37.9200 O.3       1 SER1        0.0000 
     18 OG        -18.4000   -1.2700  -38.8600 O.3       1 SER1        0.0000 
     19 N         -29.7000   -5.1000  -33.1100 N.am      2 ALA2        0.0000 
     20 N         -28.5500   -6.0100  -33.4000 N.am      2 ALA2        0.0000 
     21 N         -27.3900   -6.2000  -28.1200 N.am      2 ALA2        0.0000 
     22 N         -26.0600   -4.5600  -27.9300 N.am      2 ALA2        0.0000 
     23 N         -25.3000   -3.9400  -26.7900 N.am      2 ALA2        0.0000 
     24 N         -24.1400   -4.8400  -27.0800 N.am      2 ALA2        0.0000 
     25 N         -23.5700   -3.8200  -28.0200 N.am      2 ALA2        0.0000 
     26 N         -22.4100   -4.7300  -28.3000 N.am      2 ALA2        0.0000 
     27 N         -21.2500   -5.6400  -28.5900 N.am      2 ALA2        0.0000 
     28 N         -21.8400   -3.7100  -29.2400 N.am      2 ALA2        0.0000 
     29 OD1       -21.8500   -2.2200  -41.9700 O.co2     3 ASP3        0.0000 
     30 OD1       -21.0900   -1.6000  -40.8400 O.co2     3 ASP3        0.0000 
     31 OD1       -19.9300   -2.5100  -41.1200 O.co2     3 ASP3        0.0000 
     32 OD1       -20.3200   -0.9800  -39.7100 O.co2     3 ASP3        0.0000 
     33 OD1       -19.1600   -1.8900  -39.9900 O.co2     3 ASP3        0.0000 
     34 OD1       -18.0000   -2.7900  -40.2700 O.co2     3 ASP3        0.0000 
     35 OD1       -25.8800   -2.7300  -33.0100 O.co2     3 ASP3        0.0000 
     36 OD1       -25.3100   -1.7100  -33.9600 O.co2     3 ASP3        0.0000 
     37 OD1       -22.9900   -3.5300  -34.5200 O.co2     3 ASP3        0.0000 
     38 OD1       -22.4300   -2.5100  -35.4600 O.co2     3 ASP3        0.0000 
     39 OD1       -21.2700   -3.4200  -35.7500 O.co2     3 ASP3        0.0000 
     40 OD1       -20.7000   -2.4000  -36.6900 O.co2     3 ASP3        0.0000 
     41 OD1       -19.5400   -3.3100  -36.9700 O.co2     3 ASP3        0.0000 
     42 OD1       -19.5600   -0.3600  -38.5700 O.co2     3 ASP3        0.0000 
     43 OD1       -27.4100   -3.2500  -29.7200 O.co2     3 ASP3        0.0000 
     44 OD1       -26.8500   -2.2300  -30.6600 O.co2     3 ASP3        0.0000 
     45 OD1       -25.6900   -3.1300  -30.9400 O.co2     3 ASP3        0.0000 
     46 OD1       -25.1200   -2.1100  -31.8800 O.co2     3 ASP3        0.0000 
     47 OD1       -22.8000   -3.9300  -32.4500 O.co2     3 ASP3        0.0000 
     48 OD1       -22.2300   -2.9100  -33.3900 O.co2     3 ASP3        0.0000 
     49 OD1       -21.0700   -3.8200  -33.6800 O.co2     3 ASP3        0.0000 
     50 OD1       -19.3400   -3.7100  -34.9000 O.co2     3 ASP3        0.0000 
     51 OD1       -26.6500   -2.6300  -28.5800 O.co2     3 ASP3        0.0000 
     52 OD1       -24.9200   -2.5200  -29.8100 O.co2     3 ASP3        0.0000 
     53 OD1       -23.2000   -2.4000  -31.0300 O.co2     3 ASP3        0.0000 
     54 OD1       -22.0400   -3.3100  -31.3200 O.co2     3 ASP3        0.0000 
     55 OD1       -20.8800   -4.2200  -31.6000 O.co2     3 ASP3        0.0000 
     56 OD1       -25.8900   -2.0100  -27.4500 O.co2     3 ASP3        0.0000 
     57 OD1       -24.1600   -1.9000  -28.6700 O.co2     3 ASP3        0.0000 
     58 NZ        -28.5700   -3.0600  -35.0000 N.4       4 LYS4        0.0000 
     59 NZ        -21.6500   -2.6200  -39.9000 N.4       4 LYS4        0.0000 
     60 NZ        -28.3700   -3.4700  -32.9200 N.4       4 LYS4        0.0000 
     61 NZ        -26.6400   -3.3500  -34.1500 N.4       4 LYS4        0.0000 
     62 NZ        -26.0800   -2.3300  -35.0900 N.4       4 LYS4        0.0000 
     63 NZ        -25.5100   -1.3100  -36.0300 N.4       4 LYS4        0.0000 
     64 NZ        -24.3500   -2.2200  -36.3100 N.4       4 LYS4        0.0000 
     65 NZ        -20.8700   -4.9500  -37.1700 N.4       4 LYS4        0.0000 
     66 NZ        -19.7100   -5.8600  -37.4500 N.4       4 LYS4        0.0000 
     67 NZ        -23.7800   -1.2000  -37.2500 N.4       4 LYS4        0.0000 
     68 NZ        -20.3000   -3.9300  -38.1100 N.4       4 LYS4        0.0000 
     69 NZ        -19.1400   -4.8400  -38.3900 N.4       4 LYS4        0.0000 
     70 NZ        -17.9800   -5.7400  -38.6800 N.4       4 LYS4        0.0000 
     71 NZ        -23.2100   -0.1800  -38.2000 N.4       4 LYS4        0.0000 
     72 NZ        -20.8900   -2.0000  -38.7600 N.4       4 LYS4        0.0000 
     73 NZ        -19.7300   -2.9100  -39.0500 N.4       4 LYS4        0.0000 
     74 NZ        -18.5700   -3.8100  -39.3300 N.4       4 LYS4        0.0000 
     75 NZ        -29.3400   -2.9600  -30.5600 N.4       4 LYS4        0.0000 
     76 NZ        -28.7700   -1.9400  -31.5000 N.4       4 LYS4        0.0000 
     77 NZ        -27.6100   -2.8500  -31.7900 N.4       4 LYS4        0.0000 
     78 NZ        -27.0400   -1.8300  -32.7300 N.4       4 LYS4        0.0000 
     79 NZ        -26.4700   -0.8100  -33.6700 N.4       4 LYS4        0.0000 
     80 NZ        -24.1500   -2.6200  -34.2400 N.4       4 LYS4        0.0000 
     81 NZ        -21.8600   -1.4900  -36.4100 N.4       4 LYS4        0.0000 
     82 NZ        -21.2900   -0.4700  -37.3500 N.4       4 LYS4        0.0000 
     83 NZ        -23.3900   -2.0000  -33.1100 N.4       4 LYS4        0.0000 
     84 NZ        -19.9100   -4.7300  -33.9600 N.4       4 LYS4        0.0000 
     85 NZ        -18.7500   -5.6400  -34.2400 N.4       4 LYS4        0.0000 
     86 NZ        -18.1800   -4.6200  -35.1800 N.4       4 LYS4        0.0000 
     87 NZ        -22.6300   -1.3800  -31.9700 N.4       4 LYS4        0.0000 
     88 NZ        -20.6800   -4.6200  -29.5300 N.4       4 LYS4        0.0000 
     89 NZ        -20.1100   -3.6000  -30.4700 N.4       4 LYS4        0.0000 
     90 CZ        -26.2300   -7.8300  -33.9700 C.ar      5 PHE5        0.0000 
     91 CZ        -26.8200   -5.9000  -34.6200 C.ar      5 PHE5        0.0000 
     92 CZ        -25.6600   -6.8100  -34.9100 C.ar      5 PHE5        0.0000 
     93 CZ        -23.7400   -7.1000  -34.0600 C.ar      5 PHE5        0.0000 
     94 CZ        -25.4900   -4.2600  -34.4300 C.ar      5 PHE5        0.0000 
     95 CZ        -24.3300   -5.1700  -34.7200 C.ar      5 PHE5        0.0000 
     96 CZ        -24.9200   -3.2400  -35.3700 C.ar      5 PHE5        0.0000 
     97 CZ        -29.3200   -5.9100  -28.9700 C.ar      5 PHE5        0.0000 
     98 CZ        -28.7500   -4.8900  -29.9100 C.ar      5 PHE5        0.0000 
     99 CZ        -27.5900   -5.7900  -30.1900 C.ar      5 PHE5        0.0000 
    100 CZ        -25.8600   -5.6800  -31.4200 C.ar      5 PHE5        0.0000 
    101 CZ        -24.7000   -6.5900  -31.7000 C.ar      5 PHE5        0.0000 
    102 CZ        -24.1300   -5.5700  -32.6400 C.ar      5 PHE5        0.0000 
    103 CZ        -22.9700   -6.4800  -32.9300 C.ar      5 PHE5        0.0000 
    104 CZ        -17.2000   -8.0700  -35.9500 C.ar      5 PHE5        0.0000 
    105 CZ        -26.8200   -5.1800  -29.0600 C.ar      5 PHE5        0.0000 
    106 CZ        -25.1000   -5.0600  -30.2800 C.ar      5 PHE5        0.0000 
    107 CZ        -23.3700   -4.9500  -31.5100 C.ar      5 PHE5        0.0000 
    108 CZ        -24.9000   -5.4600  -28.2100 C.ar      5 PHE5        0.0000 
    109 CZ        -24.3300   -4.4400  -29.1500 C.ar      5 PHE5        0.0000 
    110 CZ        -23.1700   -5.3500  -29.4300 C.ar      5 PHE5        0.0000 
    111 CZ        -22.6100   -4.3300  -30.3800 C.ar      5 PHE5        0.0000 
    112 CZ        -21.4500   -5.2400  -30.6600 C.ar      5 PHE5        0.0000 
    113 CA        -29.3300   -3.6800  -36.1300 C.3       6 GLY6        0.0000 
    114 CA        -29.1400   -4.0800  -34.0600 C.3       6 GLY6        0.0000 
    115 CA        -27.9800   -4.9900  -34.3400 C.3       6 GLY6        0.0000 
    116 CA        -22.2500   -0.6900  -40.5500 C.3       6 GLY6        0.0000 
    117 CA        -22.0500   -1.0900  -38.4800 C.3       6 GLY6        0.0000 
    118 CA        -17.7900   -6.1400  -36.6000 C.3       6 GLY6        0.0000 
    119 CA        -16.6300   -7.0500  -36.8900 C.3       6 GLY6        0.0000 
    120 CA        -18.3800   -4.2200  -37.2600 C.3       6 GLY6        0.0000 
    121 CA        -17.8100   -3.2000  -38.2000 C.3       6 GLY6        0.0000 
    122 CA        -20.7200    0.5500  -38.2900 C.3       6 GLY6        0.0000 
    123 CA        -28.5700   -2.3400  -29.4300 C.3       6 GLY6        0.0000 
    124 CA        -22.2100   -5.8600  -31.7900 C.3       6 GLY6        0.0000 
    125 CA        -21.6400   -4.8400  -32.7300 C.3       6 GLY6        0.0000 
    126 CA        -20.4800   -5.7500  -33.0200 C.3       6 GLY6        0.0000 
    127 CA        -17.6200   -3.6000  -36.1300 C.3       6 GLY6        0.0000 
    128 CA        -24.7300   -2.9200  -27.7300 C.3       6 GLY6        0.0000 
    129 CA        -23.0000   -2.8000  -28.9600 C.3       6 GLY6        0.0000 
    130 CA        -22.4300   -1.7800  -29.9000 C.3       6 GLY6        0.0000 
    131 CA        -21.2700   -2.6900  -30.1800 C.3       6 GLY6        0.0000 
    132 DU        -24.5400   -1.8200  -38.3900 H         7 CUB7        0.0000 
    133 DU        -22.8100   -1.7100  -39.6100 H         7 CUB7        0.0000 
    134 DU        -27.2100   -4.3700  -33.2100 H         7 CUB7        0.0000 
    135 DU        -24.8900   -6.1900  -33.7700 H         7 CUB7        0.0000 
    136 DU        -23.7600   -4.1500  -35.6600 H         7 CUB7        0.0000 
    137 DU        -29.9100   -3.9800  -29.6200 H         7 CUB7        0.0000 
    138 DU        -28.1800   -3.8700  -30.8500 H         7 CUB7        0.0000 
    139 DU        -26.4500   -3.7500  -32.0700 H         7 CUB7        0.0000 
    140 DU        -25.2900   -4.6600  -32.3600 H         7 CUB7        0.0000 
    141 DU        -24.7200   -3.6400  -33.3000 H         7 CUB7        0.0000 
    142 DU        -23.5600   -4.5500  -33.5800 H         7 CUB7        0.0000 
    143 DU        -27.9800   -4.2700  -28.7700 H         7 CUB7        0.0000 
    144 DU        -26.2600   -4.1500  -30.0000 H         7 CUB7        0.0000 
    145 DU        -24.5300   -4.0400  -31.2200 H         7 CUB7        0.0000 
    146 DU        -23.9600   -3.0200  -32.1700 H         7 CUB7        0.0000 
    147 DU        -25.4900   -3.5400  -28.8700 H         7 CUB7        0.0000 
    148 DU        -23.7600   -3.4200  -30.0900 H         7 CUB7        0.0000 
@<TRIPOS>BOND
@<TRIPOS>SUBSTRUCTURE
     1 SER1        1 GROUP   
     2 ALA2       19 GROUP   
     3 ASP3       29 GROUP   
     4 LYS4       58 GROUP   
     5 PHE5       90 GROUP   
     6 GLY6      113 GROUP   
     7 CUB7      132 GROUP   
@<TRIPOS>SET

