#    Name: 6n53_1_UZR
#    Modification time : Fri May 22 19:27:39 2020

@<TRIPOS>MOLECULE
6n53_1_UZR
   23    24     1     0     0
SMALL
NO_CHARGES


@<TRIPOS>ATOM
      1 P           8.4030  -20.1260  -23.1680 P.3       1 UZR304      0.0000 
      2 N1         13.2270  -23.9230  -25.9660 N.am      1 UZR304      0.0000 
      3 C2         13.2790  -25.2610  -25.7930 C.2       1 UZR304      0.0000 
      4 O2         12.2560  -25.9150  -25.7140 O.2       1 UZR304      0.0000 
      5 N3         14.4760  -25.8850  -25.7190 N.am      1 UZR304      0.0000 
      6 C4         15.6300  -25.1860  -25.8050 C.2       1 UZR304      0.0000 
      7 O4         16.7130  -25.7410  -25.7380 O.2       1 UZR304      0.0000 
      8 C5         15.5810  -23.7850  -25.9750 C.2       1 UZR304      0.0000 
      9 C6         14.3780  -23.1910  -26.0460 C.2       1 UZR304      0.0000 
     10 C1'        12.0010  -23.1100  -26.0460 C.3       1 UZR304      0.0000 
     11 C2'        11.3000  -22.9150  -27.4230 C.3       1 UZR304      0.0000 
     12 C3'         9.9870  -22.1710  -27.0710 C.3       1 UZR304      0.0000 
     13 N3'        11.9230  -22.8920  -28.7620 N.2       1 UZR304      0.0000 
     14 O3'        10.0680  -20.8070  -27.4810 O.3       1 UZR304      0.0000 
     15 C4'        10.0690  -22.2750  -25.5290 C.3       1 UZR304      0.0000 
     16 N4'        12.9170  -23.3600  -29.0020 N.1       1 UZR304      0.0000 
     17 O4'        10.8420  -23.4680  -25.2530 O.3       1 UZR304      0.0000 
     18 C5'         8.6950  -22.2110  -24.8510 C.3       1 UZR304      0.0000 
     19 N5'        13.9200  -23.7930  -29.2670 N.2       1 UZR304      0.0000 
     20 O5'         8.4080  -20.8250  -24.6220 O.3       1 UZR304      0.0000 
     21 OP1         9.2940  -20.8700  -22.2510 O.co2     1 UZR304      0.0000 
     22 OP2         8.9320  -18.6100  -23.2950 O.co2     1 UZR304      0.0000 
     23 OP3         6.9060  -20.1080  -22.5790 O.co2     1 UZR304      0.0000 
@<TRIPOS>BOND
     1    1   20 1    
     2    1   21 ar   
     3    1   22 ar   
     4    1   23 ar   
     5    2    3 1    
     6    2    9 1    
     7    2   10 1    
     8    3    4 2    
     9    3    5 1    
    10    5    6 1    
    11    6    7 2    
    12    6    8 1    
    13    8    9 2    
    14   10   11 1    
    15   10   17 1    
    16   11   12 1    
    17   11   13 1    
    18   12   14 1    
    19   12   15 1    
    20   13   16 2    
    21   15   17 1    
    22   15   18 1    
    23   16   19 2    
    24   18   20 1    
@<TRIPOS>SUBSTRUCTURE
     1 UZR304      1 GROUP   
@<TRIPOS>SET

