#    Name: 6gyf_2_NMN_CAVITY_N1_4
#    Modification time : Fri May 22 19:31:26 2020

@<TRIPOS>MOLECULE
6gyf_2_NMN_CAVITY_N1_4
   68     0     6     0     0
SMALL
NO_CHARGES


@<TRIPOS>ATOM
      1 OG         20.7700   49.5200    4.1300 O.3       1 SER1        0.0000 
      2 OG         19.7800   51.9200    3.9800 O.3       1 SER1        0.0000 
      3 OG         20.4900   53.1800    4.4000 O.3       1 SER1        0.0000 
      4 OG         21.7400   52.7100    3.7100 O.3       1 SER1        0.0000 
      5 OG         20.0400   53.8500    3.1400 O.3       1 SER1        0.0000 
      6 OG         21.2900   53.3800    2.4500 O.3       1 SER1        0.0000 
      7 OG         22.0000   54.6400    2.8700 O.3       1 SER1        0.0000 
      8 OG         23.0600   56.2700    6.9300 O.3       1 SER1        0.0000 
      9 OG         22.6100   56.9400    5.6600 O.3       1 SER1        0.0000 
     10 O          20.0600   48.2700    3.7100 O.2       2 ALA2        0.0000 
     11 N          21.6700   48.1700    6.6600 N.am      2 ALA2        0.0000 
     12 O          22.4600   48.3800    4.7000 O.2       2 ALA2        0.0000 
     13 N          22.0100   49.0600    3.4400 N.am      2 ALA2        0.0000 
     14 N          23.1700   49.6300    5.1200 N.am      2 ALA2        0.0000 
     15 N          21.4800   50.7800    4.5500 N.am      2 ALA2        0.0000 
     16 N          23.8800   50.8900    5.5400 N.am      2 ALA2        0.0000 
     17 N          19.6900   52.9700    6.3600 N.am      2 ALA2        0.0000 
     18 N          22.1800   52.0300    4.9700 N.am      2 ALA2        0.0000 
     19 N          19.2500   53.6500    5.1000 N.am      2 ALA2        0.0000 
     20 O          18.8000   54.3200    3.8300 O.2       2 ALA2        0.0000 
     21 N          25.8300   51.6700    5.2700 N.am      2 ALA2        0.0000 
     22 N          20.4000   54.2300    6.7800 N.am      2 ALA2        0.0000 
     23 N          24.1400   52.8200    4.7000 N.am      2 ALA2        0.0000 
     24 N          25.3800   52.3500    4.0100 N.am      2 ALA2        0.0000 
     25 OD1        21.3900   51.8300    6.9300 O.co2     3 ASP3        0.0000 
     26 OD1        22.6300   51.3600    6.2300 O.co2     3 ASP3        0.0000 
     27 OD1        22.0900   53.0800    7.3500 O.co2     3 ASP3        0.0000 
     28 OD1        23.3400   52.6100    6.6500 O.co2     3 ASP3        0.0000 
     29 OD1        24.5800   52.1400    5.9600 O.co2     3 ASP3        0.0000 
     30 OD1        19.9500   54.9000    5.5200 O.co2     3 ASP3        0.0000 
     31 OD1        19.5100   55.5800    4.2500 O.co2     3 ASP3        0.0000 
     32 OD1        20.7500   55.1100    3.5600 O.co2     3 ASP3        0.0000 
     33 OD1        26.9800   52.2500    6.9500 O.co2     3 ASP3        0.0000 
     34 OD1        22.8000   54.3400    7.7700 O.co2     3 ASP3        0.0000 
     35 OD1        24.0500   53.8700    7.0700 O.co2     3 ASP3        0.0000 
     36 OD1        25.2900   53.4000    6.3800 O.co2     3 ASP3        0.0000 
     37 OD1        26.5400   52.9300    5.6900 O.co2     3 ASP3        0.0000 
     38 OD1        20.6600   56.1600    5.9400 O.co2     3 ASP3        0.0000 
     39 OD1        21.9100   55.6900    5.2400 O.co2     3 ASP3        0.0000 
     40 OD1        21.4600   56.3600    3.9800 O.co2     3 ASP3        0.0000 
     41 OD1        26.4500   53.9800    8.0600 O.co2     3 ASP3        0.0000 
     42 OD1        24.7500   55.1200    7.4900 O.co2     3 ASP3        0.0000 
     43 OD1        26.0000   54.6500    6.8000 O.co2     3 ASP3        0.0000 
     44 OD1        24.3100   55.8000    6.2300 O.co2     3 ASP3        0.0000 
     45 OD1        23.8600   56.4700    4.9700 O.co2     3 ASP3        0.0000 
     46 OD1        26.7100   55.9100    7.2200 O.co2     3 ASP3        0.0000 
     47 CZ         21.3100   47.8000    3.0200 C.ar      4 PHE5        0.0000 
     48 CZ         27.1500   55.2300    8.4800 C.ar      4 PHE5        0.0000 
     49 CA         20.5100   47.6000    4.9700 C.3       5 GLY6        0.0000 
     50 CA         21.7500   47.1300    4.2800 C.3       5 GLY6        0.0000 
     51 CA         21.2200   48.8500    5.3900 C.3       5 GLY6        0.0000 
     52 CA         19.5200   49.9900    4.8300 C.3       5 GLY6        0.0000 
     53 CA         22.3700   49.4300    7.0800 C.3       5 GLY6        0.0000 
     54 CA         20.6800   50.5700    6.5100 C.3       5 GLY6        0.0000 
     55 CA         18.9900   51.7200    5.9400 C.3       5 GLY6        0.0000 
     56 CA         20.2300   51.2500    5.2500 C.3       5 GLY6        0.0000 
     57 CA         21.1100   55.4800    7.2000 C.3       5 GLY6        0.0000 
     58 CA         23.5100   55.5900    8.1900 C.3       5 GLY6        0.0000 
     59 DU         21.9200   50.1000    5.8100 H         6 CUB7        0.0000 
     60 DU         20.9400   52.5000    5.6700 H         6 CUB7        0.0000 
     61 DU         21.6500   53.7600    6.0900 H         6 CUB7        0.0000 
     62 DU         22.8900   53.2900    5.3900 H         6 CUB7        0.0000 
     63 DU         21.2000   54.4300    4.8200 H         6 CUB7        0.0000 
     64 DU         22.4400   53.9600    4.1300 H         6 CUB7        0.0000 
     65 DU         22.3500   55.0100    6.5100 H         6 CUB7        0.0000 
     66 DU         23.6000   54.5400    5.8100 H         6 CUB7        0.0000 
     67 DU         24.8400   54.0700    5.1200 H         6 CUB7        0.0000 
     68 DU         23.1500   55.2200    4.5500 H         6 CUB7        0.0000 
@<TRIPOS>BOND
@<TRIPOS>SUBSTRUCTURE
     1 SER1        1 GROUP   
     2 ALA2       10 GROUP   
     3 ASP3       25 GROUP   
     4 PHE5       47 GROUP   
     5 GLY6       49 GROUP   
     6 CUB7       59 GROUP   
@<TRIPOS>SET

