#    Name: 6gyf_1_NMN
#    Modification time : Fri May 22 19:31:19 2020

@<TRIPOS>MOLECULE
6gyf_1_NMN
   22    23     1     0     0
SMALL
NO_CHARGES


@<TRIPOS>ATOM
      1 O3P       -11.0630   48.3290   23.8180 O.co2     1 NMN401      0.0000 
      2 P          -9.6110   48.7420   23.7760 P.3       1 NMN401      0.0000 
      3 O1P        -8.6350   47.6070   23.9770 O.co2     1 NMN401      0.0000 
      4 O2P        -9.2930   49.9860   24.5690 O.co2     1 NMN401      0.0000 
      5 O5R        -9.3790   49.1880   22.2460 O.3       1 NMN401      0.0000 
      6 C5R        -9.5220   50.5530   21.8620 C.3       1 NMN401      0.0000 
      7 C4R        -9.5510   50.6540   20.3420 C.3       1 NMN401      0.0000 
      8 O4R       -10.1890   51.8740   19.9530 O.3       1 NMN401      0.0000 
      9 C3R        -8.1440   50.6580   19.7640 C.3       1 NMN401      0.0000 
     10 O3R        -7.9970   49.5620   18.8510 O.3       1 NMN401      0.0000 
     11 C2R        -7.9680   52.0120   19.0900 C.3       1 NMN401      0.0000 
     12 O2R        -7.6250   51.9030   17.7020 O.3       1 NMN401      0.0000 
     13 C1R        -9.2990   52.7340   19.2370 C.3       1 NMN401      0.0000 
     14 N1         -9.1060   53.9770   19.9870 N.pl3     1 NMN401      0.0000 
     15 C2         -9.4340   55.1470   19.4240 C.ar      1 NMN401      0.0000 
     16 C3         -9.2610   56.3400   20.1160 C.ar      1 NMN401      0.0000 
     17 C7         -9.6310   57.6440   19.4750 C.2       1 NMN401      0.0000 
     18 O7         -9.5720   58.6710   20.1310 O.2       1 NMN401      0.0000 
     19 N7        -10.0160   57.6470   18.2000 N.am      1 NMN401      0.0000 
     20 C4         -8.7430   56.3160   21.4030 C.ar      1 NMN401      0.0000 
     21 C5         -8.4110   55.0900   21.9640 C.ar      1 NMN401      0.0000 
     22 C6         -8.6050   53.9270   21.2280 C.ar      1 NMN401      0.0000 
@<TRIPOS>BOND
     1    1    2 ar   
     2    2    3 ar   
     3    2    4 ar   
     4    2    5 1    
     5    5    6 1    
     6    6    7 1    
     7    7    8 1    
     8    7    9 1    
     9    8   13 1    
    10    9   10 1    
    11    9   11 1    
    12   11   12 1    
    13   11   13 1    
    14   13   14 1    
    15   14   15 ar   
    16   14   22 ar   
    17   15   16 ar   
    18   16   17 1    
    19   16   20 ar   
    20   17   18 2    
    21   17   19 am   
    22   20   21 ar   
    23   21   22 ar   
@<TRIPOS>SUBSTRUCTURE
     1 NMN401      1 GROUP   
@<TRIPOS>SET

