#    Name: 6gyf_2_NMN
#    Modification time : Fri May 22 19:31:25 2020

@<TRIPOS>MOLECULE
6gyf_2_NMN
   22    23     1     0     0
SMALL
NO_CHARGES


@<TRIPOS>ATOM
      1 O3P        25.7500   55.8430    5.7870 O.co2     1 NMN401      0.0000 
      2 P          24.5720   55.7700    6.7300 P.3       1 NMN401      0.0000 
      3 O1P        24.6010   54.5930    7.6740 O.co2     1 NMN401      0.0000 
      4 O2P        24.2150   57.0840    7.3830 O.co2     1 NMN401      0.0000 
      5 O5R        23.3210   55.4630    5.7640 O.3       1 NMN401      0.0000 
      6 C5R        23.2420   54.2290    5.0550 C.3       1 NMN401      0.0000 
      7 C4R        21.9080   54.1410    4.3240 C.3       1 NMN401      0.0000 
      8 O4R        21.8300   52.9020    3.6150 O.3       1 NMN401      0.0000 
      9 C3R        20.7400   54.1960    5.2980 C.3       1 NMN401      0.0000 
     10 O3R        19.9010   55.3140    4.9840 O.3       1 NMN401      0.0000 
     11 C2R        20.0180   52.8610    5.1680 C.3       1 NMN401      0.0000 
     12 O2R        18.6470   53.0070    4.7730 O.3       1 NMN401      0.0000 
     13 C1R        20.7750   52.0720    4.1100 C.3       1 NMN401      0.0000 
     14 N1         21.3430   50.8630    4.7090 N.pl3     1 NMN401      0.0000 
     15 C2         21.0640   49.6670    4.1750 C.ar      1 NMN401      0.0000 
     16 C3         21.5900   48.5040    4.7250 C.ar      1 NMN401      0.0000 
     17 C7         21.2710   47.1700    4.1190 C.2       1 NMN401      0.0000 
     18 O7         21.8680   46.1800    4.5070 O.2       1 NMN401      0.0000 
     19 N7         20.3400   47.1020    3.1680 N.am      1 NMN401      0.0000 
     20 C4         22.4130   48.5860    5.8390 C.ar      1 NMN401      0.0000 
     21 C5         22.6870   49.8370    6.3740 C.ar      1 NMN401      0.0000 
     22 C6         22.1340   50.9680    5.7840 C.ar      1 NMN401      0.0000 
@<TRIPOS>BOND
     1    1    2 ar   
     2    2    3 ar   
     3    2    4 ar   
     4    2    5 1    
     5    5    6 1    
     6    6    7 1    
     7    7    8 1    
     8    7    9 1    
     9    8   13 1    
    10    9   10 1    
    11    9   11 1    
    12   11   12 1    
    13   11   13 1    
    14   13   14 1    
    15   14   15 ar   
    16   14   22 ar   
    17   15   16 ar   
    18   16   17 1    
    19   16   20 ar   
    20   17   18 2    
    21   17   19 am   
    22   20   21 ar   
    23   21   22 ar   
@<TRIPOS>SUBSTRUCTURE
     1 NMN401      1 GROUP   
@<TRIPOS>SET

