#    Name: 6gyf_1_NMN_CAVITY_N1_6
#    Modification time : Fri May 22 19:31:21 2020

@<TRIPOS>MOLECULE
6gyf_1_NMN_CAVITY_N1_6
   84     0     6     0     0
SMALL
NO_CHARGES


@<TRIPOS>ATOM
      1 OG        -13.1600   50.6700   20.3500 O.3       1 SER1        0.0000 
      2 OG        -10.6700   49.7300   18.9600 O.3       1 SER1        0.0000 
      3 OG        -11.1200   50.4100   17.7000 O.3       1 SER1        0.0000 
      4 OG         -9.8700   49.9400   17.0000 O.3       1 SER1        0.0000 
      5 OG        -10.3200   50.6100   15.7400 O.3       1 SER1        0.0000 
      6 OG         -9.4100   48.7500   25.1200 O.3       1 SER1        0.0000 
      7 OG         -8.6200   48.9600   23.1700 O.3       1 SER1        0.0000 
      8 OG         -7.3700   48.4900   22.4700 O.3       1 SER1        0.0000 
      9 OG        -11.2100   51.4600   20.0700 O.3       1 SER1        0.0000 
     10 OG         -9.9600   50.9900   19.3800 O.3       1 SER1        0.0000 
     11 OG        -10.4100   51.6600   18.1200 O.3       1 SER1        0.0000 
     12 OG         -9.1600   51.1900   17.4200 O.3       1 SER1        0.0000 
     13 OG         -9.2500   52.2400   19.8000 O.3       1 SER1        0.0000 
     14 OG         -8.0100   51.7700   19.1100 O.3       1 SER1        0.0000 
     15 OG         -9.7000   52.9200   18.5400 O.3       1 SER1        0.0000 
     16 OG         -8.4600   52.4500   17.8400 O.3       1 SER1        0.0000 
     17 OG        -10.2400   54.6400   19.6500 O.3       1 SER1        0.0000 
     18 OG         -8.9900   54.1700   18.9600 O.3       1 SER1        0.0000 
     19 OG         -7.7500   53.7000   18.2600 O.3       1 SER1        0.0000 
     20 N         -12.0000   51.2500   22.0300 N.am      2 ALA2        0.0000 
     21 O          -7.4700   50.0500   17.9900 O.2       2 ALA2        0.0000 
     22 N         -10.8500   51.8300   23.7100 N.am      2 ALA2        0.0000 
     23 N          -7.1100   50.4200   21.6300 N.am      2 ALA2        0.0000 
     24 N         -10.0500   52.0300   21.7600 N.am      2 ALA2        0.0000 
     25 N         -10.5000   52.7100   20.4900 N.am      2 ALA2        0.0000 
     26 N          -6.7600   51.3000   18.4100 N.am      2 ALA2        0.0000 
     27 N         -10.5900   53.7600   22.8700 N.am      2 ALA2        0.0000 
     28 N          -9.7900   53.9600   20.9100 N.am      2 ALA2        0.0000 
     29 O          -9.0800   55.2200   21.3300 O.2       2 ALA2        0.0000 
     30 N          -9.5300   55.8900   20.0700 N.am      2 ALA2        0.0000 
     31 O          -8.7300   56.1000   18.1200 O.2       2 ALA2        0.0000 
     32 N          -8.3800   56.4700   21.7500 N.am      2 ALA2        0.0000 
     33 N          -8.8200   57.1500   20.4900 N.am      2 ALA2        0.0000 
     34 N          -9.3600   58.8700   21.6000 N.am      2 ALA2        0.0000 
     35 OD1       -10.5700   48.1800   23.4400 O.co2     3 ASP3        0.0000 
     36 OD1        -9.3300   47.7100   22.7500 O.co2     3 ASP3        0.0000 
     37 OD1        -9.7700   48.3800   21.4800 O.co2     3 ASP3        0.0000 
     38 OD1       -10.2200   49.0600   20.2200 O.co2     3 ASP3        0.0000 
     39 OD1        -9.4200   49.2600   18.2700 O.co2     3 ASP3        0.0000 
     40 OD1        -9.8600   49.4300   23.8600 O.co2     3 ASP3        0.0000 
     41 OD1        -9.0700   49.6400   21.9000 O.co2     3 ASP3        0.0000 
     42 OD1        -7.8200   49.1700   21.2100 O.co2     3 ASP3        0.0000 
     43 OD1        -8.2700   49.8400   19.9500 O.co2     3 ASP3        0.0000 
     44 OD1        -8.7200   50.5200   18.6900 O.co2     3 ASP3        0.0000 
     45 OD1       -10.4000   51.1500   24.9700 O.co2     3 ASP3        0.0000 
     46 OD1        -9.1600   50.6800   24.2800 O.co2     3 ASP3        0.0000 
     47 OD1        -7.9100   50.2100   23.5900 O.co2     3 ASP3        0.0000 
     48 OD1        -9.6000   51.3600   23.0200 O.co2     3 ASP3        0.0000 
     49 OD1        -8.3600   50.8900   22.3200 O.co2     3 ASP3        0.0000 
     50 OD1        -9.6900   52.4100   25.3900 O.co2     3 ASP3        0.0000 
     51 OD1        -8.1000   52.8200   21.4800 O.co2     3 ASP3        0.0000 
     52 OD1        -7.3900   54.0700   21.9000 O.co2     3 ASP3        0.0000 
     53 CZ         -9.9800   56.5700   18.8100 C.ar      4 PHE5        0.0000 
     54 CZ        -10.4300   57.2400   17.5500 C.ar      4 PHE5        0.0000 
     55 CA         -8.1800   48.7900   17.5700 C.3       5 GLY6        0.0000 
     56 CA         -7.5600   51.1000   20.3700 C.3       5 GLY6        0.0000 
     57 CA        -10.1400   53.0800   24.1300 C.3       5 GLY6        0.0000 
     58 CA         -9.3400   53.2900   22.1800 C.3       5 GLY6        0.0000 
     59 CA         -6.8500   52.3500   20.7900 C.3       5 GLY6        0.0000 
     60 CA         -7.3000   53.0200   19.5300 C.3       5 GLY6        0.0000 
     61 CA         -9.4400   54.8500   17.7000 C.3       5 GLY6        0.0000 
     62 CA         -8.6400   54.5400   22.6000 C.3       5 GLY6        0.0000 
     63 CA         -7.8400   54.7500   20.6400 C.3       5 GLY6        0.0000 
     64 CA        -10.7800   56.3600   20.7600 C.3       5 GLY6        0.0000 
     65 CA         -8.2900   55.4200   19.3800 C.3       5 GLY6        0.0000 
     66 CA        -11.2200   57.0400   19.5000 C.3       5 GLY6        0.0000 
     67 CA         -7.1300   56.0000   21.0600 C.3       5 GLY6        0.0000 
     68 CA        -10.0700   57.6200   21.1800 C.3       5 GLY6        0.0000 
     69 CA         -7.5800   56.6800   19.8000 C.3       5 GLY6        0.0000 
     70 CA        -10.5200   58.2900   19.9200 C.3       5 GLY6        0.0000 
     71 CA         -9.2700   57.8200   19.2300 C.3       5 GLY6        0.0000 
     72 CA         -8.0300   57.3500   18.5400 C.3       5 GLY6        0.0000 
     73 CA        -10.9600   58.9700   18.6600 C.3       5 GLY6        0.0000 
     74 CA         -9.7200   58.5000   17.9700 C.3       5 GLY6        0.0000 
     75 CA         -8.1200   58.4000   20.9100 C.3       5 GLY6        0.0000 
     76 CA         -9.8100   59.5500   20.3400 C.3       5 GLY6        0.0000 
     77 DU        -11.0200   48.8500   22.1800 H         6 CUB7        0.0000 
     78 DU        -11.4700   49.5300   20.9200 H         6 CUB7        0.0000 
     79 DU        -11.5500   50.5800   23.2900 H         6 CUB7        0.0000 
     80 DU        -10.3100   50.1100   22.6000 H         6 CUB7        0.0000 
     81 DU        -10.7600   50.7800   21.3400 H         6 CUB7        0.0000 
     82 DU         -9.5100   50.3100   20.6400 H         6 CUB7        0.0000 
     83 DU         -8.8100   51.5700   21.0600 H         6 CUB7        0.0000 
     84 DU         -8.5500   53.4900   20.2200 H         6 CUB7        0.0000 
@<TRIPOS>BOND
@<TRIPOS>SUBSTRUCTURE
     1 SER1        1 GROUP   
     2 ALA2       20 GROUP   
     3 ASP3       35 GROUP   
     4 PHE5       53 GROUP   
     5 GLY6       55 GROUP   
     6 CUB7       77 GROUP   
@<TRIPOS>SET

