#    Name: 5obh_1_J94
#    Modification time : Fri May 22 19:16:03 2020

@<TRIPOS>MOLECULE
5obh_1_J94
   28    33     1     0     0
SMALL
NO_CHARGES


@<TRIPOS>ATOM
      1 C01        23.5440  -13.0990  -33.2470 C.3       1 J94601      0.0000 
      2 N02        24.6580  -13.7420  -34.0380 N.4       1 J94601      0.0000 
      3 C03        25.3590  -14.7150  -33.1210 C.3       1 J94601      0.0000 
      4 C04        25.6610  -12.6540  -34.4230 C.3       1 J94601      0.0000 
      5 C05        25.2200  -11.6070  -35.4250 C.3       1 J94601      0.0000 
      6 C06        24.2140  -12.0920  -36.4390 C.ar      1 J94601      0.0000 
      7 C07        23.5610  -13.3310  -36.2930 C.ar      1 J94601      0.0000 
      8 C08        22.5020  -13.6610  -37.1460 C.ar      1 J94601      0.0000 
      9 C09        22.1940  -12.8050  -38.1860 C.ar      1 J94601      0.0000 
     10 O10        21.2730  -12.9800  -39.1960 O.3       1 J94601      0.0000 
     11 C11        21.4350  -11.8550  -40.0630 C.3       1 J94601      0.0000 
     12 O12        22.4260  -10.9870  -39.4990 O.3       1 J94601      0.0000 
     13 C13        22.8790  -11.6300  -38.3690 C.ar      1 J94601      0.0000 
     14 C14        23.8710  -11.2390  -37.4930 C.ar      1 J94601      0.0000 
     15 C15        24.0550  -14.3970  -35.2990 C.3       1 J94601      0.0000 
     16 C16        24.9650  -15.4430  -35.9830 C.3       1 J94601      0.0000 
     17 O17        26.3120  -14.8810  -36.0790 O.3       1 J94601      0.0000 
     18 C18        26.6870  -14.7260  -37.3750 C.2       1 J94601      0.0000 
     19 O19        27.7270  -14.1850  -37.6650 O.2       1 J94601      0.0000 
     20 C20        25.6260  -15.2930  -38.2290 C.ar      1 J94601      0.0000 
     21 C21        25.5070  -15.4470  -39.6180 C.ar      1 J94601      0.0000 
     22 O22        26.3360  -15.0010  -40.6260 O.3       1 J94601      0.0000 
     23 C23        25.7280  -15.4540  -41.8410 C.3       1 J94601      0.0000 
     24 O24        24.5340  -16.1730  -41.5170 O.3       1 J94601      0.0000 
     25 C25        24.4360  -16.1380  -40.1440 C.ar      1 J94601      0.0000 
     26 C26        23.4530  -16.6920  -39.3290 C.ar      1 J94601      0.0000 
     27 C27        23.5700  -16.5290  -37.9570 C.ar      1 J94601      0.0000 
     28 C28        24.6390  -15.8220  -37.4040 C.ar      1 J94601      0.0000 
@<TRIPOS>BOND
     1    1    2 1    
     2    2    3 1    
     3    2    4 1    
     4    2   15 1    
     5    4    5 1    
     6    5    6 1    
     7    6    7 ar   
     8    6   14 ar   
     9    7    8 ar   
    10    7   15 1    
    11    8    9 ar   
    12    9   10 1    
    13    9   13 ar   
    14   10   11 1    
    15   11   12 1    
    16   12   13 1    
    17   13   14 ar   
    18   15   16 1    
    19   16   17 1    
    20   16   28 1    
    21   17   18 1    
    22   18   19 2    
    23   18   20 1    
    24   20   21 ar   
    25   20   28 ar   
    26   21   22 1    
    27   21   25 ar   
    28   22   23 1    
    29   23   24 1    
    30   24   25 1    
    31   25   26 ar   
    32   26   27 ar   
    33   27   28 ar   
@<TRIPOS>SUBSTRUCTURE
     1 J94601      1 GROUP   
@<TRIPOS>SET

