#    Name: 5obh_3_J94_CAVITY_N1_8
#    Modification time : Fri May 22 19:16:17 2020

@<TRIPOS>MOLECULE
5obh_3_J94_CAVITY_N1_8
   73     0     7     0     0
SMALL
NO_CHARGES


@<TRIPOS>ATOM
      1 OG         40.7300   27.0200  -10.3500 O.3       1 SER1        0.0000 
      2 OG         39.6200   28.0300  -10.4400 O.3       1 SER1        0.0000 
      3 OG         44.3700   26.5300  -10.4800 O.3       1 SER1        0.0000 
      4 OG         42.1600   28.5500  -10.6700 O.3       1 SER1        0.0000 
      5 OG         41.0500   29.5600  -10.7600 O.3       1 SER1        0.0000 
      6 OG         47.1100   29.2700  -13.2200 O.3       1 SER1        0.0000 
      7 OG         47.7600   29.8700  -14.4300 O.3       1 SER1        0.0000 
      8 OG         46.0000   30.2800  -13.3100 O.3       1 SER1        0.0000 
      9 OG         42.2800   28.8700   -8.5800 O.3       1 SER1        0.0000 
     10 OG         44.9000   31.2900  -13.4000 O.3       1 SER1        0.0000 
     11 N          40.4800   26.3700  -14.5300 N.am      2 ALA2        0.0000 
     12 N          43.4700   25.2800  -13.4600 N.am      2 ALA2        0.0000 
     13 N          42.3600   26.2900  -13.5600 N.am      2 ALA2        0.0000 
     14 N          41.2600   27.3000  -13.6500 N.am      2 ALA2        0.0000 
     15 N          41.9100   27.9000  -14.8500 N.am      2 ALA2        0.0000 
     16 N          46.6600   26.4000  -14.9000 N.am      2 ALA2        0.0000 
     17 N          44.2400   26.2000  -12.5800 N.am      2 ALA2        0.0000 
     18 N          44.9000   26.8100  -13.7800 N.am      2 ALA2        0.0000 
     19 N          45.5500   27.4100  -14.9900 N.am      2 ALA2        0.0000 
     20 N          43.1400   27.2200  -12.6700 N.am      2 ALA2        0.0000 
     21 N          43.7900   27.8200  -13.8800 N.am      2 ALA2        0.0000 
     22 N          42.6900   28.8300  -13.9700 N.am      2 ALA2        0.0000 
     23 N          46.9800   28.9400  -15.3100 N.am      2 ALA2        0.0000 
     24 OD1        48.0900   27.9300  -15.2200 O.co2     3 ASP3        0.0000 
     25 OD1        48.8600   28.8600  -14.3300 O.co2     3 ASP3        0.0000 
     26 OD1        44.9400   29.7200   -6.7100 O.co2     3 ASP3        0.0000 
     27 NZ         40.6100   26.6900  -12.4400 N.4       4 LYS4        0.0000 
     28 NZ         39.5000   27.7100  -12.5300 N.4       4 LYS4        0.0000 
     29 NZ         40.1600   28.3100  -13.7400 N.4       4 LYS4        0.0000 
     30 NZ         40.8100   28.9100  -14.9500 N.4       4 LYS4        0.0000 
     31 CZ         39.8300   25.7700  -13.3300 C.ar      5 PHE5        0.0000 
     32 CZ         42.8100   24.6700  -12.2600 C.ar      5 PHE5        0.0000 
     33 CZ         41.0500   25.0800  -11.1400 C.ar      5 PHE5        0.0000 
     34 CZ         41.7100   25.6800  -12.3500 C.ar      5 PHE5        0.0000 
     35 CZ         39.9500   26.0900  -11.2300 C.ar      5 PHE5        0.0000 
     36 CZ         42.9300   25.0000  -10.1600 C.ar      5 PHE5        0.0000 
     37 CZ         41.8300   26.0100  -10.2600 C.ar      5 PHE5        0.0000 
     38 CZ         41.5900   29.8400  -14.0600 C.ar      5 PHE5        0.0000 
     39 CZ         40.4800   30.8500  -14.1500 C.ar      5 PHE5        0.0000 
     40 CZ         43.7100   25.9200   -9.2800 C.ar      5 PHE5        0.0000 
     41 CZ         42.6100   26.9300   -9.3700 C.ar      5 PHE5        0.0000 
     42 CZ         45.2300   29.3500  -14.2000 C.ar      5 PHE5        0.0000 
     43 CZ         42.3600   30.7700  -13.1700 C.ar      5 PHE5        0.0000 
     44 CZ         41.2600   31.7800  -13.2700 C.ar      5 PHE5        0.0000 
     45 CZ         43.3800   27.8600   -8.4800 C.ar      5 PHE5        0.0000 
     46 CZ         44.1600   28.7900   -7.6000 C.ar      5 PHE5        0.0000 
     47 CZ         43.0600   29.8000   -7.6900 C.ar      5 PHE5        0.0000 
     48 CA         45.3500   25.1900  -12.4900 C.3       6 GLY6        0.0000 
     49 CA         46.0000   25.8000  -13.6900 C.3       6 GLY6        0.0000 
     50 CA         43.5900   25.6000  -11.3700 C.3       6 GLY6        0.0000 
     51 CA         46.7800   26.7200  -12.8100 C.3       6 GLY6        0.0000 
     52 CA         47.4300   27.3300  -14.0100 C.3       6 GLY6        0.0000 
     53 CA         45.0200   27.1300  -11.6900 C.3       6 GLY6        0.0000 
     54 CA         45.6800   27.7400  -12.9000 C.3       6 GLY6        0.0000 
     55 CA         49.3100   27.2500  -13.0400 C.3       6 GLY6        0.0000 
     56 CA         48.2100   28.2600  -13.1300 C.3       6 GLY6        0.0000 
     57 CA         44.4900   26.8500   -8.3900 C.3       6 GLY6        0.0000 
     58 CA         45.1400   27.4600   -9.6000 C.3       6 GLY6        0.0000 
     59 CA         45.8000   28.0600  -10.8100 C.3       6 GLY6        0.0000 
     60 CA         46.4500   28.6600  -12.0100 C.3       6 GLY6        0.0000 
     61 CA         45.9200   28.3800   -8.7100 C.3       6 GLY6        0.0000 
     62 DU         42.4900   26.6100  -11.4600 H         7 CUB7        0.0000 
     63 DU         41.3800   27.6200  -11.5500 H         7 CUB7        0.0000 
     64 DU         42.0400   28.2300  -12.7600 H         7 CUB7        0.0000 
     65 DU         40.2800   28.6300  -11.6500 H         7 CUB7        0.0000 
     66 DU         40.9300   29.2400  -12.8500 H         7 CUB7        0.0000 
     67 DU         46.3300   28.3400  -14.1100 H         7 CUB7        0.0000 
     68 DU         43.2600   27.5400  -10.5800 H         7 CUB7        0.0000 
     69 DU         44.5700   28.7500  -12.9900 H         7 CUB7        0.0000 
     70 DU         43.4700   29.7600  -13.0800 H         7 CUB7        0.0000 
     71 DU         44.0400   28.4700   -9.6900 H         7 CUB7        0.0000 
     72 DU         45.3500   29.6800  -12.1000 H         7 CUB7        0.0000 
     73 DU         42.9400   29.4800   -9.7800 H         7 CUB7        0.0000 
@<TRIPOS>BOND
@<TRIPOS>SUBSTRUCTURE
     1 SER1        1 GROUP   
     2 ALA2       11 GROUP   
     3 ASP3       24 GROUP   
     4 LYS4       27 GROUP   
     5 PHE5       31 GROUP   
     6 GLY6       48 GROUP   
     7 CUB7       62 GROUP   
@<TRIPOS>SET

