#    Name: 5obh_2_J94
#    Modification time : Fri May 22 19:16:09 2020

@<TRIPOS>MOLECULE
5obh_2_J94
   28    33     1     0     0
SMALL
NO_CHARGES


@<TRIPOS>ATOM
      1 C01        24.6940   16.5360  -36.5370 C.3       1 J94601      0.0000 
      2 N02        25.9830   15.8690  -36.9550 N.4       1 J94601      0.0000 
      3 C03        25.6400   14.4610  -37.3750 C.3       1 J94601      0.0000 
      4 C04        26.8930   15.8030  -35.7350 C.3       1 J94601      0.0000 
      5 C05        27.3740   17.1310  -35.1800 C.3       1 J94601      0.0000 
      6 C06        27.3880   18.2590  -36.1820 C.ar      1 J94601      0.0000 
      7 C07        27.1630   18.0250  -37.5500 C.ar      1 J94601      0.0000 
      8 C08        27.2510   19.0840  -38.4620 C.ar      1 J94601      0.0000 
      9 C09        27.4950   20.3550  -37.9790 C.ar      1 J94601      0.0000 
     10 O10        27.5550   21.5410  -38.6770 O.3       1 J94601      0.0000 
     11 C11        27.7350   22.5590  -37.6860 C.3       1 J94601      0.0000 
     12 O12        27.7450   21.9400  -36.3940 O.3       1 J94601      0.0000 
     13 C13        27.6580   20.5880  -36.6350 C.ar      1 J94601      0.0000 
     14 C14        27.6330   19.5550  -35.7260 C.ar      1 J94601      0.0000 
     15 C15        26.7150   16.6640  -38.0620 C.3       1 J94601      0.0000 
     16 C16        27.8930   15.9640  -38.7790 C.3       1 J94601      0.0000 
     17 O17        29.1240   16.2140  -38.0210 O.3       1 J94601      0.0000 
     18 C18        30.0700   16.8060  -38.7980 C.2       1 J94601      0.0000 
     19 O19        31.1710   17.0420  -38.3700 O.2       1 J94601      0.0000 
     20 C20        29.5090   16.9850  -40.1490 C.ar      1 J94601      0.0000 
     21 C21        30.0230   17.5720  -41.3140 C.ar      1 J94601      0.0000 
     22 O22        31.2220   18.2230  -41.5150 O.3       1 J94601      0.0000 
     23 C23        31.2010   18.6320  -42.8900 C.3       1 J94601      0.0000 
     24 O24        29.9880   18.1650  -43.4900 O.3       1 J94601      0.0000 
     25 C25        29.2840   17.5470  -42.4790 C.ar      1 J94601      0.0000 
     26 C26        28.0290   16.9460  -42.5330 C.ar      1 J94601      0.0000 
     27 C27        27.5170   16.3860  -41.3710 C.ar      1 J94601      0.0000 
     28 C28        28.2370   16.4160  -40.1770 C.ar      1 J94601      0.0000 
@<TRIPOS>BOND
     1    1    2 1    
     2    2    3 1    
     3    2    4 1    
     4    2   15 1    
     5    4    5 1    
     6    5    6 1    
     7    6    7 ar   
     8    6   14 ar   
     9    7    8 ar   
    10    7   15 1    
    11    8    9 ar   
    12    9   10 1    
    13    9   13 ar   
    14   10   11 1    
    15   11   12 1    
    16   12   13 1    
    17   13   14 ar   
    18   15   16 1    
    19   16   17 1    
    20   16   28 1    
    21   17   18 1    
    22   18   19 2    
    23   18   20 1    
    24   20   21 ar   
    25   20   28 ar   
    26   21   22 1    
    27   21   25 ar   
    28   22   23 1    
    29   23   24 1    
    30   24   25 1    
    31   25   26 ar   
    32   26   27 ar   
    33   27   28 ar   
@<TRIPOS>SUBSTRUCTURE
     1 J94601      1 GROUP   
@<TRIPOS>SET

