#    Name: 5obh_5_J94
#    Modification time : Fri May 22 19:16:28 2020

@<TRIPOS>MOLECULE
5obh_5_J94
   28    33     1     0     0
SMALL
NO_CHARGES


@<TRIPOS>ATOM
      1 C01        38.3150  -23.0610   -7.8080 C.3       1 J94601      0.0000 
      2 N02        39.6030  -22.4290   -8.2840 N.4       1 J94601      0.0000 
      3 C03        40.1740  -21.6380   -7.1290 C.3       1 J94601      0.0000 
      4 C04        39.3000  -21.4680   -9.4290 C.3       1 J94601      0.0000 
      5 C05        38.6780  -22.0730  -10.6730 C.3       1 J94601      0.0000 
      6 C06        39.0810  -23.5040  -10.9210 C.ar      1 J94601      0.0000 
      7 C07        40.0320  -24.1410  -10.1040 C.ar      1 J94601      0.0000 
      8 C08        40.4620  -25.4340  -10.4130 C.ar      1 J94601      0.0000 
      9 C09        39.9180  -26.0660  -11.5100 C.ar      1 J94601      0.0000 
     10 O10        40.1980  -27.3220  -11.9970 O.3       1 J94601      0.0000 
     11 C11        39.3330  -27.4980  -13.1180 C.3       1 J94601      0.0000 
     12 O12        38.5280  -26.3240  -13.2630 O.3       1 J94601      0.0000 
     13 C13        38.9600  -25.4610  -12.2820 C.ar      1 J94601      0.0000 
     14 C14        38.5270  -24.1820  -12.0090 C.ar      1 J94601      0.0000 
     15 C15        40.5710  -23.4870   -8.8500 C.3       1 J94601      0.0000 
     16 C16        42.0350  -23.0380   -9.0570 C.3       1 J94601      0.0000 
     17 O17        42.2410  -22.7120  -10.4700 O.3       1 J94601      0.0000 
     18 C18        43.1910  -23.5080  -11.0260 C.2       1 J94601      0.0000 
     19 O19        43.4920  -23.4030  -12.1900 O.2       1 J94601      0.0000 
     20 C20        43.7030  -24.4100   -9.9810 C.ar      1 J94601      0.0000 
     21 C21        44.6190  -25.4670  -10.0060 C.ar      1 J94601      0.0000 
     22 O22        45.3460  -25.9730  -11.0620 O.3       1 J94601      0.0000 
     23 C23        46.0870  -27.0690  -10.5140 C.3       1 J94601      0.0000 
     24 O24        45.7970  -27.1690   -9.1180 O.3       1 J94601      0.0000 
     25 C25        44.9060  -26.1570   -8.8480 C.ar      1 J94601      0.0000 
     26 C26        44.3180  -25.8250   -7.6350 C.ar      1 J94601      0.0000 
     27 C27        43.4030  -24.7840   -7.6150 C.ar      1 J94601      0.0000 
     28 C28        43.0770  -24.0910   -8.7810 C.ar      1 J94601      0.0000 
@<TRIPOS>BOND
     1    1    2 1    
     2    2    3 1    
     3    2    4 1    
     4    2   15 1    
     5    4    5 1    
     6    5    6 1    
     7    6    7 ar   
     8    6   14 ar   
     9    7    8 ar   
    10    7   15 1    
    11    8    9 ar   
    12    9   10 1    
    13    9   13 ar   
    14   10   11 1    
    15   11   12 1    
    16   12   13 1    
    17   13   14 ar   
    18   15   16 1    
    19   16   17 1    
    20   16   28 1    
    21   17   18 1    
    22   18   19 2    
    23   18   20 1    
    24   20   21 ar   
    25   20   28 ar   
    26   21   22 1    
    27   21   25 ar   
    28   22   23 1    
    29   23   24 1    
    30   24   25 1    
    31   25   26 ar   
    32   26   27 ar   
    33   27   28 ar   
@<TRIPOS>SUBSTRUCTURE
     1 J94601      1 GROUP   
@<TRIPOS>SET

