#    Name: 5obh_3_J94
#    Modification time : Fri May 22 19:16:16 2020

@<TRIPOS>MOLECULE
5obh_3_J94
   28    33     1     0     0
SMALL
NO_CHARGES


@<TRIPOS>ATOM
      1 C01        39.4360   27.3710  -12.1880 C.3       1 J94601      0.0000 
      2 N02        40.5720   27.7180  -13.1260 N.4       1 J94601      0.0000 
      3 C03        39.9710   28.2190  -14.4160 C.3       1 J94601      0.0000 
      4 C04        41.3720   26.4520  -13.4050 C.3       1 J94601      0.0000 
      5 C05        42.1310   25.8710  -12.2270 C.3       1 J94601      0.0000 
      6 C06        42.5620   26.8930  -11.2030 C.ar      1 J94601      0.0000 
      7 C07        42.1580   28.2380  -11.2940 C.ar      1 J94601      0.0000 
      8 C08        42.4860   29.1360  -10.2770 C.ar      1 J94601      0.0000 
      9 C09        43.2720   28.6970   -9.2400 C.ar      1 J94601      0.0000 
     10 O10        43.7610   29.4190   -8.1750 O.3       1 J94601      0.0000 
     11 C11        44.5560   28.5020   -7.4300 C.3       1 J94601      0.0000 
     12 O12        44.4390   27.2070   -8.0270 O.3       1 J94601      0.0000 
     13 C13        43.7050   27.3980   -9.1720 C.ar      1 J94601      0.0000 
     14 C14        43.3500   26.4730  -10.1300 C.ar      1 J94601      0.0000 
     15 C15        41.5090   28.7760  -12.5090 C.3       1 J94601      0.0000 
     16 C16        42.5960   29.4390  -13.3860 C.3       1 J94601      0.0000 
     17 O17        43.6950   28.4900  -13.5850 O.3       1 J94601      0.0000 
     18 C18        44.8840   29.0180  -13.1920 C.2       1 J94601      0.0000 
     19 O19        45.9070   28.3790  -13.2650 O.2       1 J94601      0.0000 
     20 C20        44.6400   30.3910  -12.7110 C.ar      1 J94601      0.0000 
     21 C21        45.4920   31.3790  -12.1840 C.ar      1 J94601      0.0000 
     22 O22        46.8530   31.3390  -11.9560 O.3       1 J94601      0.0000 
     23 C23        47.1800   32.6180  -11.4040 C.3       1 J94601      0.0000 
     24 O24        45.9840   33.3990  -11.3130 O.3       1 J94601      0.0000 
     25 C25        44.9770   32.6020  -11.8090 C.ar      1 J94601      0.0000 
     26 C26        43.6240   32.8940  -11.9400 C.ar      1 J94601      0.0000 
     27 C27        42.7860   31.9170  -12.4600 C.ar      1 J94601      0.0000 
     28 C28        43.2810   30.6690  -12.8410 C.ar      1 J94601      0.0000 
@<TRIPOS>BOND
     1    1    2 1    
     2    2    3 1    
     3    2    4 1    
     4    2   15 1    
     5    4    5 1    
     6    5    6 1    
     7    6    7 ar   
     8    6   14 ar   
     9    7    8 ar   
    10    7   15 1    
    11    8    9 ar   
    12    9   10 1    
    13    9   13 ar   
    14   10   11 1    
    15   11   12 1    
    16   12   13 1    
    17   13   14 ar   
    18   15   16 1    
    19   16   17 1    
    20   16   28 1    
    21   17   18 1    
    22   18   19 2    
    23   18   20 1    
    24   20   21 ar   
    25   20   28 ar   
    26   21   22 1    
    27   21   25 ar   
    28   22   23 1    
    29   23   24 1    
    30   24   25 1    
    31   25   26 ar   
    32   26   27 ar   
    33   27   28 ar   
@<TRIPOS>SUBSTRUCTURE
     1 J94601      1 GROUP   
@<TRIPOS>SET

