#    Name: 5obh_1_J94_CAVITY_N1_8
#    Modification time : Fri May 22 19:16:04 2020

@<TRIPOS>MOLECULE
5obh_1_J94_CAVITY_N1_8
   94     0     7     0     0
SMALL
NO_CHARGES


@<TRIPOS>ATOM
      1 OG         23.9200  -16.1900  -39.2300 O.3       1 SER1        0.0000 
      2 OG         24.5800  -15.5800  -40.4400 O.3       1 SER1        0.0000 
      3 OG         17.7900  -17.7900  -32.1800 O.3       1 SER1        0.0000 
      4 OG         24.7000  -15.2600  -38.3500 O.3       1 SER1        0.0000 
      5 OG         25.3500  -14.6500  -39.5500 O.3       1 SER1        0.0000 
      6 OG         18.5600  -16.8600  -31.2900 O.3       1 SER1        0.0000 
      7 OG         19.2200  -16.2600  -32.5000 O.3       1 SER1        0.0000 
      8 OG         21.1800  -14.4400  -36.1200 O.3       1 SER1        0.0000 
      9 OG         21.8400  -13.8400  -37.3200 O.3       1 SER1        0.0000 
     10 OG         17.4600  -15.8500  -31.3800 O.3       1 SER1        0.0000 
     11 OG         21.1000  -16.3400  -31.5200 O.3       1 SER1        0.0000 
     12 OG         23.0600  -14.5300  -35.1400 O.3       1 SER1        0.0000 
     13 OG         19.3400  -15.9300  -30.4000 O.3       1 SER1        0.0000 
     14 OG         20.0000  -15.3300  -31.6100 O.3       1 SER1        0.0000 
     15 OG         20.6500  -14.7300  -32.8200 O.3       1 SER1        0.0000 
     16 OG         22.6100  -12.9100  -36.4400 O.3       1 SER1        0.0000 
     17 OG         17.5800  -15.5300  -29.2900 O.3       1 SER1        0.0000 
     18 OG         18.2400  -14.9200  -30.5000 O.3       1 SER1        0.0000 
     19 OG         23.8400  -13.6000  -34.2500 O.3       1 SER1        0.0000 
     20 OG         20.7700  -14.4000  -30.7200 O.3       1 SER1        0.0000 
     21 OG         22.0800  -13.1900  -33.1400 O.3       1 SER1        0.0000 
     22 OG         19.0100  -13.9900  -29.6100 O.3       1 SER1        0.0000 
     23 OG         19.6700  -13.3900  -30.8200 O.3       1 SER1        0.0000 
     24 N          26.0500  -15.6200  -34.0700 N.am      2 ALA2        0.0000 
     25 N          26.7000  -15.0200  -35.2800 N.am      2 ALA2        0.0000 
     26 N          27.3600  -14.4100  -36.4800 N.am      2 ALA2        0.0000 
     27 N          24.9400  -14.6100  -34.1600 N.am      2 ALA2        0.0000 
     28 N          25.6000  -14.0100  -35.3700 N.am      2 ALA2        0.0000 
     29 N          25.7200  -13.6800  -33.2800 N.am      2 ALA2        0.0000 
     30 N          26.3700  -13.0800  -34.4800 N.am      2 ALA2        0.0000 
     31 N          21.5500  -13.4700  -29.8400 N.am      2 ALA2        0.0000 
     32 O          19.7900  -13.0700  -28.7200 O.2       2 ALA2        0.0000 
     33 OD1        21.2700  -12.5500  -40.7200 O.co2     3 ASP3        0.0000 
     34 OD1        23.8000  -12.0300  -40.9400 O.co2     3 ASP3        0.0000 
     35 OD1        22.8200  -10.6900  -38.9400 O.co2     3 ASP3        0.0000 
     36 NZ         24.2900  -15.2200  -32.9500 N.4       4 LYS4        0.0000 
     37 NZ         22.5300  -14.8100  -31.8400 N.4       4 LYS4        0.0000 
     38 NZ         23.1900  -14.2000  -33.0500 N.4       4 LYS4        0.0000 
     39 NZ         25.0700  -14.2900  -32.0700 N.4       4 LYS4        0.0000 
     40 NZ         23.3100  -13.8800  -30.9500 N.4       4 LYS4        0.0000 
     41 CZ         23.2700  -16.7900  -38.0300 C.ar      5 PHE5        0.0000 
     42 CZ         22.1600  -15.7800  -38.1200 C.ar      5 PHE5        0.0000 
     43 CZ         24.0400  -15.8600  -37.1400 C.ar      5 PHE5        0.0000 
     44 CZ         21.3900  -12.2200  -38.6200 C.ar      5 PHE5        0.0000 
     45 CZ         22.0400  -11.6200  -39.8300 C.ar      5 PHE5        0.0000 
     46 CZ         25.2700  -16.5500  -34.9600 C.ar      5 PHE5        0.0000 
     47 CZ         25.9200  -15.9500  -36.1600 C.ar      5 PHE5        0.0000 
     48 CZ         26.5800  -15.3400  -37.3700 C.ar      5 PHE5        0.0000 
     49 CZ         23.2700  -12.3100  -37.6500 C.ar      5 PHE5        0.0000 
     50 CZ         22.1600  -11.3000  -37.7400 C.ar      5 PHE5        0.0000 
     51 CZ         21.4300  -13.8000  -31.9300 C.ar      5 PHE5        0.0000 
     52 CZ         23.3900  -11.9800  -35.5500 C.ar      5 PHE5        0.0000 
     53 CZ         24.0500  -11.3800  -36.7600 C.ar      5 PHE5        0.0000 
     54 CZ         23.9600  -13.2800  -32.1600 C.ar      5 PHE5        0.0000 
     55 CZ         24.6200  -12.6700  -33.3700 C.ar      5 PHE5        0.0000 
     56 CZ         25.2700  -12.0700  -34.5700 C.ar      5 PHE5        0.0000 
     57 CZ         22.2000  -12.8700  -31.0500 C.ar      5 PHE5        0.0000 
     58 CZ         22.8600  -12.2600  -32.2500 C.ar      5 PHE5        0.0000 
     59 CZ         23.5100  -11.6600  -33.4600 C.ar      5 PHE5        0.0000 
     60 CZ         24.1700  -11.0600  -34.6700 C.ar      5 PHE5        0.0000 
     61 CA         26.0100  -14.0500  -40.7600 C.3       6 GLY6        0.0000 
     62 CA         24.9000  -13.0400  -40.8500 C.3       6 GLY6        0.0000 
     63 CA         25.5600  -12.4300  -42.0600 C.3       6 GLY6        0.0000 
     64 CA         17.9100  -17.4700  -30.0800 C.3       6 GLY6        0.0000 
     65 CA         26.7800  -13.1200  -39.8700 C.3       6 GLY6        0.0000 
     66 CA         25.0300  -12.7200  -38.7600 C.3       6 GLY6        0.0000 
     67 CA         25.6800  -12.1100  -39.9700 C.3       6 GLY6        0.0000 
     68 CA         24.5800  -11.1000  -40.0600 C.3       6 GLY6        0.0000 
     69 CA         28.0100  -13.8100  -37.6900 C.3       6 GLY6        0.0000 
     70 CA         26.9100  -12.8000  -37.7800 C.3       6 GLY6        0.0000 
     71 CA         25.8000  -11.7900  -37.8700 C.3       6 GLY6        0.0000 
     72 CA         19.4600  -15.6100  -28.3100 C.3       6 GLY6        0.0000 
     73 CA         20.1200  -15.0100  -29.5200 C.3       6 GLY6        0.0000 
     74 CA         18.3600  -14.6000  -28.4000 C.3       6 GLY6        0.0000 
     75 CA         25.9300  -11.4600  -35.7800 C.3       6 GLY6        0.0000 
     76 CA         20.9000  -14.0800  -28.6300 C.3       6 GLY6        0.0000 
     77 DU         20.9400  -15.0900  -40.3000 H         7 CUB7        0.0000 
     78 DU         22.8200  -15.1800  -39.3300 H         7 CUB7        0.0000 
     79 DU         23.4700  -14.5700  -40.5300 H         7 CUB7        0.0000 
     80 DU         22.3700  -13.5600  -40.6200 H         7 CUB7        0.0000 
     81 DU         22.9400  -14.8500  -37.2300 H         7 CUB7        0.0000 
     82 DU         24.2500  -13.6400  -39.6500 H         7 CUB7        0.0000 
     83 DU         22.4900  -13.2400  -38.5300 H         7 CUB7        0.0000 
     84 DU         23.1500  -12.6300  -39.7400 H         7 CUB7        0.0000 
     85 DU         24.8200  -14.9400  -36.2500 H         7 CUB7        0.0000 
     86 DU         25.4800  -14.3300  -37.4600 H         7 CUB7        0.0000 
     87 DU         26.1300  -13.7300  -38.6700 H         7 CUB7        0.0000 
     88 DU         23.7200  -13.9200  -36.3500 H         7 CUB7        0.0000 
     89 DU         24.3700  -13.3200  -37.5500 H         7 CUB7        0.0000 
     90 DU         18.6900  -16.5400  -29.2000 H         7 CUB7        0.0000 
     91 DU         23.9200  -11.7000  -38.8500 H         7 CUB7        0.0000 
     92 DU         26.2500  -13.4000  -36.5800 H         7 CUB7        0.0000 
     93 DU         24.4900  -13.0000  -35.4600 H         7 CUB7        0.0000 
     94 DU         25.1500  -12.3900  -36.6700 H         7 CUB7        0.0000 
@<TRIPOS>BOND
@<TRIPOS>SUBSTRUCTURE
     1 SER1        1 GROUP   
     2 ALA2       24 GROUP   
     3 ASP3       33 GROUP   
     4 LYS4       36 GROUP   
     5 PHE5       41 GROUP   
     6 GLY6       61 GROUP   
     7 CUB7       77 GROUP   
@<TRIPOS>SET

