#    Name: 5obh_5_J94_CAVITY_N1_4
#    Modification time : Fri May 22 19:16:30 2020

@<TRIPOS>MOLECULE
5obh_5_J94_CAVITY_N1_4
  141     0     7     0     0
SMALL
NO_CHARGES


@<TRIPOS>ATOM
      1 OG         39.4100  -28.0000  -12.5100 O.3       1 SER1        0.0000 
      2 OG         38.3100  -26.9800  -12.6000 O.3       1 SER1        0.0000 
      3 OG         37.2000  -25.9700  -12.6900 O.3       1 SER1        0.0000 
      4 OG         39.0800  -26.0600  -11.7200 O.3       1 SER1        0.0000 
      5 OG         37.3300  -25.6500  -10.6000 O.3       1 SER1        0.0000 
      6 OG         37.9800  -25.0500  -11.8100 O.3       1 SER1        0.0000 
      7 OG         38.6400  -24.4400  -13.0100 O.3       1 SER1        0.0000 
      8 OG         37.4500  -25.3300   -8.5100 O.3       1 SER1        0.0000 
      9 OG         38.1000  -24.7200   -9.7100 O.3       1 SER1        0.0000 
     10 OG         39.4100  -23.5100  -12.1300 O.3       1 SER1        0.0000 
     11 OG         38.3100  -22.5000  -12.2200 O.3       1 SER1        0.0000 
     12 OG         36.9200  -25.6100   -5.2100 O.3       1 SER1        0.0000 
     13 OG         37.5700  -25.0000   -6.4200 O.3       1 SER1        0.0000 
     14 OG         38.2300  -24.4000   -7.6200 O.3       1 SER1        0.0000 
     15 OG         40.8400  -21.9800  -12.4500 O.3       1 SER1        0.0000 
     16 OG         35.8100  -24.5900   -5.3000 O.3       1 SER1        0.0000 
     17 OG         36.4700  -23.9900   -6.5100 O.3       1 SER1        0.0000 
     18 OG         37.1200  -23.3900   -7.7100 O.3       1 SER1        0.0000 
     19 OG         37.7800  -22.7800   -8.9200 O.3       1 SER1        0.0000 
     20 OG         37.2400  -23.0600   -5.6200 O.3       1 SER1        0.0000 
     21 OG         37.9000  -22.4600   -6.8300 O.3       1 SER1        0.0000 
     22 OG         36.1400  -22.0500   -5.7100 O.3       1 SER1        0.0000 
     23 OG         38.0200  -22.1300   -4.7400 O.3       1 SER1        0.0000 
     24 N          43.7400  -29.4600   -7.1600 N.am      2 ALA2        0.0000 
     25 N          40.1900  -22.5800  -11.2400 N.am      2 ALA2        0.0000 
     26 N          43.4200  -27.5200   -6.3700 N.am      2 ALA2        0.0000 
     27 N          44.2800  -24.6900  -10.0800 N.am      2 ALA2        0.0000 
     28 N          44.9300  -24.0900  -11.2900 N.am      2 ALA2        0.0000 
     29 N          43.1700  -23.6800  -10.1700 N.am      2 ALA2        0.0000 
     30 N          43.8300  -23.0800  -11.3800 N.am      2 ALA2        0.0000 
     31 N          44.4800  -22.4700  -12.5900 N.am      2 ALA2        0.0000 
     32 N          41.4100  -23.2700   -9.0600 N.am      2 ALA2        0.0000 
     33 N          42.0700  -22.6700  -10.2600 N.am      2 ALA2        0.0000 
     34 N          42.7200  -22.0600  -11.4700 N.am      2 ALA2        0.0000 
     35 N          40.3100  -22.2600   -9.1500 N.am      2 ALA2        0.0000 
     36 O          46.1600  -24.7700   -9.1000 O.2       2 ALA2        0.0000 
     37 O          44.4000  -24.3700   -7.9900 O.2       2 ALA2        0.0000 
     38 N          45.0500  -23.7600   -9.1900 N.am      2 ALA2        0.0000 
     39 N          43.3000  -23.3600   -8.0800 N.am      2 ALA2        0.0000 
     40 N          43.9500  -22.7500   -9.2900 N.am      2 ALA2        0.0000 
     41 N          42.1900  -22.3400   -8.1700 N.am      2 ALA2        0.0000 
     42 N          41.0900  -21.3300   -8.2600 N.am      2 ALA2        0.0000 
     43 N          44.0700  -22.4300   -7.1900 N.am      2 ALA2        0.0000 
     44 N          42.3100  -22.0200   -6.0800 N.am      2 ALA2        0.0000 
     45 N          42.9700  -21.4200   -7.2900 N.am      2 ALA2        0.0000 
     46 OD1        39.9400  -27.7200  -15.8100 O.co2     3 ASP3        0.0000 
     47 OD1        38.9600  -26.3800  -13.8100 O.co2     3 ASP3        0.0000 
     48 OD1        45.2600  -26.0300  -12.0800 O.co2     3 ASP3        0.0000 
     49 OD1        44.1500  -25.0100  -12.1700 O.co2     3 ASP3        0.0000 
     50 OD1        45.3800  -25.7000   -9.9900 O.co2     3 ASP3        0.0000 
     51 NZ         43.6200  -29.7800   -9.2500 N.4       4 LYS4        0.0000 
     52 NZ         44.4000  -28.8500   -8.3700 N.4       4 LYS4        0.0000 
     53 NZ         45.0500  -28.2500   -9.5800 N.4       4 LYS4        0.0000 
     54 NZ         45.8300  -27.3200   -8.6900 N.4       4 LYS4        0.0000 
     55 NZ         40.4300  -21.9400   -7.0600 N.4       4 LYS4        0.0000 
     56 NZ         38.6800  -21.5300   -5.9400 N.4       4 LYS4        0.0000 
     57 NZ         39.3300  -20.9300   -7.1500 N.4       4 LYS4        0.0000 
     58 NZ         36.9200  -21.1200   -4.8300 N.4       4 LYS4        0.0000 
     59 NZ         40.5600  -21.6100   -4.9600 N.4       4 LYS4        0.0000 
     60 NZ         41.2100  -21.0100   -6.1700 N.4       4 LYS4        0.0000 
     61 CZ         40.1900  -27.0700  -11.6200 C.ar      5 PHE5        0.0000 
     62 CZ         42.5200  -28.7700   -9.3500 C.ar      5 PHE5        0.0000 
     63 CZ         41.4100  -27.7600   -9.4400 C.ar      5 PHE5        0.0000 
     64 CZ         42.0700  -27.1500  -10.6500 C.ar      5 PHE5        0.0000 
     65 CZ         40.9600  -26.1400  -10.7400 C.ar      5 PHE5        0.0000 
     66 CZ         38.5500  -26.3400   -8.4200 C.ar      5 PHE5        0.0000 
     67 CZ         39.2100  -25.7300   -9.6200 C.ar      5 PHE5        0.0000 
     68 CZ         36.7900  -25.9300   -7.3000 C.ar      5 PHE5        0.0000 
     69 CZ         38.7600  -24.1200  -10.9200 C.ar      5 PHE5        0.0000 
     70 CZ         37.6500  -23.1100  -11.0100 C.ar      5 PHE5        0.0000 
     71 CZ         42.6400  -28.4400   -7.2500 C.ar      5 PHE5        0.0000 
     72 CZ         43.2900  -27.8400   -8.4600 C.ar      5 PHE5        0.0000 
     73 CZ         41.5400  -27.4300   -7.3500 C.ar      5 PHE5        0.0000 
     74 CZ         42.1900  -26.8300   -8.5500 C.ar      5 PHE5        0.0000 
     75 CZ         40.4300  -26.4200   -7.4400 C.ar      5 PHE5        0.0000 
     76 CZ         41.0900  -25.8200   -8.6400 C.ar      5 PHE5        0.0000 
     77 CZ         38.6700  -26.0100   -6.3200 C.ar      5 PHE5        0.0000 
     78 CZ         39.3300  -25.4100   -7.5300 C.ar      5 PHE5        0.0000 
     79 CZ         38.4300  -22.1800  -10.1300 C.ar      5 PHE5        0.0000 
     80 CZ         37.3300  -21.1700  -10.2200 C.ar      5 PHE5        0.0000 
     81 CZ         42.3100  -26.5000   -6.4600 C.ar      5 PHE5        0.0000 
     82 CZ         42.9700  -25.9000   -7.6700 C.ar      5 PHE5        0.0000 
     83 CZ         41.2100  -25.4900   -6.5500 C.ar      5 PHE5        0.0000 
     84 CZ         41.8600  -24.8900   -7.7600 C.ar      5 PHE5        0.0000 
     85 CZ         40.1100  -24.4800   -6.6400 C.ar      5 PHE5        0.0000 
     86 CZ         39.0000  -23.4700   -6.7400 C.ar      5 PHE5        0.0000 
     87 CZ         38.5500  -21.8500   -8.0300 C.ar      5 PHE5        0.0000 
     88 CZ         39.2100  -21.2500   -9.2400 C.ar      5 PHE5        0.0000 
     89 CZ         39.8600  -20.6400  -10.4500 C.ar      5 PHE5        0.0000 
     90 CZ         36.7900  -21.4500   -6.9200 C.ar      5 PHE5        0.0000 
     91 CZ         37.4500  -20.8400   -8.1300 C.ar      5 PHE5        0.0000 
     92 CZ         35.6900  -20.4300   -7.0100 C.ar      5 PHE5        0.0000 
     93 CZ         42.6400  -23.9600   -6.8700 C.ar      5 PHE5        0.0000 
     94 CZ         40.8800  -23.5500   -5.7600 C.ar      5 PHE5        0.0000 
     95 CZ         41.5400  -22.9500   -6.9600 C.ar      5 PHE5        0.0000 
     96 CZ         39.7800  -22.5400   -5.8500 C.ar      5 PHE5        0.0000 
     97 CZ         39.9800  -20.3200   -8.3600 C.ar      5 PHE5        0.0000 
     98 CA         41.8200  -27.8000  -14.8300 C.3       6 GLY6        0.0000 
     99 CA         40.0700  -27.3900  -13.7200 C.3       6 GLY6        0.0000 
    100 CA         41.9500  -27.4800  -12.7400 C.3       6 GLY6        0.0000 
    101 CA         40.8400  -26.4600  -12.8300 C.3       6 GLY6        0.0000 
    102 CA         39.7400  -25.4500  -12.9200 C.3       6 GLY6        0.0000 
    103 CA         45.1400  -26.3500  -14.1700 C.3       6 GLY6        0.0000 
    104 CA         43.3800  -25.9400  -13.0600 C.3       6 GLY6        0.0000 
    105 CA         44.0300  -25.3400  -14.2700 C.3       6 GLY6        0.0000 
    106 CA         41.6200  -25.5400  -11.9400 C.3       6 GLY6        0.0000 
    107 CA         42.2700  -24.9300  -13.1500 C.3       6 GLY6        0.0000 
    108 CA         40.5200  -24.5200  -12.0400 C.3       6 GLY6        0.0000 
    109 CA         44.8100  -24.4100  -13.3800 C.3       6 GLY6        0.0000 
    110 CA         43.0500  -24.0000  -12.2700 C.3       6 GLY6        0.0000 
    111 CA         43.7100  -23.4000  -13.4700 C.3       6 GLY6        0.0000 
    112 CA         41.9500  -22.9900  -12.3600 C.3       6 GLY6        0.0000 
    113 CA         39.0800  -21.5700  -11.3300 C.3       6 GLY6        0.0000 
    114 CA         45.1800  -27.9200   -7.4800 C.3       6 GLY6        0.0000 
    115 CA         43.3800  -21.4600  -12.6800 C.3       6 GLY6        0.0000 
    116 CA         44.8500  -25.9800   -6.6900 C.3       6 GLY6        0.0000 
    117 CA         45.5000  -25.3800   -7.9000 C.3       6 GLY6        0.0000 
    118 CA         43.7400  -24.9700   -6.7800 C.3       6 GLY6        0.0000 
    119 DU         45.5900  -27.9700  -12.8800 H         7 CUB7        0.0000 
    120 DU         43.1700  -28.1600  -10.5500 H         7 CUB7        0.0000 
    121 DU         43.8300  -27.5600  -11.7600 H         7 CUB7        0.0000 
    122 DU         44.4800  -26.9500  -12.9700 H         7 CUB7        0.0000 
    123 DU         42.7200  -26.5500  -11.8500 H         7 CUB7        0.0000 
    124 DU         39.8600  -25.1300  -10.8300 H         7 CUB7        0.0000 
    125 DU         43.9500  -27.2400   -9.6700 H         7 CUB7        0.0000 
    126 DU         44.6000  -26.6300  -10.8700 H         7 CUB7        0.0000 
    127 DU         42.8500  -26.2200   -9.7600 H         7 CUB7        0.0000 
    128 DU         43.5000  -25.6200  -10.9700 H         7 CUB7        0.0000 
    129 DU         41.7400  -25.2100   -9.8500 H         7 CUB7        0.0000 
    130 DU         42.4000  -24.6100  -11.0600 H         7 CUB7        0.0000 
    131 DU         39.9800  -24.8000   -8.7400 H         7 CUB7        0.0000 
    132 DU         40.6400  -24.2000   -9.9400 H         7 CUB7        0.0000 
    133 DU         41.2900  -23.6000  -11.1500 H         7 CUB7        0.0000 
    134 DU         38.8800  -23.7900   -8.8300 H         7 CUB7        0.0000 
    135 DU         39.5300  -23.1900  -10.0400 H         7 CUB7        0.0000 
    136 DU         44.0700  -26.9100   -7.5700 H         7 CUB7        0.0000 
    137 DU         44.7300  -26.3100   -8.7800 H         7 CUB7        0.0000 
    138 DU         43.6200  -25.3000   -8.8700 H         7 CUB7        0.0000 
    139 DU         42.5200  -24.2800   -8.9700 H         7 CUB7        0.0000 
    140 DU         40.7600  -23.8800   -7.8500 H         7 CUB7        0.0000 
    141 DU         39.6600  -22.8600   -7.9400 H         7 CUB7        0.0000 
@<TRIPOS>BOND
@<TRIPOS>SUBSTRUCTURE
     1 SER1        1 GROUP   
     2 ALA2       24 GROUP   
     3 ASP3       46 GROUP   
     4 LYS4       51 GROUP   
     5 PHE5       61 GROUP   
     6 GLY6       98 GROUP   
     7 CUB7      119 GROUP   
@<TRIPOS>SET

