#    Name: 5obh_2_J94_CAVITY_N1_8
#    Modification time : Fri May 22 19:16:11 2020

@<TRIPOS>MOLECULE
5obh_2_J94_CAVITY_N1_8
   96     0     7     0     0
SMALL
NO_CHARGES


@<TRIPOS>ATOM
      1 OG         28.3000   17.2100  -42.5100 O.3       1 SER1        0.0000 
      2 OG         28.9600   17.8100  -43.7100 O.3       1 SER1        0.0000 
      3 OG         29.0800   18.1400  -41.6200 O.3       1 SER1        0.0000 
      4 OG         29.7300   18.7400  -42.8300 O.3       1 SER1        0.0000 
      5 OG         23.6000   17.1400  -35.7700 O.3       1 SER1        0.0000 
      6 OG         29.8600   19.0700  -40.7300 O.3       1 SER1        0.0000 
      7 OG         30.5100   19.6700  -41.9400 O.3       1 SER1        0.0000 
      8 OG         28.1000   19.4700  -39.6200 O.3       1 SER1        0.0000 
      9 OG         33.7000   20.8000  -43.3800 O.3       1 SER1        0.0000 
     10 OG         28.6700   18.1800  -36.2300 O.3       1 SER1        0.0000 
     11 OG         29.5300   21.0100  -39.9400 O.3       1 SER1        0.0000 
     12 OG         30.1800   21.6100  -41.1500 O.3       1 SER1        0.0000 
     13 OG         30.8400   22.2100  -42.3500 O.3       1 SER1        0.0000 
     14 OG         34.4800   21.7200  -42.4900 O.3       1 SER1        0.0000 
     15 OG         35.1300   22.3300  -43.7000 O.3       1 SER1        0.0000 
     16 OG         28.3400   20.1200  -35.4300 O.3       1 SER1        0.0000 
     17 N          28.7500   15.5900  -41.2100 N.am      2 ALA2        0.0000 
     18 N          26.3400   15.4000  -38.8900 N.am      2 ALA2        0.0000 
     19 N          28.8700   15.9200  -39.1100 N.am      2 ALA2        0.0000 
     20 N          29.5300   16.5200  -40.3200 N.am      2 ALA2        0.0000 
     21 N          26.4600   15.7200  -36.7900 N.am      2 ALA2        0.0000 
     22 N          27.1200   16.3200  -38.0000 N.am      2 ALA2        0.0000 
     23 N          31.4100   16.4400  -39.3400 N.am      2 ALA2        0.0000 
     24 N          28.3400   15.6400  -35.8100 N.am      2 ALA2        0.0000 
     25 N          29.0000   16.2400  -37.0200 N.am      2 ALA2        0.0000 
     26 N          29.6500   16.8500  -38.2300 N.am      2 ALA2        0.0000 
     27 N          27.2400   16.6500  -35.9100 N.am      2 ALA2        0.0000 
     28 N          27.8900   17.2500  -37.1100 N.am      2 ALA2        0.0000 
     29 OD1        29.4100   16.2000  -42.4100 O.co2     3 ASP3        0.0000 
     30 OD1        30.0600   16.8000  -43.6200 O.co2     3 ASP3        0.0000 
     31 OD1        30.1800   17.1300  -41.5300 O.co2     3 ASP3        0.0000 
     32 OD1        30.8400   17.7300  -42.7400 O.co2     3 ASP3        0.0000 
     33 OD1        32.7200   17.6500  -41.7600 O.co2     3 ASP3        0.0000 
     34 OD1        33.3700   18.2500  -42.9600 O.co2     3 ASP3        0.0000 
     35 OD1        30.9600   18.0500  -40.6400 O.co2     3 ASP3        0.0000 
     36 OD1        31.6100   18.6600  -41.8500 O.co2     3 ASP3        0.0000 
     37 OD1        27.8900   21.7400  -36.7300 O.co2     3 ASP3        0.0000 
     38 NZ         25.6800   14.7900  -37.6800 N.4       4 LYS4        0.0000 
     39 NZ         31.4900   18.3300  -43.9400 N.4       4 LYS4        0.0000 
     40 NZ         24.7000   16.1300  -35.6800 N.4       4 LYS4        0.0000 
     41 NZ         34.0300   18.8600  -44.1700 N.4       4 LYS4        0.0000 
     42 NZ         32.2700   19.2600  -43.0600 N.4       4 LYS4        0.0000 
     43 NZ         32.9200   19.8700  -44.2600 N.4       4 LYS4        0.0000 
     44 NZ         31.1600   20.2700  -43.1500 N.4       4 LYS4        0.0000 
     45 NZ         31.8200   20.8800  -44.3500 N.4       4 LYS4        0.0000 
     46 NZ         34.3500   21.4000  -44.5800 N.4       4 LYS4        0.0000 
     47 CZ         26.9900   16.0000  -40.0900 C.ar      5 PHE5        0.0000 
     48 CZ         27.6500   16.6100  -41.3000 C.ar      5 PHE5        0.0000 
     49 CZ         24.5800   15.8000  -37.7700 C.ar      5 PHE5        0.0000 
     50 CZ         25.2400   16.4100  -38.9800 C.ar      5 PHE5        0.0000 
     51 CZ         25.8900   17.0100  -40.1800 C.ar      5 PHE5        0.0000 
     52 CZ         25.8100   15.1200  -35.5900 C.ar      5 PHE5        0.0000 
     53 CZ         28.4200   17.5300  -40.4100 C.ar      5 PHE5        0.0000 
     54 CZ         26.6700   17.9400  -39.3000 C.ar      5 PHE5        0.0000 
     55 CZ         26.5800   16.0400  -34.7000 C.ar      5 PHE5        0.0000 
     56 CZ         25.4800   17.0600  -34.7900 C.ar      5 PHE5        0.0000 
     57 CZ         26.1300   17.6600  -36.0000 C.ar      5 PHE5        0.0000 
     58 CZ         27.4400   18.8700  -38.4100 C.ar      5 PHE5        0.0000 
     59 CZ         26.9900   20.4800  -39.7100 C.ar      5 PHE5        0.0000 
     60 CZ         26.9100   18.5900  -35.1100 C.ar      5 PHE5        0.0000 
     61 CZ         27.7700   21.4100  -38.8300 C.ar      5 PHE5        0.0000 
     62 CZ         27.6900   19.5200  -34.2300 C.ar      5 PHE5        0.0000 
     63 CZ         27.2400   21.1300  -35.5300 C.ar      5 PHE5        0.0000 
     64 CA         26.8700   15.6800  -42.1900 C.3       6 GLY6        0.0000 
     65 CA         27.5300   16.2800  -43.3900 C.3       6 GLY6        0.0000 
     66 CA         32.0600   17.0400  -40.5500 C.3       6 GLY6        0.0000 
     67 CA         30.3100   17.4500  -39.4400 C.3       6 GLY6        0.0000 
     68 CA         34.8000   19.7800  -43.2800 C.3       6 GLY6        0.0000 
     69 CA         31.7400   18.9800  -39.7600 C.3       6 GLY6        0.0000 
     70 CA         32.3900   19.5900  -40.9600 C.3       6 GLY6        0.0000 
     71 CA         33.0500   20.1900  -42.1700 C.3       6 GLY6        0.0000 
     72 CA         28.0100   17.5800  -35.0200 C.3       6 GLY6        0.0000 
     73 CA         29.3200   18.7900  -37.4300 C.3       6 GLY6        0.0000 
     74 CA         29.9800   19.3900  -38.6400 C.3       6 GLY6        0.0000 
     75 CA         30.6300   19.9900  -39.8500 C.3       6 GLY6        0.0000 
     76 CA         31.2900   20.6000  -41.0500 C.3       6 GLY6        0.0000 
     77 CA         28.2200   19.8000  -37.5300 C.3       6 GLY6        0.0000 
     78 CA         28.8700   20.4000  -38.7300 C.3       6 GLY6        0.0000 
     79 CA         33.8200   21.1200  -41.2800 C.3       6 GLY6        0.0000 
     80 CA         32.0600   21.5300  -40.1700 C.3       6 GLY6        0.0000 
     81 CA         29.0000   20.7200  -36.6400 C.3       6 GLY6        0.0000 
     82 CA         28.5500   22.3400  -37.9400 C.3       6 GLY6        0.0000 
     83 DU         27.7700   16.9300  -39.2100 H         7 CUB7        0.0000 
     84 DU         25.3600   16.7300  -36.8800 H         7 CUB7        0.0000 
     85 DU         26.0100   17.3400  -38.0900 H         7 CUB7        0.0000 
     86 DU         28.5500   17.8600  -38.3200 H         7 CUB7        0.0000 
     87 DU         29.2000   18.4600  -39.5300 H         7 CUB7        0.0000 
     88 DU         26.7900   18.2600  -37.2100 H         7 CUB7        0.0000 
     89 DU         31.9400   21.2000  -42.2600 H         7 CUB7        0.0000 
     90 DU         32.6000   21.8100  -43.4700 H         7 CUB7        0.0000 
     91 DU         27.5700   19.1900  -36.3200 H         7 CUB7        0.0000 
     92 DU         27.1200   20.8100  -37.6200 H         7 CUB7        0.0000 
     93 DU         32.7200   22.1300  -41.3800 H         7 CUB7        0.0000 
     94 DU         33.3700   22.7400  -42.5800 H         7 CUB7        0.0000 
     95 DU         31.6100   23.1400  -41.4700 H         7 CUB7        0.0000 
     96 DU         34.1500   23.6600  -41.7000 H         7 CUB7        0.0000 
@<TRIPOS>BOND
@<TRIPOS>SUBSTRUCTURE
     1 SER1        1 GROUP   
     2 ALA2       17 GROUP   
     3 ASP3       29 GROUP   
     4 LYS4       38 GROUP   
     5 PHE5       47 GROUP   
     6 GLY6       64 GROUP   
     7 CUB7       83 GROUP   
@<TRIPOS>SET

