#    Name: 5obh_4_J94
#    Modification time : Fri May 22 19:16:22 2020

@<TRIPOS>MOLECULE
5obh_4_J94
   28    33     1     0     0
SMALL
NO_CHARGES


@<TRIPOS>ATOM
      1 C01        48.9480    2.9590    6.0170 C.3       1 J94601      0.0000 
      2 N02        49.8930    3.2730    4.8820 N.4       1 J94601      0.0000 
      3 C03        49.5120    4.6290    4.3430 C.3       1 J94601      0.0000 
      4 C04        49.6820    2.2480    3.7750 C.3       1 J94601      0.0000 
      5 C05        49.9470    0.8090    4.1750 C.3       1 J94601      0.0000 
      6 C06        51.1100    0.6330    5.1210 C.ar      1 J94601      0.0000 
      7 C07        51.7510    1.7410    5.7100 C.ar      1 J94601      0.0000 
      8 C08        52.8040    1.5380    6.6110 C.ar      1 J94601      0.0000 
      9 C09        53.2170    0.2460    6.8710 C.ar      1 J94601      0.0000 
     10 O10        54.2490   -0.1780    7.6800 O.3       1 J94601      0.0000 
     11 C11        54.2470   -1.6050    7.5860 C.3       1 J94601      0.0000 
     12 O12        53.1940   -2.0010    6.7010 O.3       1 J94601      0.0000 
     13 C13        52.5990   -0.8300    6.2880 C.ar      1 J94601      0.0000 
     14 C14        51.5400   -0.6630    5.4200 C.ar      1 J94601      0.0000 
     15 C15        51.3610    3.1800    5.3590 C.3       1 J94601      0.0000 
     16 C16        52.4370    3.8250    4.4540 C.3       1 J94601      0.0000 
     17 O17        52.7570    2.9070    3.3580 O.3       1 J94601      0.0000 
     18 C18        54.0830    2.6100    3.3350 C.2       1 J94601      0.0000 
     19 O19        54.5370    1.8500    2.5170 O.2       1 J94601      0.0000 
     20 C20        54.7380    3.3450    4.4290 C.ar      1 J94601      0.0000 
     21 C21        56.0580    3.3620    4.9030 C.ar      1 J94601      0.0000 
     22 O22        57.1690    2.6950    4.4310 O.3       1 J94601      0.0000 
     23 C23        58.2330    3.0690    5.3150 C.3       1 J94601      0.0000 
     24 O24        57.7190    3.9660    6.3020 O.3       1 J94601      0.0000 
     25 C25        56.3870    4.1340    5.9970 C.ar      1 J94601      0.0000 
     26 C26        55.4420    4.9180    6.6470 C.ar      1 J94601      0.0000 
     27 C27        54.1390    4.9010    6.1740 C.ar      1 J94601      0.0000 
     28 C28        53.7770    4.1100    5.0830 C.ar      1 J94601      0.0000 
@<TRIPOS>BOND
     1    1    2 1    
     2    2    3 1    
     3    2    4 1    
     4    2   15 1    
     5    4    5 1    
     6    5    6 1    
     7    6    7 ar   
     8    6   14 ar   
     9    7    8 ar   
    10    7   15 1    
    11    8    9 ar   
    12    9   10 1    
    13    9   13 ar   
    14   10   11 1    
    15   11   12 1    
    16   12   13 1    
    17   13   14 ar   
    18   15   16 1    
    19   16   17 1    
    20   16   28 1    
    21   17   18 1    
    22   18   19 2    
    23   18   20 1    
    24   20   21 ar   
    25   20   28 ar   
    26   21   22 1    
    27   21   25 ar   
    28   22   23 1    
    29   23   24 1    
    30   24   25 1    
    31   25   26 ar   
    32   26   27 ar   
    33   27   28 ar   
@<TRIPOS>SUBSTRUCTURE
     1 J94601      1 GROUP   
@<TRIPOS>SET

