#    Name: 5obh_4_J94_CAVITY_N1_4
#    Modification time : Fri May 22 19:16:23 2020

@<TRIPOS>MOLECULE
5obh_4_J94_CAVITY_N1_4
  125     0     7     0     0
SMALL
NO_CHARGES


@<TRIPOS>ATOM
      1 OG         50.5300   -0.9000    5.2200 O.3       1 SER1        0.0000 
      2 OG         51.1900   -0.3000    4.0200 O.3       1 SER1        0.0000 
      3 OG         50.6600   -0.5800    7.3200 O.3       1 SER1        0.0000 
      4 OG         49.5500    0.4300    7.2300 O.3       1 SER1        0.0000 
      5 OG         49.1000    2.0500    5.9300 O.3       1 SER1        0.0000 
      6 OG         48.0000    3.0600    5.8300 O.3       1 SER1        0.0000 
      7 OG         46.2400    3.4700    6.9500 O.3       1 SER1        0.0000 
      8 OG         50.3300    1.3600    8.1100 O.3       1 SER1        0.0000 
      9 N          50.7400    1.3200    2.7200 N.am      2 ALA2        0.0000 
     10 N          51.3900    1.9200    1.5100 N.am      2 ALA2        0.0000 
     11 N          53.2700    1.8400    2.4900 N.am      2 ALA2        0.0000 
     12 N          51.5200    2.2500    3.6000 N.am      2 ALA2        0.0000 
     13 N          50.4100    3.2600    3.5100 N.am      2 ALA2        0.0000 
     14 N          49.3100    4.2700    3.4200 N.am      2 ALA2        0.0000 
     15 N          55.8100    2.3600    2.2600 N.am      2 ALA2        0.0000 
     16 N          54.0500    2.7700    3.3800 N.am      2 ALA2        0.0000 
     17 N          52.2900    3.1700    4.4900 N.am      2 ALA2        0.0000 
     18 N          52.9500    3.7800    3.2800 N.am      2 ALA2        0.0000 
     19 N          51.1900    4.1900    4.4000 N.am      2 ALA2        0.0000 
     20 N          50.0800    5.2000    4.3100 N.am      2 ALA2        0.0000 
     21 N          54.8300    3.6900    4.2600 N.am      2 ALA2        0.0000 
     22 N          53.7200    4.7100    4.1700 N.am      2 ALA2        0.0000 
     23 O          56.2600    5.2300    3.9400 O.2       2 ALA2        0.0000 
     24 N          56.1800    3.3300    8.5400 N.am      2 ALA2        0.0000 
     25 N          54.4200    3.7400    9.6500 N.am      2 ALA2        0.0000 
     26 N          55.0700    4.3400    8.4500 N.am      2 ALA2        0.0000 
     27 N          55.7300    4.9500    7.2400 N.am      2 ALA2        0.0000 
     28 OD1        50.9800   -2.5200    6.5200 O.co2     3 ASP3        0.0000 
     29 OD1        58.7900    1.2600    3.3300 O.co2     3 ASP3        0.0000 
     30 OD1        57.0300    1.6700    4.4500 O.co2     3 ASP3        0.0000 
     31 OD1        55.9300    2.6800    4.3500 O.co2     3 ASP3        0.0000 
     32 OD1        56.5900    3.2900    3.1500 O.co2     3 ASP3        0.0000 
     33 OD1        59.5700    2.1900    4.2200 O.co2     3 ASP3        0.0000 
     34 OD1        57.8100    2.6000    5.3300 O.co2     3 ASP3        0.0000 
     35 OD1        56.7100    3.6100    5.2400 O.co2     3 ASP3        0.0000 
     36 OD1        57.3600    4.2200    4.0300 O.co2     3 ASP3        0.0000 
     37 OD1        61.0000    3.7200    3.9000 O.co2     3 ASP3        0.0000 
     38 NZ         46.8900    4.0700    5.7400 N.4       4 LYS4        0.0000 
     39 NZ         47.5500    4.6800    4.5400 N.4       4 LYS4        0.0000 
     40 NZ         45.7900    5.0800    5.6500 N.4       4 LYS4        0.0000 
     41 NZ         49.4300    4.5900    5.5100 N.4       4 LYS4        0.0000 
     42 NZ         47.6700    5.0000    6.6300 N.4       4 LYS4        0.0000 
     43 NZ         46.5700    6.0100    6.5400 N.4       4 LYS4        0.0000 
     44 NZ         60.6700    1.1800    4.3100 N.4       4 LYS4        0.0000 
     45 NZ         61.4500    2.1100    5.2000 N.4       4 LYS4        0.0000 
     46 NZ         59.6900    2.5200    6.3100 N.4       4 LYS4        0.0000 
     47 NZ         60.3500    3.1200    5.1000 N.4       4 LYS4        0.0000 
     48 NZ         58.5900    3.5300    6.2200 N.4       4 LYS4        0.0000 
     49 NZ         59.2400    4.1300    5.0100 N.4       4 LYS4        0.0000 
     50 CZ         49.8800   -1.5100    6.4300 C.ar      5 PHE5        0.0000 
     51 CZ         49.4300    0.1100    5.1300 C.ar      5 PHE5        0.0000 
     52 CZ         48.3300    1.1200    5.0400 C.ar      5 PHE5        0.0000 
     53 CZ         48.9800    1.7200    3.8300 C.ar      5 PHE5        0.0000 
     54 CZ         49.6300    2.3300    2.6300 C.ar      5 PHE5        0.0000 
     55 CZ         51.1000   -2.2000    8.6200 C.ar      5 PHE5        0.0000 
     56 CZ         50.0000   -1.1800    8.5200 C.ar      5 PHE5        0.0000 
     57 CZ         50.2100    1.0400    6.0200 C.ar      5 PHE5        0.0000 
     58 CZ         48.6500    3.6600    4.6300 C.ar      5 PHE5        0.0000 
     59 CZ         51.5500    0.6700   10.3000 C.ar      5 PHE5        0.0000 
     60 CZ         51.3100    4.5100    6.4900 C.ar      5 PHE5        0.0000 
     61 CZ         51.9600    5.1100    5.2900 C.ar      5 PHE5        0.0000 
     62 CZ         50.2100    5.5200    6.4000 C.ar      5 PHE5        0.0000 
     63 CZ         50.8600    6.1200    5.1900 C.ar      5 PHE5        0.0000 
     64 CZ         51.8800    3.2200    9.8800 C.ar      5 PHE5        0.0000 
     65 CZ         52.5400    3.8200    8.6800 C.ar      5 PHE5        0.0000 
     66 CZ         53.1900    4.4300    7.4700 C.ar      5 PHE5        0.0000 
     67 CZ         53.8500    5.0300    6.2600 C.ar      5 PHE5        0.0000 
     68 CZ         52.7400    6.0400    6.1700 C.ar      5 PHE5        0.0000 
     69 CA         51.6400   -1.9100    5.3200 C.3       6 GLY6        0.0000 
     70 CA         51.8400    0.3100    2.8100 C.3       6 GLY6        0.0000 
     71 CA         52.5000    0.9100    1.6000 C.3       6 GLY6        0.0000 
     72 CA         50.0800    0.7100    3.9300 C.3       6 GLY6        0.0000 
     73 CA         55.4800   -0.1900    2.6700 C.3       6 GLY6        0.0000 
     74 CA         52.4100   -0.9900    6.2000 C.3       6 GLY6        0.0000 
     75 CA         53.0700   -0.3800    5.0000 C.3       6 GLY6        0.0000 
     76 CA         53.7200    0.2200    3.7900 C.3       6 GLY6        0.0000 
     77 CA         54.3800    0.8300    2.5800 C.3       6 GLY6        0.0000 
     78 CA         55.0300    1.4300    1.3800 C.3       6 GLY6        0.0000 
     79 CA         52.6200    1.2300    3.7000 C.3       6 GLY6        0.0000 
     80 CA         53.9300    2.4400    1.2800 C.3       6 GLY6        0.0000 
     81 CA         57.3600   -0.2700    3.6500 C.3       6 GLY6        0.0000 
     82 CA         55.6000    0.1400    4.7700 C.3       6 GLY6        0.0000 
     83 CA         56.2600    0.7400    3.5600 C.3       6 GLY6        0.0000 
     84 CA         56.9100    1.3500    2.3500 C.3       6 GLY6        0.0000 
     85 CA         59.9000    0.2500    3.4200 C.3       6 GLY6        0.0000 
     86 CA         53.4400    0.5900   11.2700 C.3       6 GLY6        0.0000 
     87 CA         54.0900    1.1900   10.0700 C.3       6 GLY6        0.0000 
     88 CA         52.9900    2.2100    9.9800 C.3       6 GLY6        0.0000 
     89 CA         55.6000    4.6200    5.1500 C.3       6 GLY6        0.0000 
     90 CA         54.5000    5.6300    5.0600 C.3       6 GLY6        0.0000 
     91 CA         57.9300    2.9200    7.4300 C.3       6 GLY6        0.0000 
     92 CA         56.8300    3.9300    7.3300 C.3       6 GLY6        0.0000 
     93 CA         57.4800    4.5400    6.1300 C.3       6 GLY6        0.0000 
     94 CA         56.3800    5.5500    6.0300 C.3       6 GLY6        0.0000 
     95 CA         54.6200    5.9600    7.1500 C.3       6 GLY6        0.0000 
     96 CA         55.2800    6.5600    5.9400 C.3       6 GLY6        0.0000 
     97 DU         51.7600   -1.5900    7.4100 H         7 CUB7        0.0000 
     98 DU         51.3100    0.0300    6.1100 H         7 CUB7        0.0000 
     99 DU         51.9600    0.6300    4.9000 H         7 CUB7        0.0000 
    100 DU         50.8600    1.6400    4.8100 H         7 CUB7        0.0000 
    101 DU         49.7600    2.6500    4.7200 H         7 CUB7        0.0000 
    102 DU         54.5000    1.1500    4.6800 H         7 CUB7        0.0000 
    103 DU         55.1500    1.7500    3.4700 H         7 CUB7        0.0000 
    104 DU         50.7800   -0.2600    9.4100 H         7 CUB7        0.0000 
    105 DU         51.4300    0.3500    8.2000 H         7 CUB7        0.0000 
    106 DU         53.4000    2.1600    4.5800 H         7 CUB7        0.0000 
    107 DU         50.9800    1.9600    6.9000 H         7 CUB7        0.0000 
    108 DU         51.6400    2.5700    5.7000 H         7 CUB7        0.0000 
    109 DU         49.8800    2.9800    6.8100 H         7 CUB7        0.0000 
    110 DU         50.5300    3.5800    5.6100 H         7 CUB7        0.0000 
    111 DU         58.1400    0.6600    4.5400 H         7 CUB7        0.0000 
    112 DU         56.3800    1.0700    5.6500 H         7 CUB7        0.0000 
    113 DU         53.3100    0.2700    9.1800 H         7 CUB7        0.0000 
    114 DU         52.2100    1.2800    9.0900 H         7 CUB7        0.0000 
    115 DU         51.1100    2.2900    9.0000 H         7 CUB7        0.0000 
    116 DU         51.7600    2.8900    7.7900 H         7 CUB7        0.0000 
    117 DU         52.4100    3.5000    6.5800 H         7 CUB7        0.0000 
    118 DU         53.0700    4.1000    5.3800 H         7 CUB7        0.0000 
    119 DU         58.9100    1.5900    5.4200 H         7 CUB7        0.0000 
    120 DU         57.1600    2.0000    6.5400 H         7 CUB7        0.0000 
    121 DU         54.7400    1.8000    8.8600 H         7 CUB7        0.0000 
    122 DU         56.0500    3.0100    6.4500 H         7 CUB7        0.0000 
    123 DU         53.6400    2.8100    8.7700 H         7 CUB7        0.0000 
    124 DU         54.2900    3.4100    7.5600 H         7 CUB7        0.0000 
    125 DU         54.9500    4.0200    6.3600 H         7 CUB7        0.0000 
@<TRIPOS>BOND
@<TRIPOS>SUBSTRUCTURE
     1 SER1        1 GROUP   
     2 ALA2        9 GROUP   
     3 ASP3       28 GROUP   
     4 LYS4       38 GROUP   
     5 PHE5       50 GROUP   
     6 GLY6       69 GROUP   
     7 CUB7       97 GROUP   
@<TRIPOS>SET

