#    Name: 6hf0_2_FAD
#    Modification time : Fri May 22 19:37:10 2020

@<TRIPOS>MOLECULE
6hf0_2_FAD
   53    58     1     0     1
SMALL
NO_CHARGES


@<TRIPOS>ATOM
      1 PA        -12.3560  -18.2820   -4.4230 P.3       1 FAD900      0.0000 
      2 O1A       -13.4440  -19.3210   -4.3210 O.co2     1 FAD900      0.0000 
      3 O2A       -10.9090  -18.6510   -4.6740 O.co2     1 FAD900      0.0000 
      4 O5B       -12.7650  -17.1200   -5.4440 O.3       1 FAD900      0.0000 
      5 C5B       -14.1230  -16.6950   -5.4320 C.3       1 FAD900      0.0000 
      6 C4B       -14.2210  -15.3610   -6.1210 C.3       1 FAD900      0.0000 
      7 O4B       -13.5060  -14.3960   -5.3510 O.3       1 FAD900      0.0000 
      8 C3B       -13.5920  -15.3680   -7.5060 C.3       1 FAD900      0.0000 
      9 O3B       -14.3860  -14.5280   -8.3740 O.3       1 FAD900      0.0000 
     10 C2B       -12.2580  -14.7000   -7.2800 C.3       1 FAD900      0.0000 
     11 O2B       -11.8030  -13.9960   -8.4390 O.3       1 FAD900      0.0000 
     12 C1B       -12.6130  -13.6890   -6.2130 C.3       1 FAD900      0.0000 
     13 N9A       -11.3960  -13.2490   -5.4840 N.pl3     1 FAD900      0.0000 
     14 C8A       -10.6910  -13.9960   -4.6070 C.2       1 FAD900      0.0000 
     15 N7A        -9.6510  -13.2660   -4.1540 N.2       1 FAD900      0.0000 
     16 C5A        -9.7090  -12.0560   -4.7470 C.ar      1 FAD900      0.0000 
     17 C6A        -8.9200  -10.9130   -4.6730 C.ar      1 FAD900      0.0000 
     18 N6A        -7.8330  -10.8860   -3.8750 N.pl3     1 FAD900      0.0000 
     19 N1A        -9.2350   -9.8240   -5.4190 N.ar      1 FAD900      0.0000 
     20 C2A       -10.3140   -9.8500   -6.2210 C.ar      1 FAD900      0.0000 
     21 N3A       -11.0880  -10.9410   -6.3090 N.ar      1 FAD900      0.0000 
     22 C4A       -10.8070  -12.0520   -5.5890 C.ar      1 FAD900      0.0000 
     23 N1        -20.9390  -18.2860    0.9840 N.2       1 FAD900      0.0000 
     24 C2        -21.8110  -17.4890    1.6420 C.2       1 FAD900      0.0000 
     25 O2        -22.0240  -16.2370    1.1630 O.2       1 FAD900      0.0000 
     26 N3        -22.4610  -17.8940    2.7640 N.am      1 FAD900      0.0000 
     27 C4        -22.2460  -19.1320    3.2790 C.2       1 FAD900      0.0000 
     28 O4        -22.8670  -19.5800    4.4120 O.2       1 FAD900      0.0000 
     29 C4X       -21.3150  -20.0250    2.5620 C.2       1 FAD900      0.0000 
     30 N5        -21.1050  -21.2690    3.0520 N.2       1 FAD900      0.0000 
     31 C5X       -20.2480  -22.0990    2.4200 C.ar      1 FAD900      0.0000 
     32 C6        -20.0340  -23.3680    2.9340 C.ar      1 FAD900      0.0000 
     33 C7        -19.1580  -24.2210    2.2790 C.ar      1 FAD900      0.0000 
     34 C7M       -18.9290  -25.6040    2.8320 C.3       1 FAD900      0.0000 
     35 C8        -18.4490  -23.7810    1.0480 C.ar      1 FAD900      0.0000 
     36 C8M       -17.5020  -24.7250    0.3540 C.3       1 FAD900      0.0000 
     37 C9        -18.6540  -22.5050    0.5350 C.ar      1 FAD900      0.0000 
     38 C9A       -19.5420  -21.6490    1.1760 C.ar      1 FAD900      0.0000 
     39 N10       -19.7800  -20.3360    0.6950 N.pl3     1 FAD900      0.0000 
     40 C10       -20.6870  -19.5380    1.4130 C.2       1 FAD900      0.0000 
     41 C1'       -19.1320  -19.8060   -0.5130 C.3       1 FAD900      0.0000 
     42 C2'       -17.8440  -19.0700   -0.1770 C.3       1 FAD900      0.0000 
     43 O2'       -18.0140  -18.3500    1.0460 O.3       1 FAD900      0.0000 
     44 C3'       -17.5420  -18.0400   -1.2440 C.3       1 FAD900      0.0000 
     45 O3'       -17.5870  -18.6300   -2.5490 O.3       1 FAD900      0.0000 
     46 C4'       -16.2070  -17.3480   -0.9840 C.3       1 FAD900      0.0000 
     47 O4'       -16.0630  -16.2910   -1.9540 O.3       1 FAD900      0.0000 
     48 C5'       -15.0250  -18.3000   -1.1020 C.3       1 FAD900      0.0000 
     49 O5'       -13.8440  -17.5110   -0.9640 O.3       1 FAD900      0.0000 
     50 P         -12.4310  -17.9890   -1.5610 P.3       1 FAD900      0.0000 
     51 O1P       -11.3350  -17.2960   -0.7720 O.co2     1 FAD900      0.0000 
     52 O2P       -12.4710  -19.4990   -1.6370 O.co2     1 FAD900      0.0000 
     53 O3P       -12.4120  -17.3880   -3.0530 O.3       1 FAD900      0.0000 
@<TRIPOS>BOND
     1    1    2 ar   
     2    1    3 ar   
     3    1    4 1    
     4    1   53 1    
     5    4    5 1    
     6    5    6 1    
     7    6    7 1    
     8    6    8 1    
     9    7   12 1    
    10    8    9 1    
    11    8   10 1    
    12   10   11 1    
    13   10   12 1    
    14   12   13 1    
    15   13   14 1    
    16   13   22 1    
    17   14   15 2    
    18   15   16 1    
    19   16   17 ar   
    20   16   22 ar   
    21   17   18 1    
    22   17   19 ar   
    23   19   20 ar   
    24   20   21 ar   
    25   21   22 ar   
    26   23   24 1    
    27   23   40 2    
    28   24   25 2    
    29   24   26 am   
    30   26   27 am   
    31   27   28 2    
    32   27   29 1    
    33   29   30 2    
    34   29   40 1    
    35   30   31 1    
    36   31   32 ar   
    37   31   38 ar   
    38   32   33 ar   
    39   33   34 1    
    40   33   35 ar   
    41   35   36 1    
    42   35   37 ar   
    43   37   38 ar   
    44   38   39 1    
    45   39   40 1    
    46   39   41 1    
    47   41   42 1    
    48   42   43 1    
    49   42   44 1    
    50   44   45 1    
    51   44   46 1    
    52   46   47 1    
    53   46   48 1    
    54   48   49 1    
    55   49   50 1    
    56   50   51 ar   
    57   50   52 ar   
    58   50   53 1    
@<TRIPOS>SUBSTRUCTURE
     1 FAD900      1 GROUP   
@<TRIPOS>SET
ATOM$ORANGE STATIC     ATOMS   COLORGROUP SYSTEM 
54 5 5 6 6 8 8 10 10 12 12 14 14 16 16 17 17 20 \
20 22 22 24 24 27 27 29 29 31 31 32 32 33 33 34 34 35 \
35 36 36 37 37 38 38 40 40 41 41 42 42 44 44 46 46 48 \
48 

