#    Name: 6hf0_1_FAD
#    Modification time : Fri May 22 19:37:06 2020

@<TRIPOS>MOLECULE
6hf0_1_FAD
   53    58     1     0     1
SMALL
NO_CHARGES


@<TRIPOS>ATOM
      1 PA          3.5720   -6.3280   41.3570 P.3       1 FAD900      0.0000 
      2 O1A         4.4750   -7.3790   41.9740 O.co2     1 FAD900      0.0000 
      3 O2A         2.0980   -6.2600   41.6950 O.co2     1 FAD900      0.0000 
      4 O5B         4.2250   -4.8810   41.5920 O.3       1 FAD900      0.0000 
      5 C5B         5.6380   -4.7630   41.4950 C.3       1 FAD900      0.0000 
      6 C4B         6.0270   -3.2980   41.4350 C.3       1 FAD900      0.0000 
      7 O4B         5.4830   -2.7400   40.2420 O.3       1 FAD900      0.0000 
      8 C3B         5.4550   -2.4790   42.5800 C.3       1 FAD900      0.0000 
      9 O3B         6.4290   -1.4780   42.9220 O.3       1 FAD900      0.0000 
     10 C2B         4.2480   -1.8170   41.9690 C.3       1 FAD900      0.0000 
     11 O2B         3.9470   -0.5810   42.6200 O.3       1 FAD900      0.0000 
     12 C1B         4.7350   -1.5760   40.5510 C.3       1 FAD900      0.0000 
     13 N9A         3.5890   -1.3960   39.6290 N.pl3     1 FAD900      0.0000 
     14 C8A         2.7280   -2.3510   39.2670 C.2       1 FAD900      0.0000 
     15 N7A         1.8200   -1.8080   38.4520 N.2       1 FAD900      0.0000 
     16 C5A         2.1150   -0.5030   38.2960 C.ar      1 FAD900      0.0000 
     17 C6A         1.5430    0.5340   37.5560 C.ar      1 FAD900      0.0000 
     18 N6A         0.4390    0.3020   36.8160 N.pl3     1 FAD900      0.0000 
     19 N1A         2.0930    1.7730   37.6080 N.ar      1 FAD900      0.0000 
     20 C2A         3.1890    1.9950   38.3610 C.ar      1 FAD900      0.0000 
     21 N3A         3.7540    1.0030   39.0560 N.ar      1 FAD900      0.0000 
     22 C4A         3.2370   -0.2500   39.0440 C.ar      1 FAD900      0.0000 
     23 N1         11.8330  -10.6270   37.4080 N.2       1 FAD900      0.0000 
     24 C2         12.8040  -10.4670   36.4850 C.2       1 FAD900      0.0000 
     25 O2         13.2520   -9.2100   36.2650 O.2       1 FAD900      0.0000 
     26 N3         13.3280  -11.5110   35.7810 N.am      1 FAD900      0.0000 
     27 C4         12.8880  -12.7670   36.0100 C.2       1 FAD900      0.0000 
     28 O4         13.3750  -13.8520   35.3640 O.2       1 FAD900      0.0000 
     29 C4X        11.8360  -12.9650   37.0150 C.2       1 FAD900      0.0000 
     30 N5         11.3890  -14.2120   37.2440 N.2       1 FAD900      0.0000 
     31 C5X        10.4190  -14.4290   38.1570 C.ar      1 FAD900      0.0000 
     32 C6          9.9630  -15.7220   38.3780 C.ar      1 FAD900      0.0000 
     33 C7          8.9670  -15.9450   39.3090 C.ar      1 FAD900      0.0000 
     34 C7M         8.4570  -17.3310   39.5590 C.3       1 FAD900      0.0000 
     35 C8          8.3930  -14.8110   40.0600 C.ar      1 FAD900      0.0000 
     36 C8M         7.3170  -15.0930   41.0680 C.3       1 FAD900      0.0000 
     37 C9          8.8450  -13.5080   39.8450 C.ar      1 FAD900      0.0000 
     38 C9A         9.8460  -13.2830   38.9120 C.ar      1 FAD900      0.0000 
     39 N10        10.3410  -11.9920   38.6520 N.pl3     1 FAD900      0.0000 
     40 C10        11.3480  -11.8550   37.6880 C.2       1 FAD900      0.0000 
     41 C1'         9.8460  -10.7890   39.3370 C.3       1 FAD900      0.0000 
     42 C2'         8.7120  -10.1170   38.5780 C.3       1 FAD900      0.0000 
     43 O2'         8.9480  -10.1880   37.1670 O.3       1 FAD900      0.0000 
     44 C3'         8.6530   -8.6510   38.9400 C.3       1 FAD900      0.0000 
     45 O3'         8.6130   -8.4860   40.3560 O.3       1 FAD900      0.0000 
     46 C4'         7.4540   -7.9850   38.2880 C.3       1 FAD900      0.0000 
     47 O4'         7.5730   -6.5790   38.5160 O.3       1 FAD900      0.0000 
     48 C5'         6.1110   -8.4930   38.8190 C.3       1 FAD900      0.0000 
     49 O5'         5.0530   -7.7970   38.1550 O.3       1 FAD900      0.0000 
     50 P           3.5980   -7.6270   38.8050 P.3       1 FAD900      0.0000 
     51 O1P         2.6430   -7.2250   37.7030 O.co2     1 FAD900      0.0000 
     52 O2P         3.3200   -8.8630   39.6230 O.co2     1 FAD900      0.0000 
     53 O3P         3.7450   -6.3450   39.7520 O.3       1 FAD900      0.0000 
@<TRIPOS>BOND
     1    1    2 ar   
     2    1    3 ar   
     3    1    4 1    
     4    1   53 1    
     5    4    5 1    
     6    5    6 1    
     7    6    7 1    
     8    6    8 1    
     9    7   12 1    
    10    8    9 1    
    11    8   10 1    
    12   10   11 1    
    13   10   12 1    
    14   12   13 1    
    15   13   14 1    
    16   13   22 1    
    17   14   15 2    
    18   15   16 1    
    19   16   17 ar   
    20   16   22 ar   
    21   17   18 1    
    22   17   19 ar   
    23   19   20 ar   
    24   20   21 ar   
    25   21   22 ar   
    26   23   24 1    
    27   23   40 2    
    28   24   25 2    
    29   24   26 am   
    30   26   27 am   
    31   27   28 2    
    32   27   29 1    
    33   29   30 2    
    34   29   40 1    
    35   30   31 1    
    36   31   32 ar   
    37   31   38 ar   
    38   32   33 ar   
    39   33   34 1    
    40   33   35 ar   
    41   35   36 1    
    42   35   37 ar   
    43   37   38 ar   
    44   38   39 1    
    45   39   40 1    
    46   39   41 1    
    47   41   42 1    
    48   42   43 1    
    49   42   44 1    
    50   44   45 1    
    51   44   46 1    
    52   46   47 1    
    53   46   48 1    
    54   48   49 1    
    55   49   50 1    
    56   50   51 ar   
    57   50   52 ar   
    58   50   53 1    
@<TRIPOS>SUBSTRUCTURE
     1 FAD900      1 GROUP   
@<TRIPOS>SET
ATOM$ORANGE STATIC     ATOMS   COLORGROUP SYSTEM 
54 5 5 6 6 8 8 10 10 12 12 14 14 16 16 17 17 20 \
20 22 22 24 24 27 27 29 29 31 31 32 32 33 33 34 34 35 \
35 36 36 37 37 38 38 40 40 41 41 42 42 44 44 46 46 48 \
48 

