#    Name: 6itq_3_HCY
#    Modification time : Fri May 22 19:27:51 2020

@<TRIPOS>MOLECULE
6itq_3_HCY
   26    29     1     0     0
SMALL
NO_CHARGES


@<TRIPOS>ATOM
      1 C1         34.3410   31.7640    9.4910 C.3       1 HCY201      0.0000 
      2 C2         35.7720   31.4760    8.8960 C.3       1 HCY201      0.0000 
      3 C3         36.8390   31.3700   10.0120 C.2       1 HCY201      0.0000 
      4 C4         36.4350   30.7170   11.3400 C.2       1 HCY201      0.0000 
      5 C5         35.0040   30.2270   11.4370 C.2       1 HCY201      0.0000 
      6 C6         34.5120   29.2110   12.5580 C.3       1 HCY201      0.0000 
      7 C7         33.3150   29.8610   13.4020 C.3       1 HCY201      0.0000 
      8 C8         32.1740   30.3780   12.5380 C.3       1 HCY201      0.0000 
      9 C9         32.7400   31.3740   11.3590 C.3       1 HCY201      0.0000 
     10 C10        33.8640   30.7340   10.4940 C.3       1 HCY201      0.0000 
     11 C12        30.5250   32.7490   11.5500 C.3       1 HCY201      0.0000 
     12 C11        31.6560   32.0170   10.5590 C.3       1 HCY201      0.0000 
     13 C13        30.0580   31.8730   12.6860 C.3       1 HCY201      0.0000 
     14 C14        31.1950   31.1210   13.4230 C.3       1 HCY201      0.0000 
     15 C15        30.4760   30.3930   14.6740 C.3       1 HCY201      0.0000 
     16 C16        29.2550   31.3200   15.0890 C.3       1 HCY201      0.0000 
     17 C17        29.2780   32.5710   13.9700 C.3       1 HCY201      0.0000 
     18 C18        29.1250   30.7660   12.0870 C.3       1 HCY201      0.0000 
     19 C19        33.3740   29.5050    9.7090 C.3       1 HCY201      0.0000 
     20 C20        28.0590   33.0450   13.6620 C.2       1 HCY201      0.0000 
     21 C21        27.9190   34.5370   13.2600 C.3       1 HCY201      0.0000 
     22 O1         37.9580   31.7700    9.8710 O.2       1 HCY201      0.0000 
     23 O2         30.9930   31.1540    9.7330 O.3       1 HCY201      0.0000 
     24 O3         30.1320   33.6260   14.4590 O.3       1 HCY201      0.0000 
     25 O4         27.0930   32.3630   13.7120 O.2       1 HCY201      0.0000 
     26 O5         26.7260   34.7430   12.5400 O.3       1 HCY201      0.0000 
@<TRIPOS>BOND
     1    1    2 1    
     2    1   10 1    
     3    2    3 1    
     4    3    4 1    
     5    3   22 2    
     6    4    5 2    
     7    5    6 1    
     8    5   10 1    
     9    6    7 1    
    10    7    8 1    
    11    8    9 1    
    12    8   14 1    
    13    9   10 1    
    14    9   12 1    
    15   10   19 1    
    16   11   12 1    
    17   11   13 1    
    18   12   23 1    
    19   13   14 1    
    20   13   17 1    
    21   13   18 1    
    22   14   15 1    
    23   15   16 1    
    24   16   17 1    
    25   17   20 1    
    26   17   24 1    
    27   20   21 1    
    28   20   25 2    
    29   21   26 1    
@<TRIPOS>SUBSTRUCTURE
     1 HCY201      1 GROUP   
@<TRIPOS>SET

