#    Name: 6itq_3_HCY_CAVITY_N1_12
#    Modification time : Fri May 22 19:27:53 2020

@<TRIPOS>MOLECULE
6itq_3_HCY_CAVITY_N1_12
   69     0     5     0     0
SMALL
NO_CHARGES


@<TRIPOS>ATOM
      1 OG         31.2100   32.2700   13.6100 O.3       1 SER1        0.0000 
      2 OG         32.3700   31.3400   13.4400 O.3       1 SER1        0.0000 
      3 OG         32.8400   32.1400   12.2700 O.3       1 SER1        0.0000 
      4 O          26.4200   31.5500   11.2200 O.2       2 ALA2        0.0000 
      5 N          27.9300   30.6800   13.1400 N.am      2 ALA2        0.0000 
      6 N          29.0900   29.7500   12.9700 N.am      2 ALA2        0.0000 
      7 O          30.7300   29.6100   11.6200 O.2       2 ALA2        0.0000 
      8 N          28.8700   32.2800   10.7800 N.am      2 ALA2        0.0000 
      9 N          30.0300   31.3500   10.6100 N.am      2 ALA2        0.0000 
     10 N          31.6700   31.2100    9.2600 N.am      2 ALA2        0.0000 
     11 O          32.8300   30.2800    9.0900 O.2       2 ALA2        0.0000 
     12 N          29.4500   29.8100   15.0600 N.am      2 ALA2        0.0000 
     13 N          29.9200   30.6100   13.8800 N.am      2 ALA2        0.0000 
     14 N          29.6900   33.1400   11.6900 N.am      2 ALA2        0.0000 
     15 N          30.8600   32.2100   11.5200 N.am      2 ALA2        0.0000 
     16 N          32.0200   31.2700   11.3500 N.am      2 ALA2        0.0000 
     17 N          32.4900   32.0700   10.1800 N.am      2 ALA2        0.0000 
     18 N          34.8200   30.2100    9.8400 N.am      2 ALA2        0.0000 
     19 N          35.9800   29.2800    9.6700 N.am      2 ALA2        0.0000 
     20 N          34.1200   31.9400    8.8300 N.am      2 ALA2        0.0000 
     21 N          35.2900   31.0100    8.6600 N.am      2 ALA2        0.0000 
     22 N          29.1100   31.6000   16.1400 N.am      2 ALA2        0.0000 
     23 N          30.5200   34.0000   12.6000 N.am      2 ALA2        0.0000 
     24 N          31.6800   33.0700   12.4400 N.am      2 ALA2        0.0000 
     25 N          36.1100   31.8700    9.5700 N.am      2 ALA2        0.0000 
     26 CZ         30.2600   28.8100   12.8000 C.ar      3 PHE5        0.0000 
     27 CZ         31.8900   28.6800   11.4500 C.ar      3 PHE5        0.0000 
     28 CZ         31.0800   29.6700   13.7100 C.ar      3 PHE5        0.0000 
     29 CZ         32.7100   29.5400   12.3600 C.ar      3 PHE5        0.0000 
     30 CZ         33.8800   28.6100   12.1900 C.ar      3 PHE5        0.0000 
     31 CZ         34.7000   29.4700   13.1100 C.ar      3 PHE5        0.0000 
     32 CA         27.5800   30.6200   11.0500 C.3       4 GLY6        0.0000 
     33 CA         25.6100   32.5400   13.4800 C.3       4 GLY6        0.0000 
     34 CA         26.7700   31.6100   13.3100 C.3       4 GLY6        0.0000 
     35 CA         28.4000   31.4800   11.9600 C.3       4 GLY6        0.0000 
     36 CA         29.5600   30.5500   11.7900 C.3       4 GLY6        0.0000 
     37 CA         31.2000   30.4100   10.4400 C.3       4 GLY6        0.0000 
     38 CA         33.5200   28.5500   10.1000 C.3       4 GLY6        0.0000 
     39 CA         33.9900   29.3500    8.9200 C.3       4 GLY6        0.0000 
     40 CA         28.2800   30.7400   15.2300 C.3       4 GLY6        0.0000 
     41 CA         26.4300   33.4000   14.3900 C.3       4 GLY6        0.0000 
     42 CA         27.5900   32.4700   14.2200 C.3       4 GLY6        0.0000 
     43 CA         28.7500   31.5400   14.0500 C.3       4 GLY6        0.0000 
     44 CA         35.5100   28.4800   10.8500 C.3       4 GLY6        0.0000 
     45 CA         31.3300   33.0100   10.3400 C.3       4 GLY6        0.0000 
     46 CA         30.2700   30.6700   15.9700 C.3       4 GLY6        0.0000 
     47 CA         31.9000   30.5400   14.6200 C.3       4 GLY6        0.0000 
     48 CA         33.0700   29.6000   14.4500 C.3       4 GLY6        0.0000 
     49 CA         33.5400   30.4000   13.2800 C.3       4 GLY6        0.0000 
     50 CA         34.0100   31.2000   12.1000 C.3       4 GLY6        0.0000 
     51 CA         35.1700   30.2700   11.9300 C.3       4 GLY6        0.0000 
     52 CA         34.4800   32.0000   10.9200 C.3       4 GLY6        0.0000 
     53 CA         35.6400   31.0700   10.7500 C.3       4 GLY6        0.0000 
     54 CA         36.8000   30.1400   10.5800 C.3       4 GLY6        0.0000 
     55 CA         37.2700   30.9400    9.4000 C.3       4 GLY6        0.0000 
     56 CA         36.4600   31.9300   11.6600 C.3       4 GLY6        0.0000 
     57 DU         26.0800   33.3400   12.3000 H         5 CUB7        0.0000 
     58 DU         27.2400   32.4100   12.1300 H         5 CUB7        0.0000 
     59 DU         32.3600   29.4800   10.2700 H         5 CUB7        0.0000 
     60 DU         28.0600   33.2700   13.0400 H         5 CUB7        0.0000 
     61 DU         29.2200   32.3400   12.8700 H         5 CUB7        0.0000 
     62 DU         30.3900   31.4100   12.7000 H         5 CUB7        0.0000 
     63 DU         31.5500   30.4700   12.5300 H         5 CUB7        0.0000 
     64 DU         33.1800   30.3400   11.1800 H         5 CUB7        0.0000 
     65 DU         34.3500   29.4100   11.0200 H         5 CUB7        0.0000 
     66 DU         33.6500   31.1400   10.0100 H         5 CUB7        0.0000 
     67 DU         29.5800   32.4000   14.9600 H         5 CUB7        0.0000 
     68 DU         30.7400   31.4700   14.7900 H         5 CUB7        0.0000 
     69 DU         30.0500   33.2000   13.7800 H         5 CUB7        0.0000 
@<TRIPOS>BOND
@<TRIPOS>SUBSTRUCTURE
     1 SER1        1 GROUP   
     2 ALA2        4 GROUP   
     3 PHE5       26 GROUP   
     4 GLY6       32 GROUP   
     5 CUB7       57 GROUP   
@<TRIPOS>SET

