#    Name: 6u9w_3_GDP
#    Modification time : Fri May 22 19:26:56 2020

@<TRIPOS>MOLECULE
6u9w_3_GDP
   39    41     1     0     1
SMALL
NO_CHARGES


@<TRIPOS>ATOM
      1 PB        199.1050  163.7150  121.8070 P.3       1 GDP703      0.0000 
      2 O1B       199.7990  164.5760  120.7810 O.co2     1 GDP703      0.0000 
      3 O2B       198.8610  164.5270  123.0550 O.co2     1 GDP703      0.0000 
      4 O3B       199.9790  162.5310  122.1370 O.co2     1 GDP703      0.0000 
      5 O3A       197.6700  163.1810  121.1980 O.3       1 GDP703      0.0000 
      6 PA        196.8200  161.9250  121.8380 P.3       1 GDP703      0.0000 
      7 O1A       196.1440  161.1590  120.7290 O.co2     1 GDP703      0.0000 
      8 O2A       197.7560  161.0070  122.5830 O.co2     1 GDP703      0.0000 
      9 O5'       195.6720  162.4990  122.8670 O.3       1 GDP703      0.0000 
     10 C5'       196.0580  162.8590  124.1570 C.3       1 GDP703      0.0000 
     11 C4'       195.0200  163.7970  124.7370 C.3       1 GDP703      0.0000 
     12 O4'       193.5510  163.1600  124.5180 O.3       1 GDP703      0.0000 
     13 C3'       195.1880  163.9430  126.0210 C.3       1 GDP703      0.0000 
     14 O3'       194.7460  165.3070  126.4340 O.3       1 GDP703      0.0000 
     15 C2'       194.2760  162.8910  126.6660 C.3       1 GDP703      0.0000 
     16 O2'       193.8350  163.3270  127.8700 O.3       1 GDP703      0.0000 
     17 C1'       193.0990  162.7710  125.6790 C.3       1 GDP703      0.0000 
     18 N9        192.6020  161.3830  125.5950 N.pl3     1 GDP703      0.0000 
     19 C8        193.3820  160.6430  124.7900 C.2       1 GDP703      0.0000 
     20 N7        192.8580  159.4020  124.7710 N.2       1 GDP703      0.0000 
     21 C5        191.7750  159.3950  125.5430 C.2       1 GDP703      0.0000 
     22 C6        190.7810  158.2910  125.9020 C.2       1 GDP703      0.0000 
     23 O6        190.9190  157.2040  125.4520 O.2       1 GDP703      0.0000 
     24 N1        189.6890  158.5780  126.7760 N.am      1 GDP703      0.0000 
     25 C2        189.5320  159.9020  127.3150 C.2       1 GDP703      0.0000 
     26 N2        188.4310  160.2060  128.2020 N.pl3     1 GDP703      0.0000 
     27 N3        190.4810  160.9500  126.9720 N.2       1 GDP703      0.0000 
     28 C4        191.6140  160.6410  126.0610 C.2       1 GDP703      0.0000 
     29 H5'       196.9270  163.2900  124.1390 H         1 GDP703      0.0000 
     30 H5''      196.1450  162.0690  124.7140 H         1 GDP703      0.0000 
     31 H4'       195.1100  164.6550  124.2930 H         1 GDP703      0.0000 
     32 H3'       196.1160  163.8370  126.2830 H         1 GDP703      0.0000 
     33 HO3'      194.2290  165.2470  127.0930 H         1 GDP703      0.0000 
     34 H2'       194.7260  162.0460  126.8220 H         1 GDP703      0.0000 
     35 H1'       192.3520  163.3150  125.9740 H         1 GDP703      0.0000 
     36 H8        194.1710  160.9440  124.3140 H         1 GDP703      0.0000 
     37 HN1       189.1260  157.9600  126.9800 H         1 GDP703      0.0000 
     38 HN21      187.8650  159.5930  128.4100 H         1 GDP703      0.0000 
     39 HN22      188.3420  161.0000  128.5210 H         1 GDP703      0.0000 
@<TRIPOS>BOND
     1    1    2 ar   
     2    1    3 ar   
     3    1    4 ar   
     4    1    5 1    
     5    5    6 1    
     6    6    7 ar   
     7    6    8 ar   
     8    6    9 1    
     9    9   10 1    
    10   10   11 1    
    11   10   29 1    
    12   10   30 1    
    13   11   12 1    
    14   11   13 1    
    15   11   31 1    
    16   13   32 1    
    17   12   17 1    
    18   13   14 1    
    19   13   15 1    
    20   15   16 1    
    21   14   33 1    
    22   15   17 1    
    23   15   34 1    
    24   17   18 1    
    25   17   35 1    
    26   18   19 1    
    27   18   28 1    
    28   19   20 2    
    29   19   36 1    
    30   20   21 1    
    31   21   22 1    
    32   21   28 2    
    33   22   23 2    
    34   22   24 am   
    35   24   25 1    
    36   25   26 1    
    37   24   37 1    
    38   25   27 2    
    39   27   28 1    
    40   26   38 1    
    41   26   39 1    
@<TRIPOS>SUBSTRUCTURE
     1 GDP703      1 GROUP   
@<TRIPOS>SET
ATOM$ORANGE STATIC     ATOMS   COLORGROUP SYSTEM 
20 10 10 11 11 13 13 15 15 17 17 19 19 21 21 22 22 25 \
25 28 28 

