#    Name: 6u9w_2_ATP
#    Modification time : Fri May 22 19:26:52 2020

@<TRIPOS>MOLECULE
6u9w_2_ATP
   43    45     1     0     1
SMALL
NO_CHARGES


@<TRIPOS>ATOM
      1 PG        173.6580  150.0830  228.7790 P.3       1 ATP715      0.0000 
      2 O1G       174.8950  149.2110  229.0370 O.co2     1 ATP715      0.0000 
      3 O2G       174.0170  151.5330  228.9890 O.co2     1 ATP715      0.0000 
      4 O3G       172.5530  149.6910  229.7320 O.co2     1 ATP715      0.0000 
      5 PB        171.6600  149.2880  226.8520 P.3       1 ATP715      0.0000 
      6 O1B       170.6240  150.3860  227.0250 O.co2     1 ATP715      0.0000 
      7 O2B       171.3280  148.1460  227.7590 O.co2     1 ATP715      0.0000 
      8 O3B       173.1420  149.8620  227.2310 O.3       1 ATP715      0.0000 
      9 PA        172.2560  149.6720  224.0190 P.3       1 ATP715      0.0000 
     10 O1A       171.4890  149.3470  222.7540 O.co2     1 ATP715      0.0000 
     11 O2A       172.0750  151.1550  224.3320 O.co2     1 ATP715      0.0000 
     12 O3A       171.6660  148.7630  225.2780 O.3       1 ATP715      0.0000 
     13 O5'       173.9140  149.3210  223.8030 O.3       1 ATP715      0.0000 
     14 C5'       174.2310  148.1470  223.0100 C.3       1 ATP715      0.0000 
     15 C4'       175.1900  147.3060  223.6040 C.3       1 ATP715      0.0000 
     16 O4'       176.5800  147.7600  223.2460 O.3       1 ATP715      0.0000 
     17 C3'       175.1380  147.3260  225.2040 C.3       1 ATP715      0.0000 
     18 O3'       175.4940  145.9680  225.7350 O.3       1 ATP715      0.0000 
     19 C2'       176.0030  148.1540  225.5600 C.3       1 ATP715      0.0000 
     20 O2'       176.6670  147.6680  226.7930 O.3       1 ATP715      0.0000 
     21 C1'       177.1190  148.2610  224.3380 C.3       1 ATP715      0.0000 
     22 N9        177.4520  149.6120  224.0730 N.pl3     1 ATP715      0.0000 
     23 C8        176.7890  150.7440  223.8820 C.2       1 ATP715      0.0000 
     24 N7        177.6920  151.7050  223.6550 N.2       1 ATP715      0.0000 
     25 C5        178.9070  151.1480  223.6960 C.ar      1 ATP715      0.0000 
     26 C6        180.1540  151.7060  223.5310 C.ar      1 ATP715      0.0000 
     27 N6        180.7970  152.9550  223.2630 N.pl3     1 ATP715      0.0000 
     28 N1        181.2380  150.9610  223.6180 N.ar      1 ATP715      0.0000 
     29 C2        181.1230  149.6380  223.8740 C.ar      1 ATP715      0.0000 
     30 N3        179.9020  149.0890  224.0400 N.ar      1 ATP715      0.0000 
     31 C4        178.7830  149.8440  223.9530 C.ar      1 ATP715      0.0000 
     32 H5'1      174.5550  148.4310  222.1410 H         1 ATP715      0.0000 
     33 H5'2      173.4180  147.6400  222.8570 H         1 ATP715      0.0000 
     34 H4'       174.9860  146.4170  223.2730 H         1 ATP715      0.0000 
     35 H3'       174.2560  147.5590  225.5340 H         1 ATP715      0.0000 
     36 HO3'      176.1030  145.6330  225.2640 H         1 ATP715      0.0000 
     37 H2'       175.6030  149.0190  225.7380 H         1 ATP715      0.0000 
     38 HO2'      176.7510  146.8330  226.7560 H         1 ATP715      0.0000 
     39 H1'       177.9190  147.7800  224.6020 H         1 ATP715      0.0000 
     40 H8        175.8260  150.8550  223.9030 H         1 ATP715      0.0000 
     41 HN61      180.3260  153.6660  223.1500 H         1 ATP715      0.0000 
     42 HN62      181.6550  152.9950  223.2150 H         1 ATP715      0.0000 
     43 H2        181.9170  149.0850  223.9380 H         1 ATP715      0.0000 
@<TRIPOS>BOND
     1    1    2 ar   
     2    1    3 ar   
     3    1    4 ar   
     4    1    8 1    
     5    5    6 ar   
     6    5    7 ar   
     7    5    8 1    
     8    5   12 1    
     9    9   10 ar   
    10    9   11 ar   
    11    9   12 1    
    12    9   13 1    
    13   13   14 1    
    14   14   15 1    
    15   14   32 1    
    16   14   33 1    
    17   15   16 1    
    18   15   17 1    
    19   15   34 1    
    20   16   21 1    
    21   17   18 1    
    22   17   19 1    
    23   17   35 1    
    24   19   37 1    
    25   19   20 1    
    26   18   36 1    
    27   19   21 1    
    28   21   22 1    
    29   20   38 1    
    30   21   39 1    
    31   22   23 1    
    32   22   31 1    
    33   23   24 2    
    34   23   40 1    
    35   24   25 1    
    36   25   26 ar   
    37   25   31 ar   
    38   26   27 1    
    39   26   28 ar   
    40   28   29 ar   
    41   27   41 1    
    42   27   42 1    
    43   29   30 ar   
    44   29   43 1    
    45   30   31 ar   
@<TRIPOS>SUBSTRUCTURE
     1 ATP715      1 GROUP   
@<TRIPOS>SET
ATOM$ORANGE STATIC     ATOMS   COLORGROUP SYSTEM 
20 14 14 15 15 17 17 19 19 21 21 23 23 25 25 26 26 29 \
29 31 31 

