#    Name: 6u9w_4_ATP
#    Modification time : Fri May 22 19:27:04 2020

@<TRIPOS>MOLECULE
6u9w_4_ATP
   43    45     1     0     1
SMALL
NO_CHARGES


@<TRIPOS>ATOM
      1 PG        151.8530  179.5570  228.7630 P.3       1 ATP715      0.0000 
      2 O1G       150.5900  178.7040  228.9520 O.co2     1 ATP715      0.0000 
      3 O2G       153.0740  178.7050  229.0100 O.co2     1 ATP715      0.0000 
      4 O3G       151.8350  180.7100  229.7380 O.co2     1 ATP715      0.0000 
      5 PB        151.9430  181.7460  226.8910 P.3       1 ATP715      0.0000 
      6 O1B       153.3520  182.2700  227.1110 O.co2     1 ATP715      0.0000 
      7 O2B       150.9930  182.4690  227.7930 O.co2     1 ATP715      0.0000 
      8 O3B       151.8930  180.1500  227.2280 O.3       1 ATP715      0.0000 
      9 PA        152.0610  181.0540  224.0580 P.3       1 ATP715      0.0000 
     10 O1A       152.1910  181.9100  222.8150 O.co2     1 ATP715      0.0000 
     11 O2A       153.4360  180.4990  224.4210 O.co2     1 ATP715      0.0000 
     12 O3A       151.4960  181.9850  225.3110 O.3       1 ATP715      0.0000 
     13 O5'       150.9670  179.7760  223.7690 O.3       1 ATP715      0.0000 
     14 C5'       149.7970  180.1070  222.9770 C.3       1 ATP715      0.0000 
     15 C4'       148.5860  179.6910  223.5600 C.3       1 ATP715      0.0000 
     16 O4'       148.2920  178.2670  223.1730 O.3       1 ATP715      0.0000 
     17 C3'       148.6210  179.6970  225.1620 C.3       1 ATP715      0.0000 
     18 O3'       147.2640  180.0570  225.6880 O.3       1 ATP715      0.0000 
     19 C2'       148.9000  178.5260  225.4960 C.3       1 ATP715      0.0000 
     20 O2'       148.1570  178.1780  226.7320 O.3       1 ATP715      0.0000 
     21 C1'       148.4070  177.5360  224.2620 C.3       1 ATP715      0.0000 
     22 N9        149.3750  176.5350  224.0070 N.pl3     1 ATP715      0.0000 
     23 C8        150.6830  176.5000  223.7960 C.2       1 ATP715      0.0000 
     24 N7        151.0230  175.2220  223.5990 N.2       1 ATP715      0.0000 
     25 C5        149.9120  174.4820  223.6790 C.ar      1 ATP715      0.0000 
     26 C6        149.7310  173.1240  223.5540 C.ar      1 ATP715      0.0000 
     27 N6        150.4570  171.9170  223.3070 N.pl3     1 ATP715      0.0000 
     28 N1        148.5310  172.5930  223.6760 N.ar      1 ATP715      0.0000 
     29 C2        147.4680  173.3910  223.9290 C.ar      1 ATP715      0.0000 
     30 N3        147.6430  174.7220  224.0550 N.ar      1 ATP715      0.0000 
     31 C4        148.8710  175.2780  223.9320 C.ar      1 ATP715      0.0000 
     32 H5'1      149.8830  179.6990  222.1010 H         1 ATP715      0.0000 
     33 H5'2      149.7690  181.0670  222.8410 H         1 ATP715      0.0000 
     34 H4'       147.9190  180.3190  223.2410 H         1 ATP715      0.0000 
     35 H3'       149.2620  180.3360  225.5100 H         1 ATP715      0.0000 
     36 HO3'      146.6740  179.7050  225.2050 H         1 ATP715      0.0000 
     37 H2'       149.8510  178.4280  225.6620 H         1 ATP715      0.0000 
     38 HO2'      147.3860  178.5090  226.6980 H         1 ATP715      0.0000 
     39 H1'       147.5670  177.1180  224.5090 H         1 ATP715      0.0000 
     40 H8        151.2830  177.2620  223.7860 H         1 ATP715      0.0000 
     41 HN61      151.3070  171.9450  223.1800 H         1 ATP715      0.0000 
     42 HN62      150.0440  171.1630  223.2860 H         1 ATP715      0.0000 
     43 H2        146.5820  173.0060  224.0200 H         1 ATP715      0.0000 
@<TRIPOS>BOND
     1    1    2 ar   
     2    1    3 ar   
     3    1    4 ar   
     4    1    8 1    
     5    5    6 ar   
     6    5    7 ar   
     7    5    8 1    
     8    5   12 1    
     9    9   10 ar   
    10    9   11 ar   
    11    9   12 1    
    12    9   13 1    
    13   13   14 1    
    14   14   15 1    
    15   14   32 1    
    16   14   33 1    
    17   15   16 1    
    18   15   17 1    
    19   15   34 1    
    20   16   21 1    
    21   17   18 1    
    22   17   19 1    
    23   17   35 1    
    24   19   37 1    
    25   19   20 1    
    26   18   36 1    
    27   19   21 1    
    28   21   22 1    
    29   20   38 1    
    30   21   39 1    
    31   22   23 1    
    32   22   31 1    
    33   23   24 2    
    34   23   40 1    
    35   24   25 1    
    36   25   26 ar   
    37   25   31 ar   
    38   26   27 1    
    39   26   28 ar   
    40   28   29 ar   
    41   27   41 1    
    42   27   42 1    
    43   29   30 ar   
    44   29   43 1    
    45   30   31 ar   
@<TRIPOS>SUBSTRUCTURE
     1 ATP715      1 GROUP   
@<TRIPOS>SET
ATOM$ORANGE STATIC     ATOMS   COLORGROUP SYSTEM 
20 14 14 15 15 17 17 19 19 21 21 23 23 25 25 26 26 29 \
29 31 31 

