#    Name: 6u9w_1_GDP_CAVITY_N1_8
#    Modification time : Fri May 22 19:26:46 2020

@<TRIPOS>MOLECULE
6u9w_1_GDP_CAVITY_N1_8
  141     0     7     0     0
SMALL
NO_CHARGES


@<TRIPOS>ATOM
      1 OG        163.5600  197.0300  122.5400 O.3       1 SER1        0.0000 
      2 OG        163.7300  197.2000  124.0200 O.3       1 SER1        0.0000 
      3 OG        164.9800  196.3700  123.9700 O.3       1 SER1        0.0000 
      4 OG        164.1600  195.1300  124.2000 O.3       1 SER1        0.0000 
      5 OG        164.5900  193.0600  124.3900 O.3       1 SER1        0.0000 
      6 OG        164.7200  198.6000  125.2700 O.3       1 SER1        0.0000 
      7 OG        164.7600  193.2300  125.8700 O.3       1 SER1        0.0000 
      8 OG        164.8800  198.7700  126.7500 O.3       1 SER1        0.0000 
      9 O         163.9500  200.3400  122.1200 O.2       2 ALA2        0.0000 
     10 O         165.2000  199.5100  122.0700 O.2       2 ALA2        0.0000 
     11 O         166.4500  198.6700  122.0300 O.2       2 ALA2        0.0000 
     12 N         167.8600  198.0100  123.4600 N.am      2 ALA2        0.0000 
     13 N         167.0900  191.4000  124.2900 N.am      2 ALA2        0.0000 
     14 N         166.2700  190.1600  124.5300 N.am      2 ALA2        0.0000 
     15 N         165.9600  197.7700  125.2200 N.am      2 ALA2        0.0000 
     16 N         167.2100  196.9400  125.1700 N.am      2 ALA2        0.0000 
     17 N         166.3900  195.7000  125.4100 N.am      2 ALA2        0.0000 
     18 N         169.2700  197.3400  124.8900 N.am      2 ALA2        0.0000 
     19 N         168.4600  196.1100  125.1300 N.am      2 ALA2        0.0000 
     20 O         169.7500  189.9000  125.6800 O.2       2 ALA2        0.0000 
     21 N         171.8100  190.3000  125.4000 N.am      2 ALA2        0.0000 
     22 O         170.9900  189.0700  125.6400 O.2       2 ALA2        0.0000 
     23 N         173.0600  189.4700  125.3600 N.am      2 ALA2        0.0000 
     24 N         166.5600  195.8700  126.8900 N.am      2 ALA2        0.0000 
     25 N         168.6200  196.2700  126.6100 N.am      2 ALA2        0.0000 
     26 N         167.8100  195.0400  126.8400 N.am      2 ALA2        0.0000 
     27 N         172.3700  193.7800  126.4700 N.am      2 ALA2        0.0000 
     28 N         171.5500  192.5400  126.7000 N.am      2 ALA2        0.0000 
     29 N         169.9100  190.0700  127.1600 N.am      2 ALA2        0.0000 
     30 N         173.6100  192.9400  126.4200 N.am      2 ALA2        0.0000 
     31 N         172.8000  191.7100  126.6500 N.am      2 ALA2        0.0000 
     32 N         171.9800  190.4700  126.8800 N.am      2 ALA2        0.0000 
     33 N         171.1600  189.2300  127.1200 N.am      2 ALA2        0.0000 
     34 N         170.3400  188.0000  127.3500 N.am      2 ALA2        0.0000 
     35 N         174.0400  190.8800  126.6100 N.am      2 ALA2        0.0000 
     36 O         167.9700  195.2100  128.3200 O.2       2 ALA2        0.0000 
     37 N         167.1600  193.9700  128.5500 N.am      2 ALA2        0.0000 
     38 N         168.4100  193.1400  128.5100 N.am      2 ALA2        0.0000 
     39 N         169.6500  192.3000  128.4600 N.am      2 ALA2        0.0000 
     40 N         168.8400  191.0700  128.6900 N.am      2 ALA2        0.0000 
     41 N         171.7200  192.7100  128.1800 N.am      2 ALA2        0.0000 
     42 N         170.9000  191.4700  128.4100 N.am      2 ALA2        0.0000 
     43 N         170.0800  190.2300  128.6400 N.am      2 ALA2        0.0000 
     44 N         168.5700  193.3000  129.9900 N.am      2 ALA2        0.0000 
     45 N         167.7600  192.0700  130.2200 N.am      2 ALA2        0.0000 
     46 N         168.1900  190.0000  130.4000 N.am      2 ALA2        0.0000 
     47 OD1       163.7800  200.1700  120.6400 O.co2     3 ASP3        0.0000 
     48 OD1       162.9700  198.9300  120.8700 O.co2     3 ASP3        0.0000 
     49 OD1       165.0300  199.3400  120.5900 O.co2     3 ASP3        0.0000 
     50 OD1       164.3800  198.2700  122.3000 O.co2     3 ASP3        0.0000 
     51 OD1       165.6300  197.4400  122.2600 O.co2     3 ASP3        0.0000 
     52 OD1       167.6900  197.8400  121.9800 O.co2     3 ASP3        0.0000 
     53 OD1       164.2100  189.7600  124.8100 O.co2     3 ASP3        0.0000 
     54 OD1       171.6000  195.5100  123.3200 O.co2     3 ASP3        0.0000 
     55 OD1       171.3400  197.7500  124.6200 O.co2     3 ASP3        0.0000 
     56 OD1       170.5200  196.5100  124.8500 O.co2     3 ASP3        0.0000 
     57 OD1       165.6200  189.0900  126.2400 O.co2     3 ASP3        0.0000 
     58 OD1       171.7700  195.6800  124.8000 O.co2     3 ASP3        0.0000 
     59 OD1       173.0100  194.8500  124.7500 O.co2     3 ASP3        0.0000 
     60 OD1       163.6800  194.2300  127.4000 O.co2     3 ASP3        0.0000 
     61 OD1       165.7900  189.2600  127.7200 O.co2     3 ASP3        0.0000 
     62 OD1       171.9400  195.8500  126.2800 O.co2     3 ASP3        0.0000 
     63 OD1       173.1800  195.0100  126.2400 O.co2     3 ASP3        0.0000 
     64 NZ        167.2000  188.5900  129.1600 N.4       4 LYS4        0.0000 
     65 NZ        168.4500  187.7600  129.1100 N.4       4 LYS4        0.0000 
     66 NZ        167.6300  186.5300  129.3400 N.4       4 LYS4        0.0000 
     67 NZ        167.3700  188.7600  130.6400 N.4       4 LYS4        0.0000 
     68 NZ        166.5500  187.5300  130.8700 N.4       4 LYS4        0.0000 
     69 CZ        166.8800  196.6000  122.2100 C.ar      5 PHE5        0.0000 
     70 CZ        167.0400  196.7700  123.6900 C.ar      5 PHE5        0.0000 
     71 CZ        166.2300  195.5400  123.9200 C.ar      5 PHE5        0.0000 
     72 CZ        165.4100  194.3000  124.1600 C.ar      5 PHE5        0.0000 
     73 CZ        169.1100  197.1800  123.4100 C.ar      5 PHE5        0.0000 
     74 CZ        168.2900  195.9400  123.6500 C.ar      5 PHE5        0.0000 
     75 CZ        167.4700  194.7000  123.8800 C.ar      5 PHE5        0.0000 
     76 CZ        166.6600  193.4700  124.1100 C.ar      5 PHE5        0.0000 
     77 CZ        170.3500  196.3400  123.3700 C.ar      5 PHE5        0.0000 
     78 CZ        164.3300  195.3000  125.6800 C.ar      5 PHE5        0.0000 
     79 CZ        167.6400  194.8700  125.3600 C.ar      5 PHE5        0.0000 
     80 CZ        169.7000  195.2700  125.0800 C.ar      5 PHE5        0.0000 
     81 CZ        168.8900  194.0400  125.3100 C.ar      5 PHE5        0.0000 
     82 CZ        168.0700  192.8000  125.5400 C.ar      5 PHE5        0.0000 
     83 CZ        170.9500  194.4400  125.0300 C.ar      5 PHE5        0.0000 
     84 CZ        170.1300  193.2100  125.2600 C.ar      5 PHE5        0.0000 
     85 CZ        171.1200  194.6100  126.5100 C.ar      5 PHE5        0.0000 
     86 CZ        170.3000  193.3700  126.7500 C.ar      5 PHE5        0.0000 
     87 CZ        169.2200  194.3700  128.2700 C.ar      5 PHE5        0.0000 
     88 CZ        170.4700  193.5400  128.2300 C.ar      5 PHE5        0.0000 
     89 CA        164.5500  198.4400  123.7900 C.3       6 GLY6        0.0000 
     90 CA        166.6100  198.8400  123.5100 C.3       6 GLY6        0.0000 
     91 CA        165.8400  192.2300  124.3400 C.3       6 GLY6        0.0000 
     92 CA        165.0200  190.9900  124.5700 C.3       6 GLY6        0.0000 
     93 CA        168.3300  190.5700  124.2500 C.3       6 GLY6        0.0000 
     94 CA        166.4400  190.3300  126.0100 C.3       6 GLY6        0.0000 
     95 CA        169.3200  191.9700  125.5000 C.3       6 GLY6        0.0000 
     96 CA        168.5000  190.7300  125.7300 C.3       6 GLY6        0.0000 
     97 CA        172.2000  193.6100  124.9900 C.3       6 GLY6        0.0000 
     98 CA        171.3800  192.3700  125.2200 C.3       6 GLY6        0.0000 
     99 CA        170.5600  191.1400  125.4500 C.3       6 GLY6        0.0000 
    100 CA        172.6300  191.5400  125.1700 C.3       6 GLY6        0.0000 
    101 CA        165.3100  196.7000  126.9300 C.3       6 GLY6        0.0000 
    102 CA        164.5000  195.4700  127.1700 C.3       6 GLY6        0.0000 
    103 CA        170.6900  196.6800  126.3300 C.3       6 GLY6        0.0000 
    104 CA        169.8700  195.4400  126.5600 C.3       6 GLY6        0.0000 
    105 CA        167.8500  189.6600  127.4400 C.3       6 GLY6        0.0000 
    106 CA        167.0300  188.4300  127.6700 C.3       6 GLY6        0.0000 
    107 CA        169.1000  188.8300  127.4000 C.3       6 GLY6        0.0000 
    108 CA        168.2800  187.5900  127.6300 C.3       6 GLY6        0.0000 
    109 CA        169.5300  186.7600  127.5800 C.3       6 GLY6        0.0000 
    110 CA        173.2300  189.6400  126.8400 C.3       6 GLY6        0.0000 
    111 CA        165.9100  194.8000  128.6000 C.3       6 GLY6        0.0000 
    112 CA        165.0900  193.5600  128.8300 C.3       6 GLY6        0.0000 
    113 CA        169.2700  189.0000  128.8800 C.3       6 GLY6        0.0000 
    114 CA        165.6900  191.6600  130.5000 C.3       6 GLY6        0.0000 
    115 CA        166.9400  190.8300  130.4500 C.3       6 GLY6        0.0000 
    116 CA        166.1200  189.5900  130.6800 C.3       6 GLY6        0.0000 
    117 DU        163.1300  199.1000  122.3500 H         7 CUB7        0.0000 
    118 DU        165.8000  197.6000  123.7400 H         7 CUB7        0.0000 
    119 DU        163.9000  197.3700  125.5000 H         7 CUB7        0.0000 
    120 DU        165.1500  196.5400  125.4500 H         7 CUB7        0.0000 
    121 DU        165.5800  194.4700  125.6400 H         7 CUB7        0.0000 
    122 DU        166.8200  193.6300  125.5900 H         7 CUB7        0.0000 
    123 DU        166.0100  192.4000  125.8200 H         7 CUB7        0.0000 
    124 DU        165.1900  191.1600  126.0500 H         7 CUB7        0.0000 
    125 DU        167.2500  191.5600  125.7800 H         7 CUB7        0.0000 
    126 DU        165.7400  194.6300  127.1200 H         7 CUB7        0.0000 
    127 DU        164.9300  193.4000  127.3500 H         7 CUB7        0.0000 
    128 DU        164.1100  192.1600  127.5800 H         7 CUB7        0.0000 
    129 DU        166.9900  193.8000  127.0700 H         7 CUB7        0.0000 
    130 DU        169.0500  194.2100  126.7900 H         7 CUB7        0.0000 
    131 DU        168.2400  192.9700  127.0300 H         7 CUB7        0.0000 
    132 DU        166.6000  190.5000  127.4900 H         7 CUB7        0.0000 
    133 DU        169.4800  192.1400  126.9800 H         7 CUB7        0.0000 
    134 DU        168.6700  190.9000  127.2100 H         7 CUB7        0.0000 
    135 DU        170.7300  191.3000  126.9300 H         7 CUB7        0.0000 
    136 DU        166.3400  192.7300  128.7900 H         7 CUB7        0.0000 
    137 DU        165.5200  191.5000  129.0200 H         7 CUB7        0.0000 
    138 DU        167.5900  191.9000  128.7400 H         7 CUB7        0.0000 
    139 DU        166.7700  190.6600  128.9700 H         7 CUB7        0.0000 
    140 DU        165.9500  189.4300  129.2000 H         7 CUB7        0.0000 
    141 DU        168.0200  189.8300  128.9200 H         7 CUB7        0.0000 
@<TRIPOS>BOND
@<TRIPOS>SUBSTRUCTURE
     1 SER1        1 GROUP   
     2 ALA2        9 GROUP   
     3 ASP3       47 GROUP   
     4 LYS4       64 GROUP   
     5 PHE5       69 GROUP   
     6 GLY6       89 GROUP   
     7 CUB7      117 GROUP   
@<TRIPOS>SET

