#    Name: 6u9w_5_ATP
#    Modification time : Fri May 22 19:27:10 2020

@<TRIPOS>MOLECULE
6u9w_5_ATP
   43    45     1     0     1
SMALL
NO_CHARGES


@<TRIPOS>ATOM
      1 PG        188.1720  184.0200  228.8280 P.3       1 ATP701      0.0000 
      2 O1G       188.2270  185.5160  229.1730 O.co2     1 ATP701      0.0000 
      3 O2G       186.7440  183.5370  228.8960 O.co2     1 ATP701      0.0000 
      4 O3G       189.0150  183.2390  229.8080 O.co2     1 ATP701      0.0000 
      5 PB        189.9560  182.7320  226.9670 P.3       1 ATP701      0.0000 
      6 O1B       189.4600  181.3140  227.1930 O.co2     1 ATP701      0.0000 
      7 O2B       191.1210  183.0010  227.8660 O.co2     1 ATP701      0.0000 
      8 O3B       188.7590  183.7890  227.3080 O.3       1 ATP701      0.0000 
      9 PA        189.3380  182.9040  224.1270 P.3       1 ATP701      0.0000 
     10 O1A       189.9930  182.3240  222.8900 O.co2     1 ATP701      0.0000 
     11 O2A       188.1410  182.0330  224.5030 O.co2     1 ATP701      0.0000 
     12 O3A       190.4210  182.9150  225.3860 O.3       1 ATP701      0.0000 
     13 O5'       188.8220  184.5030  223.8230 O.3       1 ATP701      0.0000 
     14 C5'       189.7070  185.3340  223.0280 C.3       1 ATP701      0.0000 
     15 C4'       190.0190  186.5660  223.6330 C.3       1 ATP701      0.0000 
     16 O4'       188.9640  187.5900  223.3100 O.3       1 ATP701      0.0000 
     17 C3'       190.0500  186.4930  225.2320 C.3       1 ATP701      0.0000 
     18 O3'       191.0720  187.4550  225.7650 O.3       1 ATP701      0.0000 
     19 C2'       188.9130  186.8450  225.6110 C.3       1 ATP701      0.0000 
     20 O2'       189.0420  187.6490  226.8500 O.3       1 ATP701      0.0000 
     21 C1'       188.2560  187.7770  224.4060 C.3       1 ATP701      0.0000 
     22 N9        186.9220  187.3910  224.1280 N.pl3     1 ATP701      0.0000 
     23 C8        186.2690  186.2540  223.9310 C.2       1 ATP701      0.0000 
     24 N7        184.9890  186.5600  223.6900 N.2       1 ATP701      0.0000 
     25 C5        184.8690  187.8920  223.7260 C.ar      1 ATP701      0.0000 
     26 C6        183.7690  188.6990  223.5470 C.ar      1 ATP701      0.0000 
     27 N6        182.3680  188.6380  223.2630 N.pl3     1 ATP701      0.0000 
     28 N1        183.8770  190.0100  223.6310 N.ar      1 ATP701      0.0000 
     29 C2        185.0800  190.5670  223.8990 C.ar      1 ATP701      0.0000 
     30 N3        186.1590  189.7780  224.0790 N.ar      1 ATP701      0.0000 
     31 C4        186.0610  188.4310  223.9950 C.ar      1 ATP701      0.0000 
     32 H5'1      189.2940  185.5010  222.1660 H         1 ATP701      0.0000 
     33 H5'2      190.5290  184.8480  222.8590 H         1 ATP701      0.0000 
     34 H4'       190.8950  186.7990  223.2890 H         1 ATP701      0.0000 
     35 H3'       190.2790  185.6040  225.5450 H         1 ATP701      0.0000 
     36 HO3'      191.0640  188.1570  225.3040 H         1 ATP701      0.0000 
     37 H2'       188.3510  186.0760  225.7930 H         1 ATP701      0.0000 
     38 HO2'      189.7330  188.1250  226.8050 H         1 ATP701      0.0000 
     39 H1'       188.2640  188.7040  224.6920 H         1 ATP701      0.0000 
     40 H8        186.6500  185.3620  223.9570 H         1 ATP701      0.0000 
     41 HN61      181.9850  187.8770  223.1470 H         1 ATP701      0.0000 
     42 HN62      181.9080  189.3630  223.2080 H         1 ATP701      0.0000 
     43 H2        185.1670  191.5310  223.9620 H         1 ATP701      0.0000 
@<TRIPOS>BOND
     1    1    2 ar   
     2    1    3 ar   
     3    1    4 ar   
     4    1    8 1    
     5    5    6 ar   
     6    5    7 ar   
     7    5    8 1    
     8    5   12 1    
     9    9   10 ar   
    10    9   11 ar   
    11    9   12 1    
    12    9   13 1    
    13   13   14 1    
    14   14   15 1    
    15   14   32 1    
    16   14   33 1    
    17   15   16 1    
    18   15   17 1    
    19   15   34 1    
    20   16   21 1    
    21   17   18 1    
    22   17   19 1    
    23   17   35 1    
    24   19   37 1    
    25   19   20 1    
    26   18   36 1    
    27   19   21 1    
    28   21   22 1    
    29   20   38 1    
    30   21   39 1    
    31   22   23 1    
    32   22   31 1    
    33   23   24 2    
    34   23   40 1    
    35   24   25 1    
    36   25   26 ar   
    37   25   31 ar   
    38   26   27 1    
    39   26   28 ar   
    40   28   29 ar   
    41   27   41 1    
    42   27   42 1    
    43   29   30 ar   
    44   29   43 1    
    45   30   31 ar   
@<TRIPOS>SUBSTRUCTURE
     1 ATP701      1 GROUP   
@<TRIPOS>SET
ATOM$ORANGE STATIC     ATOMS   COLORGROUP SYSTEM 
20 14 14 15 15 17 17 19 19 21 21 23 23 25 25 26 26 29 \
29 31 31 

