#    Name: 6u9w_1_GDP
#    Modification time : Fri May 22 19:26:45 2020

@<TRIPOS>MOLECULE
6u9w_1_GDP
   39    41     1     0     1
SMALL
NO_CHARGES


@<TRIPOS>ATOM
      1 PB        163.5860  199.0610  121.7660 P.3       1 GDP703      0.0000 
      2 O1B       162.4930  199.1640  120.7310 O.co2     1 GDP703      0.0000 
      3 O2B       163.0090  198.5040  123.0440 O.co2     1 GDP703      0.0000 
      4 O3B       164.1540  200.4330  122.0260 O.co2     1 GDP703      0.0000 
      5 O3A       164.7760  198.0670  121.2090 O.3       1 GDP703      0.0000 
      6 PA        166.3060  198.0440  121.8180 P.3       1 GDP703      0.0000 
      7 O1A       167.2890  197.8190  120.6960 O.co2     1 GDP703      0.0000 
      8 O2A       166.6070  199.3610  122.4860 O.co2     1 GDP703      0.0000 
      9 O5'       166.4520  196.8230  122.9090 O.3       1 GDP703      0.0000 
     10 C5'       165.8800  196.9880  124.1710 C.3       1 GDP703      0.0000 
     11 C4'       165.5310  195.6230  124.7220 C.3       1 GDP703      0.0000 
     12 O4'       166.7830  194.6280  124.4860 O.3       1 GDP703      0.0000 
     13 C3'       165.3180  195.6710  126.0080 C.3       1 GDP703      0.0000 
     14 O3'       164.3290  194.6220  126.3940 O.3       1 GDP703      0.0000 
     15 C2'       166.6770  195.3590  126.6490 C.3       1 GDP703      0.0000 
     16 O2'       166.5050  194.7220  127.8320 O.3       1 GDP703      0.0000 
     17 C1'       167.3620  194.4210  125.6380 C.3       1 GDP703      0.0000 
     18 N9        168.8080  194.7050  125.5490 N.pl3     1 GDP703      0.0000 
     19 C8        169.0460  195.7470  124.7370 C.2       1 GDP703      0.0000 
     20 N7        170.3810  195.9310  124.7170 N.2       1 GDP703      0.0000 
     21 C5        170.9390  195.0110  125.4990 C.2       1 GDP703      0.0000 
     22 C6        172.3950  194.7250  125.8630 C.2       1 GDP703      0.0000 
     23 O6        173.2600  195.3950  125.4090 O.2       1 GDP703      0.0000 
     24 N1        172.7060  193.6490  126.7480 N.am      1 GDP703      0.0000 
     25 C2        171.6470  192.8420  127.2930 C.2       1 GDP703      0.0000 
     26 N2        171.9450  191.7490  128.1910 N.pl3     1 GDP703      0.0000 
     27 N3        170.2620  193.1180  126.9440 N.2       1 GDP703      0.0000 
     28 C4        169.9490  194.2410  126.0230 C.2       1 GDP703      0.0000 
     29 H5'       165.0850  197.5410  124.1110 H         1 GDP703      0.0000 
     30 H5''      166.4980  197.4430  124.7640 H         1 GDP703      0.0000 
     31 H4'       164.7300  195.3150  124.2690 H         1 GDP703      0.0000 
     32 H3'       164.9660  196.5300  126.2900 H         1 GDP703      0.0000 
     33 HO3'      164.4920  194.3570  127.1740 H         1 GDP703      0.0000 
     34 H2'       167.1950  196.1580  126.8320 H         1 GDP703      0.0000 
     35 H1'       167.2740  193.4950  125.9140 H         1 GDP703      0.0000 
     36 H8        168.3840  196.2680  124.2560 H         1 GDP703      0.0000 
     37 HN1       173.5240  193.4840  126.9550 H         1 GDP703      0.0000 
     38 HN21      172.7600  191.5770  128.4030 H         1 GDP703      0.0000 
     39 HN22      171.3070  191.2710  128.5130 H         1 GDP703      0.0000 
@<TRIPOS>BOND
     1    1    2 ar   
     2    1    3 ar   
     3    1    4 ar   
     4    1    5 1    
     5    5    6 1    
     6    6    7 ar   
     7    6    8 ar   
     8    6    9 1    
     9    9   10 1    
    10   10   11 1    
    11   10   29 1    
    12   10   30 1    
    13   11   12 1    
    14   11   13 1    
    15   11   31 1    
    16   13   32 1    
    17   12   17 1    
    18   13   14 1    
    19   13   15 1    
    20   15   16 1    
    21   14   33 1    
    22   15   17 1    
    23   15   34 1    
    24   17   18 1    
    25   17   35 1    
    26   18   19 1    
    27   18   28 1    
    28   19   20 2    
    29   19   36 1    
    30   20   21 1    
    31   21   22 1    
    32   21   28 2    
    33   22   23 2    
    34   22   24 am   
    35   24   25 1    
    36   25   26 1    
    37   24   37 1    
    38   25   27 2    
    39   27   28 1    
    40   26   38 1    
    41   26   39 1    
@<TRIPOS>SUBSTRUCTURE
     1 GDP703      1 GROUP   
@<TRIPOS>SET
ATOM$ORANGE STATIC     ATOMS   COLORGROUP SYSTEM 
20 10 10 11 11 13 13 15 15 17 17 19 19 21 21 22 22 25 \
25 28 28 

