#    Name: 6u9w_6_GDP
#    Modification time : Fri May 22 19:27:15 2020

@<TRIPOS>MOLECULE
6u9w_6_GDP
   39    41     1     0     1
SMALL
NO_CHARGES


@<TRIPOS>ATOM
      1 PB        150.7800  150.7790  121.7060 P.3       1 GDP704      0.0000 
      2 O1B       151.0030  149.7410  120.6340 O.co2     1 GDP704      0.0000 
      3 O2B       151.7620  150.5520  122.8290 O.co2     1 GDP704      0.0000 
      4 O3B       149.3720  150.6530  122.2310 O.co2     1 GDP704      0.0000 
      5 O3A       150.9900  152.2840  121.0720 O.3       1 GDP704      0.0000 
      6 PA        150.4550  153.6590  121.8020 P.3       1 GDP704      0.0000 
      7 O1A       150.1590  154.7060  120.7570 O.co2     1 GDP704      0.0000 
      8 O2A       149.1990  153.3600  122.5800 O.co2     1 GDP704      0.0000 
      9 O5'       151.6120  154.2270  122.8220 O.3       1 GDP704      0.0000 
     10 C5'       151.6770  153.6960  124.1100 C.3       1 GDP704      0.0000 
     11 C4'       152.9990  154.0900  124.7330 C.3       1 GDP704      0.0000 
     12 O4'       153.2140  155.6800  124.5440 O.3       1 GDP704      0.0000 
     13 C3'       153.0020  153.8490  126.0140 C.3       1 GDP704      0.0000 
     14 O3'       154.3850  153.5080  126.4610 O.3       1 GDP704      0.0000 
     15 C2'       152.5550  155.1630  126.6700 C.3       1 GDP704      0.0000 
     16 O2'       153.1400  155.3030  127.8850 O.3       1 GDP704      0.0000 
     17 C1'       153.0530  156.2560  125.7040 C.3       1 GDP704      0.0000 
     18 N9        152.0800  157.3610  125.5930 N.pl3     1 GDP704      0.0000 
     19 C8        151.0820  157.0410  124.7540 C.2       1 GDP704      0.0000 
     20 N7        150.2500  158.1010  124.7120 N.2       1 GDP704      0.0000 
     21 C5        150.7420  159.0470  125.5070 C.2       1 GDP704      0.0000 
     22 C6        150.2450  160.4490  125.8580 C.2       1 GDP704      0.0000 
     23 O6        149.2440  160.8570  125.3790 O.2       1 GDP704      0.0000 
     24 N1        150.9950  161.2600  126.7610 N.am      1 GDP704      0.0000 
     25 C2        152.2110  160.7520  127.3360 C.2       1 GDP704      0.0000 
     26 N2        152.9820  161.5620  128.2520 N.pl3     1 GDP704      0.0000 
     27 N3        152.6820  159.4180  127.0010 N.2       1 GDP704      0.0000 
     28 C4        151.8940  158.5810  126.0590 C.2       1 GDP704      0.0000 
     29 H5'       151.5940  152.7300  124.0800 H         1 GDP704      0.0000 
     30 H5''      150.9400  154.0270  124.6470 H         1 GDP704      0.0000 
     31 H4'       153.7000  153.5780  124.3010 H         1 GDP704      0.0000 
     32 H3'       152.4230  153.1060  126.2480 H         1 GDP704      0.0000 
     33 HO3'      154.5170  153.8220  127.2290 H         1 GDP704      0.0000 
     34 H2'       151.5970  155.2030  126.8150 H         1 GDP704      0.0000 
     35 H1'       153.8810  156.6440  126.0290 H         1 GDP704      0.0000 
     36 H8        150.9790  156.2060  124.2700 H         1 GDP704      0.0000 
     37 HN1       150.7210  162.0500  126.9610 H         1 GDP704      0.0000 
     38 HN21      152.7140  162.3530  128.4560 H         1 GDP704      0.0000 
     39 HN22      153.7080  161.2530  128.5930 H         1 GDP704      0.0000 
@<TRIPOS>BOND
     1    1    2 ar   
     2    1    3 ar   
     3    1    4 ar   
     4    1    5 1    
     5    5    6 1    
     6    6    7 ar   
     7    6    8 ar   
     8    6    9 1    
     9    9   10 1    
    10   10   11 1    
    11   10   29 1    
    12   10   30 1    
    13   11   12 1    
    14   11   13 1    
    15   11   31 1    
    16   13   32 1    
    17   12   17 1    
    18   13   14 1    
    19   13   15 1    
    20   15   16 1    
    21   14   33 1    
    22   15   17 1    
    23   15   34 1    
    24   17   18 1    
    25   17   35 1    
    26   18   19 1    
    27   18   28 1    
    28   19   20 2    
    29   19   36 1    
    30   20   21 1    
    31   21   22 1    
    32   21   28 2    
    33   22   23 2    
    34   22   24 am   
    35   24   25 1    
    36   25   26 1    
    37   24   37 1    
    38   25   27 2    
    39   27   28 1    
    40   26   38 1    
    41   26   39 1    
@<TRIPOS>SUBSTRUCTURE
     1 GDP704      1 GROUP   
@<TRIPOS>SET
ATOM$ORANGE STATIC     ATOMS   COLORGROUP SYSTEM 
20 10 10 11 11 13 13 15 15 17 17 19 19 21 21 22 22 25 \
25 28 28 

