#    Name: 6u9w_6_GDP_CAVITY_N1_4
#    Modification time : Fri May 22 19:27:16 2020

@<TRIPOS>MOLECULE
6u9w_6_GDP_CAVITY_N1_4
  129     0     6     0     0
SMALL
NO_CHARGES


@<TRIPOS>ATOM
      1 OG        149.8300  154.9100  121.2500 O.3       1 SER1        0.0000 
      2 OG        152.4900  153.4200  122.6400 O.3       1 SER1        0.0000 
      3 OG        151.6800  152.1800  122.8700 O.3       1 SER1        0.0000 
      4 OG        152.9200  151.3500  122.8300 O.3       1 SER1        0.0000 
      5 OG        152.1100  150.1100  123.0600 O.3       1 SER1        0.0000 
      6 OG        152.6600  153.5800  124.1200 O.3       1 SER1        0.0000 
      7 OG        151.8400  152.3500  124.3600 O.3       1 SER1        0.0000 
      8 OG        153.9100  152.7500  124.0800 O.3       1 SER1        0.0000 
      9 OG        153.0900  151.5200  124.3100 O.3       1 SER1        0.0000 
     10 OG        151.1900  151.2800  126.0700 O.3       1 SER1        0.0000 
     11 OG        154.8900  154.1600  125.3300 O.3       1 SER1        0.0000 
     12 OG        156.9500  154.5600  125.0500 O.3       1 SER1        0.0000 
     13 OG        156.1400  153.3200  125.2800 O.3       1 SER1        0.0000 
     14 N         149.0100  153.6800  121.4900 N.am      2 ALA2        0.0000 
     15 O         149.4400  151.6100  121.6700 O.2       2 ALA2        0.0000 
     16 N         149.1800  153.8500  122.9700 N.am      2 ALA2        0.0000 
     17 N         150.1700  155.2500  124.2200 N.am      2 ALA2        0.0000 
     18 N         149.3500  154.0100  124.4500 N.am      2 ALA2        0.0000 
     19 N         151.4100  154.4200  124.1700 N.am      2 ALA2        0.0000 
     20 N         150.6000  153.1800  124.4000 N.am      2 ALA2        0.0000 
     21 N         149.9000  157.4900  125.5100 N.am      2 ALA2        0.0000 
     22 N         151.1500  156.6500  125.4700 N.am      2 ALA2        0.0000 
     23 N         151.5800  154.5800  125.6500 N.am      2 ALA2        0.0000 
     24 N         150.7600  153.3500  125.8800 N.am      2 ALA2        0.0000 
     25 N         151.2700  162.1900  126.3400 N.am      2 ALA2        0.0000 
     26 N         150.4600  160.9600  126.5800 N.am      2 ALA2        0.0000 
     27 N         152.5200  161.3600  126.3000 N.am      2 ALA2        0.0000 
     28 N         151.7000  160.1300  126.5300 N.am      2 ALA2        0.0000 
     29 N         155.4000  163.0000  125.7900 N.am      2 ALA2        0.0000 
     30 N         154.5800  161.7700  126.0200 N.am      2 ALA2        0.0000 
     31 N         151.3200  156.8200  126.9500 N.am      2 ALA2        0.0000 
     32 O         152.5600  155.9900  126.9000 O.2       2 ALA2        0.0000 
     33 N         151.7500  154.7500  127.1300 N.am      2 ALA2        0.0000 
     34 N         153.5100  162.7700  127.5500 N.am      2 ALA2        0.0000 
     35 N         152.6900  161.5300  127.7800 N.am      2 ALA2        0.0000 
     36 N         154.7500  161.9300  127.5000 N.am      2 ALA2        0.0000 
     37 N         153.9400  160.7000  127.7300 N.am      2 ALA2        0.0000 
     38 O         151.4800  156.9900  128.4300 O.2       2 ALA2        0.0000 
     39 N         156.0000  161.1000  127.4500 N.am      2 ALA2        0.0000 
     40 N         152.7300  156.1600  128.3800 N.am      2 ALA2        0.0000 
     41 N         153.9800  155.3200  128.3300 N.am      2 ALA2        0.0000 
     42 N         153.2900  159.6300  129.4500 N.am      2 ALA2        0.0000 
     43 N         156.1700  161.2700  128.9300 N.am      2 ALA2        0.0000 
     44 N         155.3500  160.0300  129.1700 N.am      2 ALA2        0.0000 
     45 N         154.5300  158.8000  129.4000 N.am      2 ALA2        0.0000 
     46 N         153.7200  157.5600  129.6300 N.am      2 ALA2        0.0000 
     47 N         154.9600  156.7300  129.5800 N.am      2 ALA2        0.0000 
     48 N         154.1500  155.4900  129.8200 N.am      2 ALA2        0.0000 
     49 OD1       151.0800  154.0800  121.2100 O.co2     3 ASP3        0.0000 
     50 OD1       150.2600  152.8500  121.4400 O.co2     3 ASP3        0.0000 
     51 OD1       151.5100  152.0100  121.3900 O.co2     3 ASP3        0.0000 
     52 OD1       150.6900  150.7800  121.6200 O.co2     3 ASP3        0.0000 
     53 OD1       149.8700  149.5400  121.8600 O.co2     3 ASP3        0.0000 
     54 OD1       151.9400  149.9400  121.5800 O.co2     3 ASP3        0.0000 
     55 OD1       148.7500  155.9100  122.7800 O.co2     3 ASP3        0.0000 
     56 OD1       148.4900  158.1500  124.0800 O.co2     3 ASP3        0.0000 
     57 OD1       150.2900  160.7900  125.1000 O.co2     3 ASP3        0.0000 
     58 OD1       149.4700  159.5500  125.3300 O.co2     3 ASP3        0.0000 
     59 OD1       148.6600  158.3200  125.5600 O.co2     3 ASP3        0.0000 
     60 OD1       154.2400  153.0900  127.0400 O.co2     3 ASP3        0.0000 
     61 OD1       155.2300  154.4900  128.2900 O.co2     3 ASP3        0.0000 
     62 CZ        149.5700  157.1500  122.5500 C.ar      4 PHE5        0.0000 
     63 CZ        150.0000  155.0800  122.7400 C.ar      4 PHE5        0.0000 
     64 CZ        151.2500  154.2500  122.6900 C.ar      4 PHE5        0.0000 
     65 CZ        150.5500  158.5500  123.8000 C.ar      4 PHE5        0.0000 
     66 CZ        149.7400  157.3200  124.0300 C.ar      4 PHE5        0.0000 
     67 CZ        150.9800  156.4900  123.9800 C.ar      4 PHE5        0.0000 
     68 CZ        152.2300  155.6500  123.9400 C.ar      4 PHE5        0.0000 
     69 CZ        155.1100  157.2900  123.4300 C.ar      4 PHE5        0.0000 
     70 CZ        154.2900  156.0600  123.6600 C.ar      4 PHE5        0.0000 
     71 CZ        153.4800  154.8200  123.8900 C.ar      4 PHE5        0.0000 
     72 CZ        154.7200  153.9900  123.8400 C.ar      4 PHE5        0.0000 
     73 CZ        151.5400  159.9600  125.0500 C.ar      4 PHE5        0.0000 
     74 CZ        150.7200  158.7200  125.2800 C.ar      4 PHE5        0.0000 
     75 CZ        152.7800  159.1300  125.0000 C.ar      4 PHE5        0.0000 
     76 CZ        151.9700  157.8900  125.2300 C.ar      4 PHE5        0.0000 
     77 CZ        154.0300  158.2900  124.9500 C.ar      4 PHE5        0.0000 
     78 CZ        153.2100  157.0600  125.1900 C.ar      4 PHE5        0.0000 
     79 CZ        155.2800  157.4600  124.9100 C.ar      4 PHE5        0.0000 
     80 CZ        154.4600  156.2200  125.1400 C.ar      4 PHE5        0.0000 
     81 CZ        155.7100  155.3900  125.0900 C.ar      4 PHE5        0.0000 
     82 CZ        154.0700  152.9200  125.5600 C.ar      4 PHE5        0.0000 
     83 CZ        149.6400  159.7200  126.8100 C.ar      4 PHE5        0.0000 
     84 CZ        150.8900  158.8900  126.7600 C.ar      4 PHE5        0.0000 
     85 CZ        152.1300  158.0600  126.7100 C.ar      4 PHE5        0.0000 
     86 CZ        151.8700  160.2900  128.0100 C.ar      4 PHE5        0.0000 
     87 CZ        153.1200  159.4600  127.9600 C.ar      4 PHE5        0.0000 
     88 CZ        152.3000  158.2200  128.2000 C.ar      4 PHE5        0.0000 
     89 CA        150.4300  153.0100  122.9200 C.3       5 GLY6        0.0000 
     90 CA        149.6100  151.7800  123.1500 C.3       5 GLY6        0.0000 
     91 CA        150.8600  150.9400  123.1100 C.3       5 GLY6        0.0000 
     92 CA        148.9200  156.0800  124.2600 C.3       5 GLY6        0.0000 
     93 CA        151.0300  151.1100  124.5900 C.3       5 GLY6        0.0000 
     94 CA        153.1700  162.4300  124.5800 C.3       5 GLY6        0.0000 
     95 CA        152.3500  161.2000  124.8200 C.3       5 GLY6        0.0000 
     96 CA        156.5200  156.6300  124.8600 C.3       5 GLY6        0.0000 
     97 CA        152.0900  163.4300  126.1100 C.3       5 GLY6        0.0000 
     98 CA        153.3400  162.6000  126.0700 C.3       5 GLY6        0.0000 
     99 CA        153.7700  160.5300  126.2500 C.3       5 GLY6        0.0000 
    100 CA        155.8300  160.9300  125.9700 C.3       5 GLY6        0.0000 
    101 CA        155.0100  159.7000  126.2000 C.3       5 GLY6        0.0000 
    102 CA        156.2600  158.8600  126.1600 C.3       5 GLY6        0.0000 
    103 CA        152.9900  153.9200  127.0900 C.3       5 GLY6        0.0000 
    104 CA        152.1800  152.6800  127.3200 C.3       5 GLY6        0.0000 
    105 CA        156.4300  159.0300  127.6400 C.3       5 GLY6        0.0000 
    106 CA        153.1600  154.0900  128.5700 C.3       5 GLY6        0.0000 
    107 CA        154.4100  153.2500  128.5200 C.3       5 GLY6        0.0000 
    108 CA        155.3900  154.6600  129.7700 C.3       5 GLY6        0.0000 
    109 DU        152.4000  155.8200  125.4200 H         6 CUB7        0.0000 
    110 DU        153.6400  154.9900  125.3700 H         6 CUB7        0.0000 
    111 DU        152.8300  153.7500  125.6000 H         6 CUB7        0.0000 
    112 DU        152.0100  152.5200  125.8400 H         6 CUB7        0.0000 
    113 DU        153.2600  151.6800  125.7900 H         6 CUB7        0.0000 
    114 DU        152.9500  159.2900  126.4800 H         6 CUB7        0.0000 
    115 DU        154.2000  158.4600  126.4400 H         6 CUB7        0.0000 
    116 DU        153.3800  157.2200  126.6700 H         6 CUB7        0.0000 
    117 DU        155.4500  157.6300  126.3900 H         6 CUB7        0.0000 
    118 DU        154.6300  156.3900  126.6200 H         6 CUB7        0.0000 
    119 DU        153.8100  155.1600  126.8500 H         6 CUB7        0.0000 
    120 DU        156.6900  156.8000  126.3400 H         6 CUB7        0.0000 
    121 DU        155.8800  155.5600  126.5700 H         6 CUB7        0.0000 
    122 DU        155.0600  154.3200  126.8100 H         6 CUB7        0.0000 
    123 DU        157.1200  154.7300  126.5300 H         6 CUB7        0.0000 
    124 DU        155.1800  159.8600  127.6900 H         6 CUB7        0.0000 
    125 DU        154.3700  158.6300  127.9200 H         6 CUB7        0.0000 
    126 DU        153.5500  157.3900  128.1500 H         6 CUB7        0.0000 
    127 DU        154.8000  156.5600  128.1000 H         6 CUB7        0.0000 
    128 DU        156.0400  155.7300  128.0600 H         6 CUB7        0.0000 
    129 DU        156.2100  155.8900  129.5400 H         6 CUB7        0.0000 
@<TRIPOS>BOND
@<TRIPOS>SUBSTRUCTURE
     1 SER1        1 GROUP   
     2 ALA2       14 GROUP   
     3 ASP3       49 GROUP   
     4 PHE5       62 GROUP   
     5 GLY6       89 GROUP   
     6 CUB7      109 GROUP   
@<TRIPOS>SET

