#    Name: 6aoh_1_CB3
#    Modification time : Fri May 22 19:23:58 2020

@<TRIPOS>MOLECULE
6aoh_1_CB3
   35    37     1     0     0
SMALL
NO_CHARGES


@<TRIPOS>ATOM
      1 N1         17.0810   82.9620  -31.1680 N.pl3     1 CB3703      0.0000 
      2 C2         16.3820   82.7050  -32.2880 C.2       1 CB3703      0.0000 
      3 NA2        15.1830   82.0840  -32.1830 N.pl3     1 CB3703      0.0000 
      4 N3         16.8290   83.0370  -33.5270 N.2       1 CB3703      0.0000 
      5 C4         18.0130   83.6550  -33.7200 C.2       1 CB3703      0.0000 
      6 O4         18.4110   83.9560  -34.8660 O.2       1 CB3703      0.0000 
      7 C4A        18.8220   83.9650  -32.5220 C.ar      1 CB3703      0.0000 
      8 C5         20.0500   84.5960  -32.5950 C.ar      1 CB3703      0.0000 
      9 C6         20.7450   84.8470  -31.4190 C.ar      1 CB3703      0.0000 
     10 C7         20.2340   84.4810  -30.1750 C.ar      1 CB3703      0.0000 
     11 C8         19.0000   83.8430  -30.0610 C.ar      1 CB3703      0.0000 
     12 C8A        18.2700   83.5700  -31.2100 C.ar      1 CB3703      0.0000 
     13 C9         22.0790   85.5330  -31.5160 C.3       1 CB3703      0.0000 
     14 N10        22.2640   85.9220  -32.9040 N.pl3     1 CB3703      0.0000 
     15 C11        19.6050   88.6900  -34.5980 C.ar      1 CB3703      0.0000 
     16 C12        20.8090   88.4060  -35.2350 C.ar      1 CB3703      0.0000 
     17 C13        21.6930   87.4860  -34.6780 C.ar      1 CB3703      0.0000 
     18 C14        21.3770   86.8430  -33.4840 C.ar      1 CB3703      0.0000 
     19 C15        20.1740   87.1310  -32.8480 C.ar      1 CB3703      0.0000 
     20 C16        19.2920   88.0520  -33.4030 C.ar      1 CB3703      0.0000 
     21 C          18.6430   89.6850  -35.1810 C.2       1 CB3703      0.0000 
     22 O          17.8320   90.2130  -34.4400 O.2       1 CB3703      0.0000 
     23 N          18.6910   89.9760  -36.4790 N.am      1 CB3703      0.0000 
     24 CA         19.5410   91.0270  -37.0100 C.3       1 CB3703      0.0000 
     25 CB         19.3510   91.1410  -38.5200 C.3       1 CB3703      0.0000 
     26 CG         20.3570   90.2630  -39.2570 C.3       1 CB3703      0.0000 
     27 CD         19.7590   89.7810  -40.5570 C.2       1 CB3703      0.0000 
     28 OE1        20.0500   88.6330  -40.9640 O.co2     1 CB3703      0.0000 
     29 OE2        18.9910   90.5510  -41.1740 O.co2     1 CB3703      0.0000 
     30 CT         19.2800   92.3600  -36.3670 C.2       1 CB3703      0.0000 
     31 O1         19.3470   92.4450  -35.1210 O.co2     1 CB3703      0.0000 
     32 O2         19.0140   93.3370  -37.1010 O.co2     1 CB3703      0.0000 
     33 CP1        23.3800   85.3560  -33.6460 C.3       1 CB3703      0.0000 
     34 CP2        22.8820   84.5650  -34.7850 C.1       1 CB3703      0.0000 
     35 CP3        22.5410   83.8650  -35.7940 C.1       1 CB3703      0.0000 
@<TRIPOS>BOND
     1    1    2 1    
     2    1   12 1    
     3    2    3 1    
     4    2    4 2    
     5    4    5 1    
     6    5    6 2    
     7    5    7 1    
     8    7    8 ar   
     9    7   12 ar   
    10    8    9 ar   
    11    9   10 ar   
    12    9   13 1    
    13   10   11 ar   
    14   11   12 ar   
    15   13   14 1    
    16   14   18 1    
    17   14   33 1    
    18   15   16 ar   
    19   15   20 ar   
    20   15   21 1    
    21   16   17 ar   
    22   17   18 ar   
    23   18   19 ar   
    24   19   20 ar   
    25   21   22 2    
    26   21   23 am   
    27   23   24 1    
    28   24   25 1    
    29   24   30 1    
    30   25   26 1    
    31   26   27 1    
    32   27   28 ar   
    33   27   29 ar   
    34   30   31 ar   
    35   30   32 ar   
    36   33   34 1    
    37   34   35 3    
@<TRIPOS>SUBSTRUCTURE
     1 CB3703      1 GROUP   
@<TRIPOS>SET

