#    Name: 6aoh_2_NDP
#    Modification time : Fri May 22 19:24:21 2020

@<TRIPOS>MOLECULE
6aoh_2_NDP
   48    52     1     0     1
SMALL
NO_CHARGES


@<TRIPOS>ATOM
      1 PA          2.9150   28.9150  -67.9380 P.3       1 NDP702      0.0000 
      2 O1A         2.3240   30.1950  -67.4050 O.co2     1 NDP702      0.0000 
      3 O2A         4.1600   28.9420  -68.7950 O.co2     1 NDP702      0.0000 
      4 O5B         1.7520   28.1760  -68.7690 O.3       1 NDP702      0.0000 
      5 C5B         1.8630   26.7790  -69.0220 C.3       1 NDP702      0.0000 
      6 C4B         0.8250   26.2980  -70.0230 C.3       1 NDP702      0.0000 
      7 O4B         0.5470   27.2900  -71.0190 O.3       1 NDP702      0.0000 
      8 C3B         1.3600   25.0770  -70.7470 C.3       1 NDP702      0.0000 
      9 O3B         0.7910   23.8770  -70.2050 O.3       1 NDP702      0.0000 
     10 C2B         1.0090   25.2890  -72.2080 C.3       1 NDP702      0.0000 
     11 O2B        -0.1850   24.5960  -72.5740 O.3       1 NDP702      0.0000 
     12 C1B         0.7860   26.7870  -72.3390 C.3       1 NDP702      0.0000 
     13 N9A         2.0040   27.4180  -72.9210 N.pl3     1 NDP702      0.0000 
     14 C8A         2.8890   28.1860  -72.2540 C.2       1 NDP702      0.0000 
     15 N7A         3.8920   28.6040  -73.0640 N.2       1 NDP702      0.0000 
     16 C5A         3.6580   28.1000  -74.2890 C.ar      1 NDP702      0.0000 
     17 C6A         4.3230   28.1520  -75.6160 C.ar      1 NDP702      0.0000 
     18 N6A         5.4700   28.8480  -75.7970 N.pl3     1 NDP702      0.0000 
     19 N1A         3.7490   27.4810  -76.6420 N.ar      1 NDP702      0.0000 
     20 C2A         2.6090   26.7810  -76.4800 C.ar      1 NDP702      0.0000 
     21 N3A         1.9500   26.6930  -75.3070 N.ar      1 NDP702      0.0000 
     22 C4A         2.4130   27.3170  -74.1910 C.ar      1 NDP702      0.0000 
     23 O3          3.1570   27.9070  -66.7020 O.3       1 NDP702      0.0000 
     24 PN          4.2790   28.1720  -65.5800 P.3       1 NDP702      0.0000 
     25 O1N         4.1260   27.1140  -64.5120 O.co2     1 NDP702      0.0000 
     26 O2N         5.6080   28.3490  -66.2700 O.co2     1 NDP702      0.0000 
     27 O5D         3.8340   29.5920  -64.9680 O.3       1 NDP702      0.0000 
     28 C5D         2.9310   29.6650  -63.8680 C.3       1 NDP702      0.0000 
     29 C4D         3.7280   29.9560  -62.6030 C.3       1 NDP702      0.0000 
     30 O4D         4.4230   31.1990  -62.7440 O.3       1 NDP702      0.0000 
     31 C3D         2.8170   30.0870  -61.3950 C.3       1 NDP702      0.0000 
     32 O3D         3.4320   29.4310  -60.2810 O.3       1 NDP702      0.0000 
     33 C2D         2.7300   31.5840  -61.1570 C.3       1 NDP702      0.0000 
     34 O2D         2.5680   31.8980  -59.7740 O.3       1 NDP702      0.0000 
     35 C1D         4.0650   32.0880  -61.6830 C.3       1 NDP702      0.0000 
     36 N1N         4.0380   33.4760  -62.1570 N.pl3     1 NDP702      0.0000 
     37 C2N         5.0580   34.2670  -61.7880 C.2       1 NDP702      0.0000 
     38 C3N         5.1440   35.6010  -62.1820 C.2       1 NDP702      0.0000 
     39 C7N         6.3080   36.4430  -61.7330 C.2       1 NDP702      0.0000 
     40 O7N         6.5430   37.5020  -62.2920 O.2       1 NDP702      0.0000 
     41 N7N         7.0630   36.0150  -60.7240 N.am      1 NDP702      0.0000 
     42 C4N         4.0690   36.1990  -63.0620 C.3       1 NDP702      0.0000 
     43 C5N         3.0150   35.2470  -63.3980 C.2       1 NDP702      0.0000 
     44 C6N         3.0440   33.9310  -62.9390 C.2       1 NDP702      0.0000 
     45 P2B        -0.1490   23.1390  -73.2680 P.3       1 NDP702      0.0000 
     46 O1X         0.3580   22.2170  -72.1840 O.co2     1 NDP702      0.0000 
     47 O2X        -1.5790   22.8690  -73.6750 O.co2     1 NDP702      0.0000 
     48 O3X         0.7940   23.3010  -74.4370 O.co2     1 NDP702      0.0000 
@<TRIPOS>BOND
     1    1    2 ar   
     2    1    3 ar   
     3    1    4 1    
     4    1   23 1    
     5    4    5 1    
     6    5    6 1    
     7    6    7 1    
     8    6    8 1    
     9    7   12 1    
    10    8    9 1    
    11    8   10 1    
    12   10   11 1    
    13   10   12 1    
    14   11   45 1    
    15   12   13 1    
    16   13   14 1    
    17   13   22 1    
    18   14   15 2    
    19   15   16 1    
    20   16   17 ar   
    21   16   22 ar   
    22   17   18 1    
    23   17   19 ar   
    24   19   20 ar   
    25   20   21 ar   
    26   21   22 ar   
    27   23   24 1    
    28   24   25 ar   
    29   24   26 ar   
    30   24   27 1    
    31   27   28 1    
    32   28   29 1    
    33   29   30 1    
    34   29   31 1    
    35   30   35 1    
    36   31   32 1    
    37   31   33 1    
    38   33   34 1    
    39   33   35 1    
    40   35   36 1    
    41   36   37 1    
    42   36   44 1    
    43   37   38 2    
    44   38   39 1    
    45   38   42 1    
    46   39   40 2    
    47   39   41 am   
    48   42   43 1    
    49   43   44 2    
    50   45   46 ar   
    51   45   47 ar   
    52   45   48 ar   
@<TRIPOS>SUBSTRUCTURE
     1 NDP702      1 GROUP   
@<TRIPOS>SET
ATOM$ORANGE STATIC     ATOMS   COLORGROUP SYSTEM 
42 5 5 6 6 8 8 10 10 12 12 14 14 16 16 17 17 20 \
20 22 22 28 28 29 29 31 31 33 33 35 35 37 37 38 38 39 \
39 42 42 43 43 44 44 

