#    Name: 6aoh_2_CB3
#    Modification time : Fri May 22 19:24:09 2020

@<TRIPOS>MOLECULE
6aoh_2_CB3
   35    37     1     0     0
SMALL
NO_CHARGES


@<TRIPOS>ATOM
      1 N1         42.0370   53.8600  -41.0800 N.pl3     1 CB3703      0.0000 
      2 C2         41.8250   53.9330  -42.4060 C.2       1 CB3703      0.0000 
      3 NA2        42.7410   54.5590  -43.1780 N.pl3     1 CB3703      0.0000 
      4 N3         40.7240   53.4140  -43.0060 N.2       1 CB3703      0.0000 
      5 C4         39.7620   52.7790  -42.3060 C.2       1 CB3703      0.0000 
      6 O4         38.7520   52.3040  -42.8710 O.2       1 CB3703      0.0000 
      7 C4A        39.9440   52.6660  -40.8420 C.ar      1 CB3703      0.0000 
      8 C5         39.0260   52.0370  -40.0180 C.ar      1 CB3703      0.0000 
      9 C6         39.2750   51.9760  -38.6520 C.ar      1 CB3703      0.0000 
     10 C7         40.4260   52.5330  -38.0980 C.ar      1 CB3703      0.0000 
     11 C8         41.3730   53.1740  -38.8930 C.ar      1 CB3703      0.0000 
     12 C8A        41.1660   53.2570  -40.2630 C.ar      1 CB3703      0.0000 
     13 C9         38.2690   51.2850  -37.7690 C.3       1 CB3703      0.0000 
     14 N10        37.2480   50.7080  -38.6290 N.pl3     1 CB3703      0.0000 
     15 C11        38.3160   48.0610  -41.7090 C.ar      1 CB3703      0.0000 
     16 C12        36.9910   48.4550  -41.5520 C.ar      1 CB3703      0.0000 
     17 C13        36.6360   49.3320  -40.5310 C.ar      1 CB3703      0.0000 
     18 C14        37.6040   49.8220  -39.6600 C.ar      1 CB3703      0.0000 
     19 C15        38.9290   49.4310  -39.8190 C.ar      1 CB3703      0.0000 
     20 C16        39.2820   48.5530  -40.8380 C.ar      1 CB3703      0.0000 
     21 C          38.6980   47.1120  -42.8110 C.2       1 CB3703      0.0000 
     22 O          39.8140   46.6180  -42.8310 O.2       1 CB3703      0.0000 
     23 N          37.7960   46.8290  -43.7430 N.am      1 CB3703      0.0000 
     24 CA         36.9080   45.6960  -43.6020 C.3       1 CB3703      0.0000 
     25 CB         35.7570   45.7930  -44.5970 C.3       1 CB3703      0.0000 
     26 CG         34.5350   46.4160  -43.9320 C.3       1 CB3703      0.0000 
     27 CD         33.6930   47.1410  -44.9560 C.2       1 CB3703      0.0000 
     28 OE1        33.6530   48.3910  -44.9240 O.co2     1 CB3703      0.0000 
     29 OE2        33.0630   46.4620  -45.7930 O.co2     1 CB3703      0.0000 
     30 CT         37.6550   44.4170  -43.8080 C.2       1 CB3703      0.0000 
     31 O1         38.6090   44.1610  -43.0430 O.co2     1 CB3703      0.0000 
     32 O2         37.2950   43.6630  -44.7360 O.co2     1 CB3703      0.0000 
     33 CP1        35.8600   51.0810  -38.4130 C.3       1 CB3703      0.0000 
     34 CP2        35.4340   51.8560  -39.5850 C.1       1 CB3703      0.0000 
     35 CP3        34.9570   52.4940  -40.5960 C.1       1 CB3703      0.0000 
@<TRIPOS>BOND
     1    1    2 1    
     2    1   12 1    
     3    2    3 1    
     4    2    4 2    
     5    4    5 1    
     6    5    6 2    
     7    5    7 1    
     8    7    8 ar   
     9    7   12 ar   
    10    8    9 ar   
    11    9   10 ar   
    12    9   13 1    
    13   10   11 ar   
    14   11   12 ar   
    15   13   14 1    
    16   14   18 1    
    17   14   33 1    
    18   15   16 ar   
    19   15   20 ar   
    20   15   21 1    
    21   16   17 ar   
    22   17   18 ar   
    23   18   19 ar   
    24   19   20 ar   
    25   21   22 2    
    26   21   23 am   
    27   23   24 1    
    28   24   25 1    
    29   24   30 1    
    30   25   26 1    
    31   26   27 1    
    32   27   28 ar   
    33   27   29 ar   
    34   30   31 ar   
    35   30   32 ar   
    36   33   34 1    
    37   34   35 3    
@<TRIPOS>SUBSTRUCTURE
     1 CB3703      1 GROUP   
@<TRIPOS>SET

