#    Name: 6j6i_5_DTP_CAVITY_N1_6
#    Modification time : Fri May 22 19:33:06 2020

@<TRIPOS>MOLECULE
6j6i_5_DTP_CAVITY_N1_6
  100     0     6     0     0
SMALL
NO_CHARGES


@<TRIPOS>ATOM
      1 OG        166.2900  206.3500  173.8100 O.3       1 SER1        0.0000 
      2 OG        167.0000  205.4400  172.8500 O.3       1 SER1        0.0000 
      3 OG        167.7200  204.5200  171.9000 O.3       1 SER1        0.0000 
      4 OG        165.9500  207.2700  172.6700 O.3       1 SER1        0.0000 
      5 OG        167.3800  205.4500  170.7700 O.3       1 SER1        0.0000 
      6 OG        167.5600  207.1000  174.0400 O.3       1 SER1        0.0000 
      7 OG        168.2800  206.1900  173.0900 O.3       1 SER1        0.0000 
      8 OG        168.9900  205.2800  172.1400 O.3       1 SER1        0.0000 
      9 OG        166.5100  208.9400  173.8600 O.3       1 SER1        0.0000 
     10 OG        169.5500  206.9400  173.3200 O.3       1 SER1        0.0000 
     11 OG        170.2700  206.0300  172.3700 O.3       1 SER1        0.0000 
     12 OG        174.4300  207.3700  174.2100 O.3       1 SER1        0.0000 
     13 O         163.2500  208.3400  174.3400 O.2       2 ALA2        0.0000 
     14 O         163.9600  207.4300  173.3900 O.2       2 ALA2        0.0000 
     15 N         166.8200  203.7800  169.5800 N.am      2 ALA2        0.0000 
     16 O         164.5200  209.0900  174.5800 O.2       2 ALA2        0.0000 
     17 O         165.2400  208.1800  173.6300 O.2       2 ALA2        0.0000 
     18 O         168.1000  204.5400  169.8100 O.2       2 ALA2        0.0000 
     19 O         166.8100  207.0800  178.2200 O.2       2 ALA2        0.0000 
     20 N         170.3800  202.5200  173.4500 N.am      2 ALA2        0.0000 
     21 N         170.0400  203.4400  172.3200 N.am      2 ALA2        0.0000 
     22 O         165.8000  209.8500  174.8200 O.2       2 ALA2        0.0000 
     23 O         169.3700  205.2900  170.0500 O.2       2 ALA2        0.0000 
     24 N         171.2800  203.2600  175.7700 N.am      2 ALA2        0.0000 
     25 N         170.9400  204.1900  174.6400 N.am      2 ALA2        0.0000 
     26 N         170.6000  205.1100  173.5000 N.am      2 ALA2        0.0000 
     27 N         171.3200  204.2000  172.5500 N.am      2 ALA2        0.0000 
     28 O         167.4100  209.6800  176.1800 O.2       2 ALA2        0.0000 
     29 N         172.2200  204.9400  174.8700 N.am      2 ALA2        0.0000 
     30 N         171.8800  205.8600  173.7400 N.am      2 ALA2        0.0000 
     31 N         173.4900  205.6900  175.1100 N.am      2 ALA2        0.0000 
     32 N         173.1600  206.6100  173.9800 N.am      2 ALA2        0.0000 
     33 OD1       168.5700  204.3300  177.4400 O.co2     3 ASP3        0.0000 
     34 OD1       167.5200  206.1700  177.2600 O.co2     3 ASP3        0.0000 
     35 OD1       168.2400  205.2500  176.3100 O.co2     3 ASP3        0.0000 
     36 OD1       167.1900  207.0900  176.1300 O.co2     3 ASP3        0.0000 
     37 OD1       167.9000  206.1800  175.1800 O.co2     3 ASP3        0.0000 
     38 OD1       170.2300  205.1000  175.5900 O.co2     3 ASP3        0.0000 
     39 OD1       167.7500  208.7500  177.3200 O.co2     3 ASP3        0.0000 
     40 OD1       169.1800  206.9300  175.4100 O.co2     3 ASP3        0.0000 
     41 OD1       169.8900  206.0200  174.4600 O.co2     3 ASP3        0.0000 
     42 OD1       168.1300  208.7700  175.2300 O.co2     3 ASP3        0.0000 
     43 OD1       167.0800  210.6000  175.0500 O.co2     3 ASP3        0.0000 
     44 OD1       171.1700  206.7700  174.6900 O.co2     3 ASP3        0.0000 
     45 OD1       168.6900  210.4300  176.4200 O.co2     3 ASP3        0.0000 
     46 OD1       169.4000  209.5200  175.4700 O.co2     3 ASP3        0.0000 
     47 OD1       172.4400  207.5300  174.9300 O.co2     3 ASP3        0.0000 
     48 OD1       169.9600  211.1800  176.6600 O.co2     3 ASP3        0.0000 
     49 OD1       170.6800  210.2700  175.7000 O.co2     3 ASP3        0.0000 
     50 NZ        171.3900  209.3600  174.7500 N.4       4 LYS4        0.0000 
     51 NZ        172.1100  208.4500  173.8000 N.4       4 LYS4        0.0000 
     52 NZ        170.3400  211.1900  174.5700 N.4       4 LYS4        0.0000 
     53 NZ        173.7200  208.2800  175.1600 N.4       4 LYS4        0.0000 
     54 NZ        174.1000  208.2900  173.0800 N.4       4 LYS4        0.0000 
     55 CA        162.0800  204.0800  175.1900 C.3       5 GLY6        0.0000 
     56 CA        162.8000  203.1600  174.2300 C.3       5 GLY6        0.0000 
     57 CA        163.3600  204.8300  175.4200 C.3       5 GLY6        0.0000 
     58 CA        161.9700  207.5900  174.1100 C.3       5 GLY6        0.0000 
     59 CA        162.6900  206.6800  173.1600 C.3       5 GLY6        0.0000 
     60 CA        164.6300  205.5800  175.6600 C.3       5 GLY6        0.0000 
     61 CA        163.5800  207.4200  175.4800 C.3       5 GLY6        0.0000 
     62 CA        164.3000  206.5100  174.5200 C.3       5 GLY6        0.0000 
     63 CA        164.6800  206.5200  172.4400 C.3       5 GLY6        0.0000 
     64 CA        166.1100  204.6900  170.5300 C.3       5 GLY6        0.0000 
     65 CA        163.6300  208.3500  172.2600 C.3       5 GLY6        0.0000 
     66 CA        166.5800  204.4900  178.1600 C.3       5 GLY6        0.0000 
     67 CA        165.5300  206.3200  177.9800 C.3       5 GLY6        0.0000 
     68 CA        166.2500  205.4100  177.0300 C.3       5 GLY6        0.0000 
     69 CA        165.9100  206.3400  175.8900 C.3       5 GLY6        0.0000 
     70 CA        165.5700  207.2600  174.7600 C.3       5 GLY6        0.0000 
     71 CA        167.1400  206.1500  179.3500 C.3       5 GLY6        0.0000 
     72 CA        167.8600  205.2400  178.4000 C.3       5 GLY6        0.0000 
     73 CA        166.4700  208.0000  177.0800 C.3       5 GLY6        0.0000 
     74 CA        166.1400  208.9200  175.9500 C.3       5 GLY6        0.0000 
     75 CA        166.8500  208.0100  175.0000 C.3       5 GLY6        0.0000 
     76 CA        168.8400  207.8500  174.2800 C.3       5 GLY6        0.0000 
     77 CA        170.9800  205.1200  171.4200 C.3       5 GLY6        0.0000 
     78 CA        167.7900  209.6900  174.1000 C.3       5 GLY6        0.0000 
     79 CA        170.1200  208.6100  174.5100 C.3       5 GLY6        0.0000 
     80 CA        170.8300  207.7000  173.5600 C.3       5 GLY6        0.0000 
     81 CA        171.5400  206.7800  172.6100 C.3       5 GLY6        0.0000 
     82 CA        169.0700  210.4400  174.3300 C.3       5 GLY6        0.0000 
     83 CA        173.3800  209.2000  174.0300 C.3       5 GLY6        0.0000 
     84 DU        164.0700  203.9200  174.4700 H         6 CUB7        0.0000 
     85 DU        163.0200  205.7500  174.2900 H         6 CUB7        0.0000 
     86 DU        163.7400  204.8400  173.3400 H         6 CUB7        0.0000 
     87 DU        165.3500  204.6700  174.7100 H         6 CUB7        0.0000 
     88 DU        165.0100  205.5900  173.5700 H         6 CUB7        0.0000 
     89 DU        165.7300  204.6800  172.6200 H         6 CUB7        0.0000 
     90 DU        166.4400  203.7700  171.6600 H         6 CUB7        0.0000 
     91 DU        167.3000  203.5800  177.2100 H         6 CUB7        0.0000 
     92 DU        166.6200  205.4200  174.9400 H         6 CUB7        0.0000 
     93 DU        167.3400  204.5100  173.9900 H         6 CUB7        0.0000 
     94 DU        168.4300  203.6100  170.9500 H         6 CUB7        0.0000 
     95 DU        169.2900  203.4200  176.4900 H         6 CUB7        0.0000 
     96 DU        168.9500  204.3400  175.3600 H         6 CUB7        0.0000 
     97 DU        169.6600  203.4300  174.4000 H         6 CUB7        0.0000 
     98 DU        168.6100  205.2700  174.2200 H         6 CUB7        0.0000 
     99 DU        169.3300  204.3500  173.2700 H         6 CUB7        0.0000 
    100 DU        169.7100  204.3700  171.1800 H         6 CUB7        0.0000 
@<TRIPOS>BOND
@<TRIPOS>SUBSTRUCTURE
     1 SER1        1 GROUP   
     2 ALA2       13 GROUP   
     3 ASP3       33 GROUP   
     4 LYS4       50 GROUP   
     5 GLY6       55 GROUP   
     6 CUB7       84 GROUP   
@<TRIPOS>SET

