#    Name: 6j6i_5_DTP
#    Modification time : Fri May 22 19:33:04 2020

@<TRIPOS>MOLECULE
6j6i_5_DTP
   30    32     1     0     0
SMALL
NO_CHARGES


@<TRIPOS>ATOM
      1 PG        168.3230  209.6050  176.1890 P.3       1 DTP901      0.0000 
      2 O1G       168.8170  210.2150  177.4690 O.co2     1 DTP901      0.0000 
      3 O2G       167.8590  208.1890  176.3610 O.co2     1 DTP901      0.0000 
      4 O3G       169.2860  209.7670  175.0450 O.co2     1 DTP901      0.0000 
      5 PB        166.1800  210.2830  174.4210 P.3       1 DTP901      0.0000 
      6 O1B       167.1500  210.2870  173.2920 O.co2     1 DTP901      0.0000 
      7 O2B       165.0650  211.2690  174.4360 O.co2     1 DTP901      0.0000 
      8 O3B       167.0180  210.4220  175.7710 O.3       1 DTP901      0.0000 
      9 PA        165.8900  207.6440  173.4840 P.3       1 DTP901      0.0000 
     10 O1A       166.0130  208.2700  172.1360 O.co2     1 DTP901      0.0000 
     11 O2A       167.0230  206.8350  174.0150 O.co2     1 DTP901      0.0000 
     12 O3A       165.5750  208.8100  174.5270 O.3       1 DTP901      0.0000 
     13 O5'       164.5450  206.7810  173.5300 O.3       1 DTP901      0.0000 
     14 C5'       164.3030  205.8950  174.6460 C.3       1 DTP901      0.0000 
     15 C4'       163.2520  204.8870  174.2520 C.3       1 DTP901      0.0000 
     16 O4'       162.0860  205.5990  173.7910 O.3       1 DTP901      0.0000 
     17 C3'       163.6530  203.9350  173.1260 C.3       1 DTP901      0.0000 
     18 O3'       163.1740  202.6310  173.4310 O.3       1 DTP901      0.0000 
     19 C2'       162.9120  204.5050  171.9210 C.3       1 DTP901      0.0000 
     20 C1'       161.6450  205.0190  172.5700 C.3       1 DTP901      0.0000 
     21 N9        161.0150  206.0780  171.8120 N.pl3     1 DTP901      0.0000 
     22 C8        161.3040  207.4130  171.8760 C.2       1 DTP901      0.0000 
     23 N7        160.5560  208.1310  171.0730 N.2       1 DTP901      0.0000 
     24 C5        159.7310  207.2080  170.4470 C.ar      1 DTP901      0.0000 
     25 C6        158.7170  207.3390  169.4820 C.ar      1 DTP901      0.0000 
     26 N6        158.3420  208.5000  168.9570 N.pl3     1 DTP901      0.0000 
     27 N1        158.0970  206.2070  169.0760 N.ar      1 DTP901      0.0000 
     28 C2        158.4790  205.0400  169.6090 C.ar      1 DTP901      0.0000 
     29 N3        159.4150  204.7980  170.5210 N.ar      1 DTP901      0.0000 
     30 C4        160.0080  205.9380  170.8990 C.ar      1 DTP901      0.0000 
@<TRIPOS>BOND
     1    1    2 ar   
     2    1    3 ar   
     3    1    4 ar   
     4    1    8 1    
     5    5    6 ar   
     6    5    7 ar   
     7    5    8 1    
     8    5   12 1    
     9    9   10 ar   
    10    9   11 ar   
    11    9   12 1    
    12    9   13 1    
    13   13   14 1    
    14   14   15 1    
    15   15   16 1    
    16   15   17 1    
    17   16   20 1    
    18   17   18 1    
    19   17   19 1    
    20   19   20 1    
    21   20   21 1    
    22   21   22 1    
    23   21   30 1    
    24   22   23 2    
    25   23   24 1    
    26   24   25 ar   
    27   24   30 ar   
    28   25   26 1    
    29   25   27 ar   
    30   27   28 ar   
    31   28   29 ar   
    32   29   30 ar   
@<TRIPOS>SUBSTRUCTURE
     1 DTP901      1 GROUP   
@<TRIPOS>SET

