#    Name: 6j6i_2_DTP
#    Modification time : Fri May 22 19:32:29 2020

@<TRIPOS>MOLECULE
6j6i_2_DTP
   30    32     1     0     0
SMALL
NO_CHARGES


@<TRIPOS>ATOM
      1 PG        212.3730  168.1860  178.6010 P.3       1 DTP901      0.0000 
      2 O1G       211.3520  168.2970  177.5030 O.co2     1 DTP901      0.0000 
      3 O2G       211.7660  168.1790  179.9760 O.co2     1 DTP901      0.0000 
      4 O3G       213.4780  169.1880  178.4560 O.co2     1 DTP901      0.0000 
      5 PB        213.8980  166.2950  177.1250 P.3       1 DTP901      0.0000 
      6 O1B       213.1500  166.7590  175.9270 O.co2     1 DTP901      0.0000 
      7 O2B       214.2510  164.8550  177.2630 O.co2     1 DTP901      0.0000 
      8 O3B       213.0750  166.7650  178.4080 O.3       1 DTP901      0.0000 
      9 PA        215.8680  167.9240  175.9870 P.3       1 DTP901      0.0000 
     10 O1A       215.6140  167.0730  174.7890 O.co2     1 DTP901      0.0000 
     11 O2A       215.3900  169.3350  175.9860 O.co2     1 DTP901      0.0000 
     12 O3A       215.2220  167.1750  177.2380 O.3       1 DTP901      0.0000 
     13 O5'       217.4280  167.8890  176.3320 O.3       1 DTP901      0.0000 
     14 C5'       217.9460  168.7320  177.3860 C.3       1 DTP901      0.0000 
     15 C4'       219.4210  168.9520  177.1550 C.3       1 DTP901      0.0000 
     16 O4'       220.0290  167.6800  176.8490 O.3       1 DTP901      0.0000 
     17 C3'       219.7630  169.8890  175.9980 C.3       1 DTP901      0.0000 
     18 O3'       220.8900  170.6780  176.3550 O.3       1 DTP901      0.0000 
     19 C2'       220.1270  168.9170  174.8810 C.3       1 DTP901      0.0000 
     20 C1'       220.7970  167.8030  175.6580 C.3       1 DTP901      0.0000 
     21 N9        220.7260  166.5250  174.9760 N.pl3     1 DTP901      0.0000 
     22 C8        219.7050  165.6160  175.0330 C.2       1 DTP901      0.0000 
     23 N7        219.9380  164.5470  174.3090 N.2       1 DTP901      0.0000 
     24 C5        221.1840  164.7740  173.7430 C.ar      1 DTP901      0.0000 
     25 C6        221.9880  164.0170  172.8730 C.ar      1 DTP901      0.0000 
     26 N6        221.6440  162.8240  172.4010 N.pl3     1 DTP901      0.0000 
     27 N1        223.1780  164.5450  172.5070 N.ar      1 DTP901      0.0000 
     28 C2        223.5210  165.7470  172.9860 C.ar      1 DTP901      0.0000 
     29 N3        222.8490  166.5470  173.8070 N.ar      1 DTP901      0.0000 
     30 C4        221.6770  165.9930  174.1500 C.ar      1 DTP901      0.0000 
@<TRIPOS>BOND
     1    1    2 ar   
     2    1    3 ar   
     3    1    4 ar   
     4    1    8 1    
     5    5    6 ar   
     6    5    7 ar   
     7    5    8 1    
     8    5   12 1    
     9    9   10 ar   
    10    9   11 ar   
    11    9   12 1    
    12    9   13 1    
    13   13   14 1    
    14   14   15 1    
    15   15   16 1    
    16   15   17 1    
    17   16   20 1    
    18   17   18 1    
    19   17   19 1    
    20   19   20 1    
    21   20   21 1    
    22   21   22 1    
    23   21   30 1    
    24   22   23 2    
    25   23   24 1    
    26   24   25 ar   
    27   24   30 ar   
    28   25   26 1    
    29   25   27 ar   
    30   27   28 ar   
    31   28   29 ar   
    32   29   30 ar   
@<TRIPOS>SUBSTRUCTURE
     1 DTP901      1 GROUP   
@<TRIPOS>SET

