#    Name: 6j6i_3_DTP
#    Modification time : Fri May 22 19:32:41 2020

@<TRIPOS>MOLECULE
6j6i_3_DTP
   30    32     1     0     0
SMALL
NO_CHARGES


@<TRIPOS>ATOM
      1 PG        201.3620  227.6270  177.7120 P.3       1 DTP901      0.0000 
      2 O1G       202.8190  227.3060  177.5490 O.co2     1 DTP901      0.0000 
      3 O2G       200.8510  227.3730  179.1030 O.co2     1 DTP901      0.0000 
      4 O3G       200.5170  226.9930  176.6430 O.co2     1 DTP901      0.0000 
      5 PB        201.1780  229.8910  176.0100 P.3       1 DTP901      0.0000 
      6 O1B       201.5970  228.8600  175.0210 O.co2     1 DTP901      0.0000 
      7 O2B       201.8680  231.2120  176.0510 O.co2     1 DTP901      0.0000 
      8 O3B       201.2290  229.1990  177.4470 O.3       1 DTP901      0.0000 
      9 PA        198.7380  229.5900  174.6190 P.3       1 DTP901      0.0000 
     10 O1A       199.4950  229.8770  173.3680 O.co2     1 DTP901      0.0000 
     11 O2A       198.3360  228.1850  174.9140 O.co2     1 DTP901      0.0000 
     12 O3A       199.6090  230.1260  175.8410 O.3       1 DTP901      0.0000 
     13 O5'       197.4570  230.5420  174.6850 O.3       1 DTP901      0.0000 
     14 C5'       196.4900  230.3620  175.7440 C.3       1 DTP901      0.0000 
     15 C4'       195.2040  231.0430  175.3470 C.3       1 DTP901      0.0000 
     16 O4'       195.5080  232.4040  174.9810 O.3       1 DTP901      0.0000 
     17 C3'       194.4800  230.4210  174.1540 C.3       1 DTP901      0.0000 
     18 O3'       193.0810  230.4190  174.4040 O.3       1 DTP901      0.0000 
     19 C2'       194.8160  231.3750  173.0140 C.3       1 DTP901      0.0000 
     20 C1'       194.8920  232.7040  173.7360 C.3       1 DTP901      0.0000 
     21 N9        195.7610  233.6470  173.0650 N.pl3     1 DTP901      0.0000 
     22 C8        197.1140  233.7610  173.2140 C.2       1 DTP901      0.0000 
     23 N7        197.6250  234.7160  172.4750 N.2       1 DTP901      0.0000 
     24 C5        196.5380  235.2560  171.8020 C.ar      1 DTP901      0.0000 
     25 C6        196.4180  236.2990  170.8670 C.ar      1 DTP901      0.0000 
     26 N6        197.4440  237.0210  170.4280 N.pl3     1 DTP901      0.0000 
     27 N1        195.1780  236.5730  170.3980 N.ar      1 DTP901      0.0000 
     28 C2        194.1480  235.8450  170.8460 C.ar      1 DTP901      0.0000 
     29 N3        194.1420  234.8440  171.7200 N.ar      1 DTP901      0.0000 
     30 C4        195.3830  234.6000  172.1630 C.ar      1 DTP901      0.0000 
@<TRIPOS>BOND
     1    1    2 ar   
     2    1    3 ar   
     3    1    4 ar   
     4    1    8 1    
     5    5    6 ar   
     6    5    7 ar   
     7    5    8 1    
     8    5   12 1    
     9    9   10 ar   
    10    9   11 ar   
    11    9   12 1    
    12    9   13 1    
    13   13   14 1    
    14   14   15 1    
    15   15   16 1    
    16   15   17 1    
    17   16   20 1    
    18   17   18 1    
    19   17   19 1    
    20   19   20 1    
    21   20   21 1    
    22   21   22 1    
    23   21   30 1    
    24   22   23 2    
    25   23   24 1    
    26   24   25 ar   
    27   24   30 ar   
    28   25   26 1    
    29   25   27 ar   
    30   27   28 ar   
    31   28   29 ar   
    32   29   30 ar   
@<TRIPOS>SUBSTRUCTURE
     1 DTP901      1 GROUP   
@<TRIPOS>SET

