#    Name: 6j6i_1_DTP
#    Modification time : Fri May 22 19:32:17 2020

@<TRIPOS>MOLECULE
6j6i_1_DTP
   30    32     1     0     0
SMALL
NO_CHARGES


@<TRIPOS>ATOM
      1 PG        228.4070  201.9360  179.1030 P.3       1 DTP901      0.0000 
      2 O1G       228.3210  200.9690  180.2480 O.co2     1 DTP901      0.0000 
      3 O2G       227.9480  203.3150  179.4750 O.co2     1 DTP901      0.0000 
      4 O3G       227.7600  201.4240  177.8440 O.co2     1 DTP901      0.0000 
      5 PB        230.6100  202.7300  177.4510 P.3       1 DTP901      0.0000 
      6 O1B       229.9700  202.0950  176.2730 O.co2     1 DTP901      0.0000 
      7 O2B       232.0910  202.7000  177.5930 O.co2     1 DTP901      0.0000 
      8 O3B       229.9550  202.0790  178.7510 O.3       1 DTP901      0.0000 
      9 PA        229.7170  205.1020  176.2310 P.3       1 DTP901      0.0000 
     10 O1A       230.4850  204.5380  175.0850 O.co2     1 DTP901      0.0000 
     11 O2A       228.2320  205.1900  176.1360 O.co2     1 DTP901      0.0000 
     12 O3A       230.0920  204.2370  177.5200 O.3       1 DTP901      0.0000 
     13 O5'       230.3100  206.5400  176.5940 O.3       1 DTP901      0.0000 
     14 C5'       229.6320  207.3540  177.5750 C.3       1 DTP901      0.0000 
     15 C4'       229.8890  208.8060  177.2600 C.3       1 DTP901      0.0000 
     16 O4'       231.2860  208.9580  176.9380 O.3       1 DTP901      0.0000 
     17 C3'       229.1070  209.3590  176.0700 C.3       1 DTP901      0.0000 
     18 O3'       228.7090  210.6950  176.3480 O.3       1 DTP901      0.0000 
     19 C2'       230.1420  209.3310  174.9520 C.3       1 DTP901      0.0000 
     20 C1'       231.4090  209.6650  175.7100 C.3       1 DTP901      0.0000 
     21 N9        232.6020  209.1670  175.0560 N.pl3     1 DTP901      0.0000 
     22 C8        233.1390  207.9180  175.1760 C.2       1 DTP901      0.0000 
     23 N7        234.2300  207.7660  174.4640 N.2       1 DTP901      0.0000 
     24 C5        234.4130  208.9920  173.8400 C.ar      1 DTP901      0.0000 
     25 C6        235.3890  209.4710  172.9510 C.ar      1 DTP901      0.0000 
     26 N6        236.4140  208.7430  172.5190 N.pl3     1 DTP901      0.0000 
     27 N1        235.2670  210.7480  172.5210 N.ar      1 DTP901      0.0000 
     28 C2        234.2340  211.4770  172.9610 C.ar      1 DTP901      0.0000 
     29 N3        233.2590  211.1310  173.7960 N.ar      1 DTP901      0.0000 
     30 C4        233.4110  209.8620  174.2010 C.ar      1 DTP901      0.0000 
@<TRIPOS>BOND
     1    1    2 ar   
     2    1    3 ar   
     3    1    4 ar   
     4    1    8 1    
     5    5    6 ar   
     6    5    7 ar   
     7    5    8 1    
     8    5   12 1    
     9    9   10 ar   
    10    9   11 ar   
    11    9   12 1    
    12    9   13 1    
    13   13   14 1    
    14   14   15 1    
    15   15   16 1    
    16   15   17 1    
    17   16   20 1    
    18   17   18 1    
    19   17   19 1    
    20   19   20 1    
    21   20   21 1    
    22   21   22 1    
    23   21   30 1    
    24   22   23 2    
    25   23   24 1    
    26   24   25 ar   
    27   24   30 ar   
    28   25   26 1    
    29   25   27 ar   
    30   27   28 ar   
    31   28   29 ar   
    32   29   30 ar   
@<TRIPOS>SUBSTRUCTURE
     1 DTP901      1 GROUP   
@<TRIPOS>SET

