#    Name: 6j6i_4_DTP
#    Modification time : Fri May 22 19:32:53 2020

@<TRIPOS>MOLECULE
6j6i_4_DTP
   30    32     1     0     0
SMALL
NO_CHARGES


@<TRIPOS>ATOM
      1 PG        175.1460  173.1520  177.0220 P.3       1 DTP901      0.0000 
      2 O1G       173.9910  174.1110  177.0180 O.co2     1 DTP901      0.0000 
      3 O2G       175.8230  173.0570  178.3600 O.co2     1 DTP901      0.0000 
      4 O3G       176.1080  173.3990  175.8930 O.co2     1 DTP901      0.0000 
      5 PB        174.5290  170.8850  175.3530 P.3       1 DTP901      0.0000 
      6 O1B       174.1650  171.7940  174.2320 O.co2     1 DTP901      0.0000 
      7 O2B       173.7720  169.6190  175.5390 O.co2     1 DTP901      0.0000 
      8 O3B       174.5320  171.7060  176.7210 O.3       1 DTP901      0.0000 
      9 PA        176.6310  169.4410  174.1440 P.3       1 DTP901      0.0000 
     10 O1A       175.6070  169.3760  173.0630 O.co2     1 DTP901      0.0000 
     11 O2A       178.0380  169.7940  173.8000 O.co2     1 DTP901      0.0000 
     12 O3A       176.0690  170.4950  175.2030 O.3       1 DTP901      0.0000 
     13 O5'       176.6070  168.0860  174.9960 O.3       1 DTP901      0.0000 
     14 C5'       177.8010  167.6630  175.7010 C.3       1 DTP901      0.0000 
     15 C4'       178.3280  166.4100  175.0470 C.3       1 DTP901      0.0000 
     16 O4'       177.2050  165.5930  174.6830 O.3       1 DTP901      0.0000 
     17 C3'       179.1290  166.6160  173.7640 C.3       1 DTP901      0.0000 
     18 O3'       180.5190  166.4370  174.0120 O.3       1 DTP901      0.0000 
     19 C2'       178.5910  165.5640  172.7940 C.3       1 DTP901      0.0000 
     20 C1'       177.6020  164.7520  173.6110 C.3       1 DTP901      0.0000 
     21 N9        176.3900  164.4620  172.8800 N.pl3     1 DTP901      0.0000 
     22 C8        175.2250  165.1740  172.9330 C.2       1 DTP901      0.0000 
     23 N7        174.2910  164.6720  172.1620 N.2       1 DTP901      0.0000 
     24 C5        174.8890  163.5710  171.5640 C.ar      1 DTP901      0.0000 
     25 C6        174.4220  162.6240  170.6380 C.ar      1 DTP901      0.0000 
     26 N6        173.1940  162.6300  170.1320 N.pl3     1 DTP901      0.0000 
     27 N1        175.2850  161.6560  170.2510 N.ar      1 DTP901      0.0000 
     28 C2        176.5200  161.6540  170.7660 C.ar      1 DTP901      0.0000 
     29 N3        177.0670  162.4910  171.6420 N.ar      1 DTP901      0.0000 
     30 C4        176.1860  163.4350  172.0020 C.ar      1 DTP901      0.0000 
@<TRIPOS>BOND
     1    1    2 ar   
     2    1    3 ar   
     3    1    4 ar   
     4    1    8 1    
     5    5    6 ar   
     6    5    7 ar   
     7    5    8 1    
     8    5   12 1    
     9    9   10 ar   
    10    9   11 ar   
    11    9   12 1    
    12    9   13 1    
    13   13   14 1    
    14   14   15 1    
    15   15   16 1    
    16   15   17 1    
    17   16   20 1    
    18   17   18 1    
    19   17   19 1    
    20   19   20 1    
    21   20   21 1    
    22   21   22 1    
    23   21   30 1    
    24   22   23 2    
    25   23   24 1    
    26   24   25 ar   
    27   24   30 ar   
    28   25   26 1    
    29   25   27 ar   
    30   27   28 ar   
    31   28   29 ar   
    32   29   30 ar   
@<TRIPOS>SUBSTRUCTURE
     1 DTP901      1 GROUP   
@<TRIPOS>SET

