#    Name: 6bqg_1_ERM
#    Modification time : Fri May 22 19:31:11 2020

@<TRIPOS>MOLECULE
6bqg_1_ERM
   43    50     1     0     0
SMALL
NO_CHARGES


@<TRIPOS>ATOM
      1 C1         23.0040   35.8990   49.5800 C.2       1 ERM1201     0.0000 
      2 N1         22.7170   37.1920   49.8450 N.pl3     1 ERM1201     0.0000 
      3 O1         21.3260   32.8330   56.9360 O.2       1 ERM1201     0.0000 
      4 C10        21.6890   36.8210   53.8300 C.ar      1 ERM1201     0.0000 
      5 C11        21.6090   38.1420   53.3250 C.ar      1 ERM1201     0.0000 
      6 C12        21.9420   38.3970   51.9530 C.ar      1 ERM1201     0.0000 
      7 C13        22.3270   37.3460   51.1770 C.ar      1 ERM1201     0.0000 
      8 C14        22.4060   36.0400   51.6810 C.ar      1 ERM1201     0.0000 
      9 C15        21.9610   30.7550   51.9580 C.3       1 ERM1201     0.0000 
     10 C16        22.3050   32.2340   56.5340 C.2       1 ERM1201     0.0000 
     11 C17        22.6570   30.8430   58.6000 C.3       1 ERM1201     0.0000 
     12 C18        22.2800   31.9620   59.5280 C.2       1 ERM1201     0.0000 
     13 C19        20.2660   32.5530   60.7920 C.3       1 ERM1201     0.0000 
     14 N2         22.6460   31.8410   52.7070 N.4       1 ERM1201     0.0000 
     15 C2         22.8250   35.1320   50.6890 C.2       1 ERM1201     0.0000 
     16 O2         21.5180   29.9780   58.6350 O.3       1 ERM1201     0.0000 
     17 C20        19.3630   31.6760   61.6790 C.2       1 ERM1201     0.0000 
     18 C21        18.4300   29.4290   62.2130 C.3       1 ERM1201     0.0000 
     19 C22        18.0310   28.3030   61.2830 C.3       1 ERM1201     0.0000 
     20 C23        18.9540   28.4280   60.0360 C.3       1 ERM1201     0.0000 
     21 C24        19.8810   29.5900   60.4270 C.3       1 ERM1201     0.0000 
     22 C25        20.3890   30.5120   59.3230 C.3       1 ERM1201     0.0000 
     23 C26        23.9410   30.1680   59.0560 C.3       1 ERM1201     0.0000 
     24 C27        19.4230   33.6120   60.1290 C.3       1 ERM1201     0.0000 
     25 C28        18.8460   34.6710   61.0520 C.ar      1 ERM1201     0.0000 
     26 C29        19.7350   35.4720   61.8020 C.ar      1 ERM1201     0.0000 
     27 C3         22.9880   33.6690   50.9920 C.3       1 ERM1201     0.0000 
     28 N3         22.9760   31.2990   57.2440 N.am      1 ERM1201     0.0000 
     29 O3         22.9990   32.8800   59.8620 O.2       1 ERM1201     0.0000 
     30 C30        19.2510   36.4650   62.6740 C.ar      1 ERM1201     0.0000 
     31 C31        17.8680   36.6580   62.7980 C.ar      1 ERM1201     0.0000 
     32 C32        16.9830   35.8590   62.0500 C.ar      1 ERM1201     0.0000 
     33 C33        17.4580   34.8650   61.1760 C.ar      1 ERM1201     0.0000 
     34 C4         22.1980   33.2330   52.2830 C.3       1 ERM1201     0.0000 
     35 N4         21.0110   31.7090   59.8820 N.am      1 ERM1201     0.0000 
     36 O4         18.7320   32.1810   62.6240 O.2       1 ERM1201     0.0000 
     37 C5         22.4150   31.4620   54.1460 C.3       1 ERM1201     0.0000 
     38 N5         19.2410   30.3760   61.4590 N.am      1 ERM1201     0.0000 
     39 O5         19.3880   30.8460   58.4190 O.3       1 ERM1201     0.0000 
     40 C6         22.8530   32.5400   55.1140 C.3       1 ERM1201     0.0000 
     41 C7         22.5410   33.9450   54.6770 C.2       1 ERM1201     0.0000 
     42 C8         22.2230   34.2670   53.4260 C.2       1 ERM1201     0.0000 
     43 C9         22.0870   35.7330   53.0310 C.ar      1 ERM1201     0.0000 
@<TRIPOS>BOND
     1    1    2 1    
     2    1   15 2    
     3    2    7 1    
     4    3   10 2    
     5    4    5 ar   
     6    4   43 ar   
     7    5    6 ar   
     8    6    7 ar   
     9    7    8 ar   
    10    8   15 1    
    11    8   43 ar   
    12    9   14 1    
    13   10   28 am   
    14   10   40 1    
    15   11   12 1    
    16   11   16 1    
    17   11   23 1    
    18   11   28 1    
    19   12   29 2    
    20   12   35 am   
    21   13   17 1    
    22   13   24 1    
    23   13   35 1    
    24   14   34 1    
    25   14   37 1    
    26   15   27 1    
    27   16   22 1    
    28   17   36 2    
    29   17   38 am   
    30   18   19 1    
    31   18   38 1    
    32   19   20 1    
    33   20   21 1    
    34   21   22 1    
    35   21   38 1    
    36   22   35 1    
    37   22   39 1    
    38   24   25 1    
    39   25   26 ar   
    40   25   33 ar   
    41   26   30 ar   
    42   27   34 1    
    43   30   31 ar   
    44   31   32 ar   
    45   32   33 ar   
    46   34   42 1    
    47   37   40 1    
    48   40   41 1    
    49   41   42 2    
    50   42   43 1    
@<TRIPOS>SUBSTRUCTURE
     1 ERM1201     1 GROUP   
@<TRIPOS>SET

