#    Name: 6rv3_3_Y01
#    Modification time : Fri May 22 19:27:15 2020

@<TRIPOS>MOLECULE
6rv3_3_Y01
   35    38     1     0     0
SMALL
NO_CHARGES


@<TRIPOS>ATOM
      1 CAA       -15.4610  -49.5860   33.6220 C.3       1 Y01302      0.0000 
      2 CBA       -16.2900  -50.0890   32.4370 C.3       1 Y01302      0.0000 
      3 CAB       -17.6420  -49.3870   32.3750 C.3       1 Y01302      0.0000 
      4 CAN       -16.4790  -51.6020   32.3440 C.3       1 Y01302      0.0000 
      5 CAJ       -15.2290  -52.4670   32.2630 C.3       1 Y01302      0.0000 
      6 CAO       -15.5110  -53.9040   31.8490 C.3       1 Y01302      0.0000 
      7 CBB       -14.4300  -54.9190   32.2710 C.3       1 Y01302      0.0000 
      8 CAC       -14.7200  -55.4360   33.6810 C.3       1 Y01302      0.0000 
      9 CBE       -14.2540  -56.0380   31.2160 C.3       1 Y01302      0.0000 
     10 CAP       -13.9710  -55.4770   29.7980 C.3       1 Y01302      0.0000 
     11 CAQ       -13.1300  -56.5390   29.0610 C.3       1 Y01302      0.0000 
     12 CBG       -13.1840  -57.7620   29.9900 C.3       1 Y01302      0.0000 
     13 CBI       -13.1720  -57.1400   31.4100 C.3       1 Y01302      0.0000 
     14 CAE       -11.7990  -56.5400   31.7910 C.3       1 Y01302      0.0000 
     15 CAU       -13.5400  -58.2810   32.3760 C.3       1 Y01302      0.0000 
     16 CAS       -12.6130  -59.4950   32.2550 C.3       1 Y01302      0.0000 
     17 CBF       -12.4910  -60.0450   30.8210 C.3       1 Y01302      0.0000 
     18 CBD       -12.1980  -58.9310   29.7850 C.3       1 Y01302      0.0000 
     19 CAK       -12.3100  -59.4990   28.3700 C.3       1 Y01302      0.0000 
     20 CAI       -11.6700  -60.8480   28.2310 C.2       1 Y01302      0.0000 
     21 CAZ       -11.3120  -61.6390   29.2450 C.2       1 Y01302      0.0000 
     22 CAV       -10.6780  -62.9900   28.9730 C.3       1 Y01302      0.0000 
     23 CBH       -11.4910  -61.2460   30.7160 C.3       1 Y01302      0.0000 
     24 CAD       -10.1040  -60.8880   31.2990 C.3       1 Y01302      0.0000 
     25 CAT       -12.0810  -62.4470   31.4910 C.3       1 Y01302      0.0000 
     26 CAR       -11.3820  -63.7870   31.2360 C.3       1 Y01302      0.0000 
     27 CBC       -11.3520  -64.1040   29.7570 C.3       1 Y01302      0.0000 
     28 OAW       -10.5590  -65.3230   29.5740 O.3       1 Y01302      0.0000 
     29 CAY       -11.1820  -66.5190   29.5540 C.2       1 Y01302      0.0000 
     30 OAG       -12.3720  -66.6600   29.5950 O.2       1 Y01302      0.0000 
     31 CAM       -10.1920  -67.6420   29.4990 C.3       1 Y01302      0.0000 
     32 CAL        -9.5090  -67.9090   30.8310 C.3       1 Y01302      0.0000 
     33 CAX       -10.4510  -68.2800   31.9380 C.2       1 Y01302      0.0000 
     34 OAH       -10.4380  -67.4420   32.9420 O.co2     1 Y01302      0.0000 
     35 OAF       -11.1410  -69.2750   31.9120 O.co2     1 Y01302      0.0000 
@<TRIPOS>BOND
     1    1    2 1    
     2    2    3 1    
     3    2    4 1    
     4    4    5 1    
     5    5    6 1    
     6    6    7 1    
     7    7    8 1    
     8    7    9 1    
     9    9   10 1    
    10    9   13 1    
    11   10   11 1    
    12   11   12 1    
    13   12   13 1    
    14   12   18 1    
    15   13   14 1    
    16   13   15 1    
    17   15   16 1    
    18   16   17 1    
    19   17   18 1    
    20   17   23 1    
    21   18   19 1    
    22   19   20 1    
    23   20   21 2    
    24   21   22 1    
    25   21   23 1    
    26   22   27 1    
    27   23   24 1    
    28   23   25 1    
    29   25   26 1    
    30   26   27 1    
    31   27   28 1    
    32   28   29 1    
    33   29   30 2    
    34   29   31 1    
    35   31   32 1    
    36   32   33 1    
    37   33   34 ar   
    38   33   35 ar   
@<TRIPOS>SUBSTRUCTURE
     1 Y01302      1 GROUP   
@<TRIPOS>SET

