#    Name: 6rv3_5_Y01
#    Modification time : Fri May 22 19:27:23 2020

@<TRIPOS>MOLECULE
6rv3_5_Y01
   35    38     1     0     0
SMALL
NO_CHARGES


@<TRIPOS>ATOM
      1 CAA       -32.5280   26.4470   45.5370 C.3       1 Y01305      0.0000 
      2 CBA       -31.1600   26.6600   46.1230 C.3       1 Y01305      0.0000 
      3 CAB       -30.3600   27.6710   45.2960 C.3       1 Y01305      0.0000 
      4 CAN       -31.3290   26.8980   47.6210 C.3       1 Y01305      0.0000 
      5 CAJ       -30.0600   26.8930   48.4530 C.3       1 Y01305      0.0000 
      6 CAO       -30.2710   26.5030   49.9090 C.3       1 Y01305      0.0000 
      7 CBB       -29.1020   26.8760   50.8390 C.3       1 Y01305      0.0000 
      8 CAC       -29.2740   28.3120   51.3330 C.3       1 Y01305      0.0000 
      9 CBE       -28.9280   25.8390   51.9720 C.3       1 Y01305      0.0000 
     10 CAP       -28.7460   24.3980   51.4340 C.3       1 Y01305      0.0000 
     11 CAQ       -27.9330   23.6320   52.5020 C.3       1 Y01305      0.0000 
     12 CBG       -27.8660   24.6050   53.6930 C.3       1 Y01305      0.0000 
     13 CBI       -27.7900   25.9990   53.0180 C.3       1 Y01305      0.0000 
     14 CAE       -26.4230   26.2680   52.3430 C.3       1 Y01305      0.0000 
     15 CAU       -28.0450   27.0250   54.1390 C.3       1 Y01305      0.0000 
     16 CAS       -27.0850   26.8840   55.3230 C.3       1 Y01305      0.0000 
     17 CBF       -27.0170   25.4640   55.9110 C.3       1 Y01305      0.0000 
     18 CBD       -26.8400   24.3770   54.8240 C.3       1 Y01305      0.0000 
     19 CAK       -27.0090   22.9900   55.4480 C.3       1 Y01305      0.0000 
     20 CAI       -26.3280   22.8610   56.7780 C.2       1 Y01305      0.0000 
     21 CAZ       -25.8730   23.8780   57.5130 C.2       1 Y01305      0.0000 
     22 CAV       -25.2040   23.6200   58.8500 C.3       1 Y01305      0.0000 
     23 CBH       -25.9680   25.3390   57.0620 C.3       1 Y01305      0.0000 
     24 CAD       -24.5610   25.7980   56.6090 C.3       1 Y01305      0.0000 
     25 CAT       -26.4440   26.2050   58.2530 C.3       1 Y01305      0.0000 
     26 CAR       -25.7020   25.9630   59.5700 C.3       1 Y01305      0.0000 
     27 CBC       -25.7660   24.5020   59.9540 C.3       1 Y01305      0.0000 
     28 OAW       -24.9200   24.3280   61.1370 O.3       1 Y01305      0.0000 
     29 CAY       -25.4770   24.3990   62.3610 C.2       1 Y01305      0.0000 
     30 OAG       -26.6580   24.5060   62.5580 O.2       1 Y01305      0.0000 
     31 CAM       -24.4280   24.3440   63.4320 C.3       1 Y01305      0.0000 
     32 CAL       -23.6590   25.6470   63.6010 C.3       1 Y01305      0.0000 
     33 CAX       -24.5240   26.8130   63.9780 C.2       1 Y01305      0.0000 
     34 OAH       -24.8810   26.8060   65.2300 O.co2     1 Y01305      0.0000 
     35 OAF       -24.8640   27.6710   63.1910 O.co2     1 Y01305      0.0000 
@<TRIPOS>BOND
     1    1    2 1    
     2    2    3 1    
     3    2    4 1    
     4    4    5 1    
     5    5    6 1    
     6    6    7 1    
     7    7    8 1    
     8    7    9 1    
     9    9   10 1    
    10    9   13 1    
    11   10   11 1    
    12   11   12 1    
    13   12   13 1    
    14   12   18 1    
    15   13   14 1    
    16   13   15 1    
    17   15   16 1    
    18   16   17 1    
    19   17   18 1    
    20   17   23 1    
    21   18   19 1    
    22   19   20 1    
    23   20   21 2    
    24   21   22 1    
    25   21   23 1    
    26   22   27 1    
    27   23   24 1    
    28   23   25 1    
    29   25   26 1    
    30   26   27 1    
    31   27   28 1    
    32   28   29 1    
    33   29   30 2    
    34   29   31 1    
    35   31   32 1    
    36   32   33 1    
    37   33   34 ar   
    38   33   35 ar   
@<TRIPOS>SUBSTRUCTURE
     1 Y01305      1 GROUP   
@<TRIPOS>SET

