#    Name: 6rv3_6_Y01
#    Modification time : Fri May 22 19:27:30 2020

@<TRIPOS>MOLECULE
6rv3_6_Y01
   35    38     1     0     0
SMALL
NO_CHARGES


@<TRIPOS>ATOM
      1 CAA        -7.0860   30.7530   41.1000 C.3       1 Y01702      0.0000 
      2 CBA        -6.2000   31.3680   40.0270 C.3       1 Y01702      0.0000 
      3 CAB        -4.8960   30.6130   39.9220 C.3       1 Y01702      0.0000 
      4 CAN        -5.9520   32.8740   40.1270 C.3       1 Y01702      0.0000 
      5 CAJ        -7.1850   33.7650   40.1030 C.3       1 Y01702      0.0000 
      6 CAO        -6.9220   35.2010   39.6720 C.3       1 Y01702      0.0000 
      7 CBB        -8.0100   36.2030   40.1050 C.3       1 Y01702      0.0000 
      8 CAC        -7.7110   36.7090   41.5160 C.3       1 Y01702      0.0000 
      9 CBE        -8.1940   37.3290   39.0610 C.3       1 Y01702      0.0000 
     10 CAP        -8.4960   36.7760   37.6460 C.3       1 Y01702      0.0000 
     11 CAQ        -9.2910   37.8730   36.9070 C.3       1 Y01702      0.0000 
     12 CBG        -9.2490   39.0800   37.8610 C.3       1 Y01702      0.0000 
     13 CBI        -9.2690   38.4330   39.2710 C.3       1 Y01702      0.0000 
     14 CAE       -10.6480   37.8340   39.6370 C.3       1 Y01702      0.0000 
     15 CAU        -8.8980   39.5610   40.2530 C.3       1 Y01702      0.0000 
     16 CAS        -9.8220   40.7800   40.1510 C.3       1 Y01702      0.0000 
     17 CBF        -9.9590   41.3480   38.7250 C.3       1 Y01702      0.0000 
     18 CBD       -10.2410   40.2490   37.6720 C.3       1 Y01702      0.0000 
     19 CAK       -10.1210   40.8420   36.2670 C.3       1 Y01702      0.0000 
     20 CAI       -10.7610   42.1940   36.1490 C.2       1 Y01702      0.0000 
     21 CAZ       -11.1370   42.9600   37.1740 C.2       1 Y01702      0.0000 
     22 CAV       -11.7750   44.3140   36.9240 C.3       1 Y01702      0.0000 
     23 CBH       -10.9740   42.5350   38.6370 C.3       1 Y01702      0.0000 
     24 CAD       -12.3660   42.1440   39.1890 C.3       1 Y01702      0.0000 
     25 CAT       -10.4130   43.7260   39.4510 C.3       1 Y01702      0.0000 
     26 CAR       -11.1160   45.0680   39.2130 C.3       1 Y01702      0.0000 
     27 CBC       -11.1180   45.4120   37.7420 C.3       1 Y01702      0.0000 
     28 OAW       -11.9000   46.6360   37.5690 O.3       1 Y01702      0.0000 
     29 CAY       -11.2550   47.8240   37.5340 C.2       1 Y01702      0.0000 
     30 OAG       -10.0570   47.9450   37.5680 O.2       1 Y01702      0.0000 
     31 CAM       -12.2260   48.9650   37.4680 C.3       1 Y01702      0.0000 
     32 CAL       -12.9130   49.2500   38.7940 C.3       1 Y01702      0.0000 
     33 CAX       -11.9720   49.5800   39.9180 C.2       1 Y01702      0.0000 
     34 OAH       -11.5120   50.8020   39.8650 O.co2     1 Y01702      0.0000 
     35 OAF       -11.6710   48.7830   40.7910 O.co2     1 Y01702      0.0000 
@<TRIPOS>BOND
     1    1    2 1    
     2    2    3 1    
     3    2    4 1    
     4    4    5 1    
     5    5    6 1    
     6    6    7 1    
     7    7    8 1    
     8    7    9 1    
     9    9   10 1    
    10    9   13 1    
    11   10   11 1    
    12   11   12 1    
    13   12   13 1    
    14   12   18 1    
    15   13   14 1    
    16   13   15 1    
    17   15   16 1    
    18   16   17 1    
    19   17   18 1    
    20   17   23 1    
    21   18   19 1    
    22   19   20 1    
    23   20   21 2    
    24   21   22 1    
    25   21   23 1    
    26   22   27 1    
    27   23   24 1    
    28   23   25 1    
    29   25   26 1    
    30   26   27 1    
    31   27   28 1    
    32   28   29 1    
    33   29   30 2    
    34   29   31 1    
    35   31   32 1    
    36   32   33 1    
    37   33   34 ar   
    38   33   35 ar   
@<TRIPOS>SUBSTRUCTURE
     1 Y01702      1 GROUP   
@<TRIPOS>SET

