#    Name: 6o0h_4_ADP
#    Modification time : Fri May 22 19:33:19 2020

@<TRIPOS>MOLECULE
6o0h_4_ADP
   27    29     1     0     1
SMALL
NO_CHARGES


@<TRIPOS>ATOM
      1 PB         96.5460   83.3220   89.0130 P.3       1 ADP2002     0.0000 
      2 O1B        96.6920   82.6580   87.6680 O.co2     1 ADP2002     0.0000 
      3 O2B        97.6890   84.2210   89.4060 O.co2     1 ADP2002     0.0000 
      4 O3B        95.1760   83.8950   89.2540 O.co2     1 ADP2002     0.0000 
      5 PA         96.6470   82.3930   91.6340 P.3       1 ADP2002     0.0000 
      6 O1A        95.3430   83.0610   91.9620 O.co2     1 ADP2002     0.0000 
      7 O2A        97.9630   82.9820   92.0680 O.co2     1 ADP2002     0.0000 
      8 O3A        96.6640   82.1130   90.0560 O.3       1 ADP2002     0.0000 
      9 O5'        96.5510   80.8970   92.1860 O.3       1 ADP2002     0.0000 
     10 C5'        95.4200   80.5570   92.9670 C.3       1 ADP2002     0.0000 
     11 C4'        94.8220   79.2990   92.3640 C.3       1 ADP2002     0.0000 
     12 O4'        95.2780   78.1880   93.1270 O.3       1 ADP2002     0.0000 
     13 C3'        93.3060   79.3180   92.4110 C.3       1 ADP2002     0.0000 
     14 O3'        92.7740   79.1210   91.0990 O.3       1 ADP2002     0.0000 
     15 C2'        92.9060   78.1490   93.2710 C.3       1 ADP2002     0.0000 
     16 O2'        92.1520   77.2370   92.4760 O.3       1 ADP2002     0.0000 
     17 C1'        94.1900   77.4720   93.6930 C.3       1 ADP2002     0.0000 
     18 N9         94.3550   77.5990   95.1490 N.pl3     1 ADP2002     0.0000 
     19 C8         95.3460   78.2850   95.7420 C.2       1 ADP2002     0.0000 
     20 N7         95.2350   78.2180   97.0880 N.2       1 ADP2002     0.0000 
     21 C5         94.1550   77.4680   97.3620 C.ar      1 ADP2002     0.0000 
     22 C6         93.4720   77.0020   98.5820 C.ar      1 ADP2002     0.0000 
     23 N6         93.9430   77.3290   99.8060 N.pl3     1 ADP2002     0.0000 
     24 N1         92.3710   76.2420   98.4330 N.ar      1 ADP2002     0.0000 
     25 C2         91.8990   75.9140   97.2200 C.ar      1 ADP2002     0.0000 
     26 N3         92.4670   76.2970   96.0710 N.ar      1 ADP2002     0.0000 
     27 C4         93.5760   77.0640   96.0790 C.ar      1 ADP2002     0.0000 
@<TRIPOS>BOND
     1    1    2 ar   
     2    1    3 ar   
     3    1    4 ar   
     4    1    8 1    
     5    5    6 ar   
     6    5    7 ar   
     7    5    8 1    
     8    5    9 1    
     9    9   10 1    
    10   10   11 1    
    11   11   12 1    
    12   11   13 1    
    13   12   17 1    
    14   13   14 1    
    15   13   15 1    
    16   15   16 1    
    17   15   17 1    
    18   17   18 1    
    19   18   19 1    
    20   18   27 1    
    21   19   20 2    
    22   20   21 1    
    23   21   22 ar   
    24   21   27 ar   
    25   22   23 1    
    26   22   24 ar   
    27   24   25 ar   
    28   25   26 ar   
    29   26   27 ar   
@<TRIPOS>SUBSTRUCTURE
     1 ADP2002     1 GROUP   
@<TRIPOS>SET
ATOM$ORANGE STATIC     ATOMS   COLORGROUP SYSTEM 
20 10 10 11 11 13 13 15 15 17 17 19 19 21 21 22 22 25 \
25 27 27 

