#    Name: 6o0h_1_ADP
#    Modification time : Fri May 22 19:32:45 2020

@<TRIPOS>MOLECULE
6o0h_1_ADP
   27    29     1     0     1
SMALL
NO_CHARGES


@<TRIPOS>ATOM
      1 PB         96.5430  188.1560  182.4800 P.3       1 ADP2002     0.0000 
      2 O1B        97.6860  187.2570  182.0870 O.co2     1 ADP2002     0.0000 
      3 O2B        96.6890  188.8190  183.8250 O.co2     1 ADP2002     0.0000 
      4 O3B        95.1730  187.5830  182.2390 O.co2     1 ADP2002     0.0000 
      5 PA         96.6440  189.0850  179.8590 P.3       1 ADP2002     0.0000 
      6 O1A        97.9600  188.4960  179.4250 O.co2     1 ADP2002     0.0000 
      7 O2A        95.3400  188.4170  179.5310 O.co2     1 ADP2002     0.0000 
      8 O3A        96.6610  189.3650  181.4370 O.3       1 ADP2002     0.0000 
      9 O5'        96.5480  190.5810  179.3070 O.3       1 ADP2002     0.0000 
     10 C5'        95.4170  190.9210  178.5260 C.3       1 ADP2002     0.0000 
     11 C4'        94.8190  192.1790  179.1290 C.3       1 ADP2002     0.0000 
     12 O4'        95.2750  193.2900  178.3670 O.3       1 ADP2002     0.0000 
     13 C3'        93.3030  192.1600  179.0820 C.3       1 ADP2002     0.0000 
     14 O3'        92.7710  192.3570  180.3940 O.3       1 ADP2002     0.0000 
     15 C2'        92.9030  193.3290  178.2220 C.3       1 ADP2002     0.0000 
     16 O2'        92.1490  194.2410  179.0170 O.3       1 ADP2002     0.0000 
     17 C1'        94.1870  194.0070  177.8010 C.3       1 ADP2002     0.0000 
     18 N9         94.3520  193.8800  176.3450 N.pl3     1 ADP2002     0.0000 
     19 C8         95.3430  193.1940  175.7520 C.2       1 ADP2002     0.0000 
     20 N7         95.2330  193.2610  174.4060 N.2       1 ADP2002     0.0000 
     21 C5         94.1530  194.0110  174.1320 C.ar      1 ADP2002     0.0000 
     22 C6         93.4700  194.4770  172.9120 C.ar      1 ADP2002     0.0000 
     23 N6         93.9410  194.1510  171.6880 N.pl3     1 ADP2002     0.0000 
     24 N1         92.3690  195.2370  173.0610 N.ar      1 ADP2002     0.0000 
     25 C2         91.8970  195.5650  174.2740 C.ar      1 ADP2002     0.0000 
     26 N3         92.4640  195.1820  175.4230 N.ar      1 ADP2002     0.0000 
     27 C4         93.5730  194.4150  175.4150 C.ar      1 ADP2002     0.0000 
@<TRIPOS>BOND
     1    1    2 ar   
     2    1    3 ar   
     3    1    4 ar   
     4    1    8 1    
     5    5    6 ar   
     6    5    7 ar   
     7    5    8 1    
     8    5    9 1    
     9    9   10 1    
    10   10   11 1    
    11   11   12 1    
    12   11   13 1    
    13   12   17 1    
    14   13   14 1    
    15   13   15 1    
    16   15   16 1    
    17   15   17 1    
    18   17   18 1    
    19   18   19 1    
    20   18   27 1    
    21   19   20 2    
    22   20   21 1    
    23   21   22 ar   
    24   21   27 ar   
    25   22   23 1    
    26   22   24 ar   
    27   24   25 ar   
    28   25   26 ar   
    29   26   27 ar   
@<TRIPOS>SUBSTRUCTURE
     1 ADP2002     1 GROUP   
@<TRIPOS>SET
ATOM$ORANGE STATIC     ATOMS   COLORGROUP SYSTEM 
20 10 10 11 11 13 13 15 15 17 17 19 19 21 21 22 22 25 \
25 27 27 

