#    Name: 6o0h_2_ADP
#    Modification time : Fri May 22 19:32:57 2020

@<TRIPOS>MOLECULE
6o0h_2_ADP
   27    29     1     0     1
SMALL
NO_CHARGES


@<TRIPOS>ATOM
      1 PB        174.9170   83.3110  182.4940 P.3       1 ADP2002     0.0000 
      2 O1B       173.7750   84.2110  182.1000 O.co2     1 ADP2002     0.0000 
      3 O2B       174.7710   82.6480  183.8390 O.co2     1 ADP2002     0.0000 
      4 O3B       176.2880   83.8840  182.2530 O.co2     1 ADP2002     0.0000 
      5 PA        174.8170   82.3820  179.8730 P.3       1 ADP2002     0.0000 
      6 O1A       173.5010   82.9720  179.4380 O.co2     1 ADP2002     0.0000 
      7 O2A       176.1210   83.0500  179.5450 O.co2     1 ADP2002     0.0000 
      8 O3A       174.7990   82.1020  181.4510 O.3       1 ADP2002     0.0000 
      9 O5'       174.9130   80.8860  179.3210 O.3       1 ADP2002     0.0000 
     10 C5'       176.0440   80.5460  178.5400 C.3       1 ADP2002     0.0000 
     11 C4'       176.6410   79.2880  179.1430 C.3       1 ADP2002     0.0000 
     12 O4'       176.1850   78.1770  178.3810 O.3       1 ADP2002     0.0000 
     13 C3'       178.1570   79.3060  179.0970 C.3       1 ADP2002     0.0000 
     14 O3'       178.6880   79.1090  180.4090 O.3       1 ADP2002     0.0000 
     15 C2'       178.5570   78.1370  178.2370 C.3       1 ADP2002     0.0000 
     16 O2'       179.3100   77.2250  179.0320 O.3       1 ADP2002     0.0000 
     17 C1'       177.2730   77.4590  177.8150 C.3       1 ADP2002     0.0000 
     18 N9        177.1080   77.5870  176.3590 N.pl3     1 ADP2002     0.0000 
     19 C8        176.1180   78.2730  175.7660 C.2       1 ADP2002     0.0000 
     20 N7        176.2280   78.2060  174.4200 N.2       1 ADP2002     0.0000 
     21 C5        177.3080   77.4560  174.1460 C.ar      1 ADP2002     0.0000 
     22 C6        177.9910   76.9890  172.9260 C.ar      1 ADP2002     0.0000 
     23 N6        177.5210   77.3160  171.7020 N.pl3     1 ADP2002     0.0000 
     24 N1        179.0920   76.2290  173.0760 N.ar      1 ADP2002     0.0000 
     25 C2        179.5630   75.9010  174.2890 C.ar      1 ADP2002     0.0000 
     26 N3        178.9960   76.2840  175.4380 N.ar      1 ADP2002     0.0000 
     27 C4        177.8870   77.0510  175.4290 C.ar      1 ADP2002     0.0000 
@<TRIPOS>BOND
     1    1    2 ar   
     2    1    3 ar   
     3    1    4 ar   
     4    1    8 1    
     5    5    6 ar   
     6    5    7 ar   
     7    5    8 1    
     8    5    9 1    
     9    9   10 1    
    10   10   11 1    
    11   11   12 1    
    12   11   13 1    
    13   12   17 1    
    14   13   14 1    
    15   13   15 1    
    16   15   16 1    
    17   15   17 1    
    18   17   18 1    
    19   18   19 1    
    20   18   27 1    
    21   19   20 2    
    22   20   21 1    
    23   21   22 ar   
    24   21   27 ar   
    25   22   23 1    
    26   22   24 ar   
    27   24   25 ar   
    28   25   26 ar   
    29   26   27 ar   
@<TRIPOS>SUBSTRUCTURE
     1 ADP2002     1 GROUP   
@<TRIPOS>SET
ATOM$ORANGE STATIC     ATOMS   COLORGROUP SYSTEM 
20 10 10 11 11 13 13 15 15 17 17 19 19 21 21 22 22 25 \
25 27 27 

