#    Name: 6o0h_3_ADP
#    Modification time : Fri May 22 19:33:08 2020

@<TRIPOS>MOLECULE
6o0h_3_ADP
   27    29     1     0     1
SMALL
NO_CHARGES


@<TRIPOS>ATOM
      1 PB        174.9160  188.1770   88.9920 P.3       1 ADP2002     0.0000 
      2 O1B       174.7690  188.8400   87.6480 O.co2     1 ADP2002     0.0000 
      3 O2B       173.7740  187.2780   89.3860 O.co2     1 ADP2002     0.0000 
      4 O3B       176.2870  187.6050   89.2330 O.co2     1 ADP2002     0.0000 
      5 PA        174.8160  189.1060   91.6140 P.3       1 ADP2002     0.0000 
      6 O1A       176.1200  188.4390   91.9410 O.co2     1 ADP2002     0.0000 
      7 O2A       173.5000  188.5170   92.0480 O.co2     1 ADP2002     0.0000 
      8 O3A       174.7980  189.3860   90.0360 O.3       1 ADP2002     0.0000 
      9 O5'       174.9110  190.6020   92.1650 O.3       1 ADP2002     0.0000 
     10 C5'       176.0430  190.9430   92.9460 C.3       1 ADP2002     0.0000 
     11 C4'       176.6400  192.2010   92.3430 C.3       1 ADP2002     0.0000 
     12 O4'       176.1840  193.3120   93.1050 O.3       1 ADP2002     0.0000 
     13 C3'       178.1560  192.1830   92.3890 C.3       1 ADP2002     0.0000 
     14 O3'       178.6870  192.3800   91.0770 O.3       1 ADP2002     0.0000 
     15 C2'       178.5560  193.3520   93.2490 C.3       1 ADP2002     0.0000 
     16 O2'       179.3090  194.2640   92.4540 O.3       1 ADP2002     0.0000 
     17 C1'       177.2710  194.0290   93.6710 C.3       1 ADP2002     0.0000 
     18 N9        177.1070  193.9020   95.1270 N.pl3     1 ADP2002     0.0000 
     19 C8        176.1170  193.2160   95.7200 C.2       1 ADP2002     0.0000 
     20 N7        176.2270  193.2830   97.0660 N.2       1 ADP2002     0.0000 
     21 C5        177.3070  194.0330   97.3400 C.ar      1 ADP2002     0.0000 
     22 C6        177.9900  194.5000   98.5590 C.ar      1 ADP2002     0.0000 
     23 N6        177.5200  194.1730   99.7830 N.pl3     1 ADP2002     0.0000 
     24 N1        179.0910  195.2600   98.4100 N.ar      1 ADP2002     0.0000 
     25 C2        179.5620  195.5880   97.1970 C.ar      1 ADP2002     0.0000 
     26 N3        178.9950  195.2050   96.0480 N.ar      1 ADP2002     0.0000 
     27 C4        177.8860  194.4380   96.0560 C.ar      1 ADP2002     0.0000 
@<TRIPOS>BOND
     1    1    2 ar   
     2    1    3 ar   
     3    1    4 ar   
     4    1    8 1    
     5    5    6 ar   
     6    5    7 ar   
     7    5    8 1    
     8    5    9 1    
     9    9   10 1    
    10   10   11 1    
    11   11   12 1    
    12   11   13 1    
    13   12   17 1    
    14   13   14 1    
    15   13   15 1    
    16   15   16 1    
    17   15   17 1    
    18   17   18 1    
    19   18   19 1    
    20   18   27 1    
    21   19   20 2    
    22   20   21 1    
    23   21   22 ar   
    24   21   27 ar   
    25   22   23 1    
    26   22   24 ar   
    27   24   25 ar   
    28   25   26 ar   
    29   26   27 ar   
@<TRIPOS>SUBSTRUCTURE
     1 ADP2002     1 GROUP   
@<TRIPOS>SET
ATOM$ORANGE STATIC     ATOMS   COLORGROUP SYSTEM 
20 10 10 11 11 13 13 15 15 17 17 19 19 21 21 22 22 25 \
25 27 27 

