#    Name: 6cxx_2_COD
#    Modification time : Fri May 22 19:23:51 2020

@<TRIPOS>MOLECULE
6cxx_2_COD
   44    46     1     0     0
SMALL
NO_CHARGES


@<TRIPOS>ATOM
      1 N1         31.2310    4.3900   36.7670 N.ar      1 COD404      0.0000 
      2 C2         31.5260    5.5630   36.1490 C.ar      1 COD404      0.0000 
      3 N3         31.3720    5.7770   34.8140 N.ar      1 COD404      0.0000 
      4 C4         30.8790    4.7870   34.0340 C.ar      1 COD404      0.0000 
      5 C5         30.4550    3.5070   34.5860 C.ar      1 COD404      0.0000 
      6 C6         30.6710    3.3770   36.0360 C.ar      1 COD404      0.0000 
      7 N7         30.3580    2.2030   36.5960 N.pl3     1 COD404      0.0000 
      8 N8         29.9700    2.7370   33.5610 N.2       1 COD404      0.0000 
      9 C9         30.0570    3.5150   32.4520 C.2       1 COD404      0.0000 
     10 N10        30.6010    4.7430   32.7630 N.pl3     1 COD404      0.0000 
     11 C11        30.9070    5.8460   31.8900 C.3       1 COD404      0.0000 
     12 C12        31.4370    5.4090   30.5140 C.3       1 COD404      0.0000 
     13 O13        32.8080    5.0200   30.5150 O.3       1 COD404      0.0000 
     14 C14        31.1450    6.6230   29.6990 C.3       1 COD404      0.0000 
     15 O15        32.2830    7.4870   29.5670 O.3       1 COD404      0.0000 
     16 C16        30.0120    7.3400   30.4520 C.3       1 COD404      0.0000 
     17 O17        29.7320    6.5170   31.6100 O.3       1 COD404      0.0000 
     18 C18        28.7480    7.4250   29.6530 C.3       1 COD404      0.0000 
     19 O19        28.8790    8.1380   28.4510 O.3       1 COD404      0.0000 
     20 P20        27.9250    7.9170   27.2100 P.3       1 COD404      0.0000 
     21 O21        27.4780    6.4650   27.1620 O.co2     1 COD404      0.0000 
     22 O22        28.6970    8.4130   26.0070 O.co2     1 COD404      0.0000 
     23 O23        26.6930    8.8470   27.4660 O.3       1 COD404      0.0000 
     24 P24        26.4640   10.3840   27.2070 P.3       1 COD404      0.0000 
     25 O25        26.1430   10.6320   25.7390 O.co2     1 COD404      0.0000 
     26 O26        27.5160   11.2460   27.8260 O.co2     1 COD404      0.0000 
     27 O27        25.0940   10.5590   28.0590 O.3       1 COD404      0.0000 
     28 C28        23.8590   10.0920   27.5300 C.3       1 COD404      0.0000 
     29 C29        22.9020    9.9220   28.7110 C.3       1 COD404      0.0000 
     30 C30        23.4980    8.8750   29.5980 C.3       1 COD404      0.0000 
     31 C31        22.7190   11.2450   29.4980 C.3       1 COD404      0.0000 
     32 C32        21.5600    9.5690   28.0270 C.3       1 COD404      0.0000 
     33 O33        21.7030    8.3780   27.2750 O.3       1 COD404      0.0000 
     34 C34        20.4220    9.3570   28.9880 C.2       1 COD404      0.0000 
     35 O35        20.3340    8.2930   29.6280 O.2       1 COD404      0.0000 
     36 N36        19.5300   10.3510   29.0070 N.am      1 COD404      0.0000 
     37 C37        18.2980   10.2870   29.8060 C.3       1 COD404      0.0000 
     38 C38        17.2900   11.3210   29.3890 C.3       1 COD404      0.0000 
     39 C39        16.7280   11.0310   28.0240 C.2       1 COD404      0.0000 
     40 O40        16.4020    9.9120   27.7230 O.2       1 COD404      0.0000 
     41 N41        16.5250   12.1010   27.2940 N.am      1 COD404      0.0000 
     42 C42        15.9320   12.0480   25.9580 C.3       1 COD404      0.0000 
     43 C43        16.8730   12.5960   24.8790 C.3       1 COD404      0.0000 
     44 S44        18.4970   11.7490   24.8220 S.3       1 COD404      0.0000 
@<TRIPOS>BOND
     1    1    2 ar   
     2    1    6 ar   
     3    2    3 ar   
     4    3    4 ar   
     5    4    5 ar   
     6    4   10 1    
     7    5    6 ar   
     8    5    8 1    
     9    6    7 1    
    10    8    9 2    
    11    9   10 1    
    12   10   11 1    
    13   11   12 1    
    14   11   17 1    
    15   12   13 1    
    16   12   14 1    
    17   14   15 1    
    18   14   16 1    
    19   16   17 1    
    20   16   18 1    
    21   18   19 1    
    22   19   20 1    
    23   20   21 ar   
    24   20   22 ar   
    25   20   23 1    
    26   23   24 1    
    27   24   25 ar   
    28   24   26 ar   
    29   24   27 1    
    30   27   28 1    
    31   28   29 1    
    32   29   30 1    
    33   29   31 1    
    34   29   32 1    
    35   32   33 1    
    36   32   34 1    
    37   34   35 2    
    38   34   36 am   
    39   36   37 1    
    40   37   38 1    
    41   38   39 1    
    42   39   40 2    
    43   39   41 am   
    44   41   42 1    
    45   42   43 1    
    46   43   44 1    
@<TRIPOS>SUBSTRUCTURE
     1 COD404      1 GROUP   
@<TRIPOS>SET

