#    Name: 5yaq_4_NAD_CAVITY_N1_4
#    Modification time : Fri May 22 19:16:05 2020

@<TRIPOS>MOLECULE
5yaq_4_NAD_CAVITY_N1_4
   81     0     7     0     0
SMALL
NO_CHARGES


@<TRIPOS>ATOM
      1 OG         -9.0800   -6.9700   -7.7200 O.3       1 SER1        0.0000 
      2 OG         -8.0200   -7.8300   -8.3300 O.3       1 SER1        0.0000 
      3 OG         -7.0100   -7.2700   -7.3600 O.3       1 SER1        0.0000 
      4 OG         -7.7500   -5.3200   -7.7200 O.3       1 SER1        0.0000 
      5 OG         -6.6800   -6.1800   -8.3300 O.3       1 SER1        0.0000 
      6 OG         -7.4200   -4.2200   -8.7000 O.3       1 SER1        0.0000 
      7 OG         -7.0900   -3.1300   -9.6700 O.3       1 SER1        0.0000 
      8 O          -9.5100   -9.3900  -19.8400 O.2       2 ALA2        0.0000 
      9 O         -10.2400  -10.1600  -16.3200 O.2       2 ALA2        0.0000 
     10 O          -9.9100   -9.0600  -17.2900 O.2       2 ALA2        0.0000 
     11 O          -8.5100   -8.8300  -18.8700 O.2       2 ALA2        0.0000 
     12 N          -9.2500   -6.8800  -19.2400 N.am      2 ALA2        0.0000 
     13 N          -8.9200   -5.7800  -20.2100 N.am      2 ALA2        0.0000 
     14 O          -7.8400   -9.3700  -16.9300 O.2       2 ALA2        0.0000 
     15 N          -9.6400   -6.5500  -16.6900 N.am      2 ALA2        0.0000 
     16 N          -8.2400   -6.3200  -18.2700 N.am      2 ALA2        0.0000 
     17 O          -7.1800   -7.1800  -18.8800 O.2       2 ALA2        0.0000 
     18 N          -8.6400   -5.9900  -15.7200 N.am      2 ALA2        0.0000 
     19 N          -8.3100   -4.9000  -16.7000 N.am      2 ALA2        0.0000 
     20 N          -6.3000   -3.7800  -14.7600 N.am      2 ALA2        0.0000 
     21 N          -5.2400   -4.6500  -15.3700 N.am      2 ALA2        0.0000 
     22 N          -5.6200   -7.0400   -8.9400 N.am      2 ALA2        0.0000 
     23 N          -8.4900   -3.3600   -8.0900 N.am      2 ALA2        0.0000 
     24 OD1        -8.5000  -11.5500  -14.9900 O.co2     3 ASP3        0.0000 
     25 OD1        -8.1700  -10.4600  -15.9600 O.co2     3 ASP3        0.0000 
     26 OD1        -8.9100   -8.5100  -16.3300 O.co2     3 ASP3        0.0000 
     27 OD1        -8.5600  -10.1300  -13.4100 O.co2     3 ASP3        0.0000 
     28 OD1        -7.9000   -7.9500  -15.3600 O.co2     3 ASP3        0.0000 
     29 OD1        -8.3000   -7.6200  -12.8100 O.co2     3 ASP3        0.0000 
     30 OD1        -7.9700   -6.5300  -13.7800 O.co2     3 ASP3        0.0000 
     31 OD1        -7.6400   -5.4400  -14.7600 O.co2     3 ASP3        0.0000 
     32 OD1        -7.6200   -8.1600  -10.8700 O.co2     3 ASP3        0.0000 
     33 OD1        -7.2900   -7.0600  -11.8500 O.co2     3 ASP3        0.0000 
     34 OD1        -6.9600   -5.9700  -12.8200 O.co2     3 ASP3        0.0000 
     35 OD1        -6.6200   -7.6000   -9.9100 O.co2     3 ASP3        0.0000 
     36 OD1        -6.2900   -6.5100  -10.8800 O.co2     3 ASP3        0.0000 
     37 OD1        -5.9600   -5.4100  -11.8500 O.co2     3 ASP3        0.0000 
     38 OD1        -5.6300   -4.3200  -12.8200 O.co2     3 ASP3        0.0000 
     39 NZ         -5.5600   -8.4600  -10.5100 N.4       4 LYS4        0.0000 
     40 NZ         -8.0900   -3.6900  -10.6400 N.4       4 LYS4        0.0000 
     41 NZ         -6.7000   -3.4600  -12.2200 N.4       4 LYS4        0.0000 
     42 CZ         -9.9000  -11.7800  -13.4100 C.ar      5 PHE5        0.0000 
     43 CZ         -8.5800   -7.4100  -17.3000 C.ar      5 PHE5        0.0000 
     44 CZ         -8.8900  -11.2300  -12.4400 C.ar      5 PHE5        0.0000 
     45 CZ         -7.5700   -6.8600  -16.3300 C.ar      5 PHE5        0.0000 
     46 CZ         -7.2400   -5.7600  -17.3000 C.ar      5 PHE5        0.0000 
     47 CZ         -7.8900  -10.6700  -11.4700 C.ar      5 PHE5        0.0000 
     48 CZ         -9.3600   -6.7600  -12.2000 C.ar      5 PHE5        0.0000 
     49 CZ         -6.5700   -6.3000  -15.3600 C.ar      5 PHE5        0.0000 
     50 CZ         -6.2400   -5.2000  -16.3400 C.ar      5 PHE5        0.0000 
     51 CZ         -8.6900   -7.2900  -10.2600 C.ar      5 PHE5        0.0000 
     52 CZ         -5.5700   -5.7400  -14.4000 C.ar      5 PHE5        0.0000 
     53 CZ         -6.9500   -8.6900   -8.9300 C.ar      5 PHE5        0.0000 
     54 CZ         -9.8200   -5.0100   -8.0800 C.ar      5 PHE5        0.0000 
     55 CA        -11.5800   -9.0800  -20.2000 C.3       6 GLY6        0.0000 
     56 CA        -10.9100   -9.6200  -18.2600 C.3       6 GLY6        0.0000 
     57 CA        -10.5800   -8.5300  -19.2300 C.3       6 GLY6        0.0000 
     58 CA         -9.1800   -8.3000  -20.8100 C.3       6 GLY6        0.0000 
     59 CA         -8.1200   -9.1600  -21.4200 C.3       6 GLY6        0.0000 
     60 CA        -10.9000  -12.3400  -14.3700 C.3       6 GLY6        0.0000 
     61 CA         -8.1800   -7.7400  -19.8500 C.3       6 GLY6        0.0000 
     62 CA         -9.5700  -10.6900  -14.3800 C.3       6 GLY6        0.0000 
     63 CA         -9.2400   -9.6000  -15.3500 C.3       6 GLY6        0.0000 
     64 CA         -9.9700   -7.6400  -15.7200 C.3       6 GLY6        0.0000 
     65 CA         -8.9700   -7.0900  -14.7500 C.3       6 GLY6        0.0000 
     66 CA         -8.7000   -4.5700  -14.1500 C.3       6 GLY6        0.0000 
     67 CA         -9.7600   -6.4300   -9.6600 C.3       6 GLY6        0.0000 
     68 CA         -9.4300   -5.3400  -10.6300 C.3       6 GLY6        0.0000 
     69 CA         -8.3600   -6.2000  -11.2400 C.3       6 GLY6        0.0000 
     70 CA         -8.0300   -5.1100  -12.2100 C.3       6 GLY6        0.0000 
     71 CA         -7.7000   -4.0200  -13.1800 C.3       6 GLY6        0.0000 
     72 CA         -8.7500   -5.8700   -8.6900 C.3       6 GLY6        0.0000 
     73 CA         -9.4900   -3.9200   -9.0500 C.3       6 GLY6        0.0000 
     74 CA         -8.4200   -4.7800   -9.6600 C.3       6 GLY6        0.0000 
     75 CA         -7.3600   -5.6400  -10.2700 C.3       6 GLY6        0.0000 
     76 CA         -7.0300   -4.5500  -11.2400 C.3       6 GLY6        0.0000 
     77 CA         -6.3500   -5.0900   -9.3000 C.3       6 GLY6        0.0000 
     78 DU        -10.2500   -7.4300  -20.2000 H         7 CUB7        0.0000 
     79 DU         -9.5800   -7.9700  -18.2700 H         7 CUB7        0.0000 
     80 DU         -6.6300   -4.8800  -13.7900 H         7 CUB7        0.0000 
     81 DU         -7.6900   -6.7400   -9.3000 H         7 CUB7        0.0000 
@<TRIPOS>BOND
@<TRIPOS>SUBSTRUCTURE
     1 SER1        1 GROUP   
     2 ALA2        8 GROUP   
     3 ASP3       24 GROUP   
     4 LYS4       39 GROUP   
     5 PHE5       42 GROUP   
     6 GLY6       55 GROUP   
     7 CUB7       78 GROUP   
@<TRIPOS>SET

