#    Name: 5yaq_3_NAD_CAVITY_N1_8
#    Modification time : Fri May 22 19:15:56 2020

@<TRIPOS>MOLECULE
5yaq_3_NAD_CAVITY_N1_8
  103     0     7     0     0
SMALL
NO_CHARGES


@<TRIPOS>ATOM
      1 OG        -34.4500   -6.8800    6.9000 O.3       1 SER1        0.0000 
      2 OG        -33.4500   -6.3200    7.8700 O.3       1 SER1        0.0000 
      3 OG        -32.3800   -7.1800    7.2600 O.3       1 SER1        0.0000 
      4 OG        -32.7800   -6.8600    9.8100 O.3       1 SER1        0.0000 
      5 OG        -32.4500   -5.7600    8.8400 O.3       1 SER1        0.0000 
      6 OG        -31.3800   -6.6300    8.2300 O.3       1 SER1        0.0000 
      7 OG        -31.0500   -5.5300    7.2600 O.3       1 SER1        0.0000 
      8 OG        -31.4400   -5.2100    9.8000 O.3       1 SER1        0.0000 
      9 OG        -30.3800   -6.0700    9.1900 O.3       1 SER1        0.0000 
     10 OG        -30.1100   -3.5600    9.8000 O.3       1 SER1        0.0000 
     11 N         -40.4500   -2.0300    8.0000 N.am      2 ALA2        0.0000 
     12 N         -39.3900   -2.8900    7.4000 N.am      2 ALA2        0.0000 
     13 N         -38.3200   -3.7500    6.7900 N.am      2 ALA2        0.0000 
     14 N         -40.1200   -0.9300    7.0300 N.am      2 ALA2        0.0000 
     15 N         -39.0600   -1.8000    6.4200 N.am      2 ALA2        0.0000 
     16 N         -37.6600   -1.5700    4.8400 N.am      2 ALA2        0.0000 
     17 N         -40.8400   -1.7000   10.5500 N.am      2 ALA2        0.0000 
     18 N         -39.7800   -2.5600    9.9400 N.am      2 ALA2        0.0000 
     19 N         -39.4500   -1.4700    8.9700 N.am      2 ALA2        0.0000 
     20 N         -38.3800   -2.3300    8.3600 N.am      2 ALA2        0.0000 
     21 N         -38.7900    0.7200    7.0200 N.am      2 ALA2        0.0000 
     22 N         -37.7200   -0.1500    6.4200 N.am      2 ALA2        0.0000 
     23 N         -38.4600    1.8100    6.0500 N.am      2 ALA2        0.0000 
     24 N         -37.3900    0.9500    5.4400 N.am      2 ALA2        0.0000 
     25 O         -36.3300    0.0800    4.8400 O.2       2 ALA2        0.0000 
     26 O         -36.3900    1.5000    6.4100 O.2       2 ALA2        0.0000 
     27 N         -33.8400   -5.9900   10.4200 N.am      2 ALA2        0.0000 
     28 OD1       -37.6500   -4.2900    8.7300 O.co2     3 ASP3        0.0000 
     29 OD1       -40.5100   -0.6100    9.5800 O.co2     3 ASP3        0.0000 
     30 OD1       -38.7800   -2.0100   10.9100 O.co2     3 ASP3        0.0000 
     31 OD1       -35.5800   -4.6000    9.0900 O.co2     3 ASP3        0.0000 
     32 OD1       -34.5100   -5.4600    8.4800 O.co2     3 ASP3        0.0000 
     33 OD1       -38.4500   -0.9100    9.9400 O.co2     3 ASP3        0.0000 
     34 OD1       -38.1200    0.1800    8.9600 O.co2     3 ASP3        0.0000 
     35 OD1       -33.5100   -4.9000    9.4400 O.co2     3 ASP3        0.0000 
     36 NZ        -37.2500   -4.6200    6.1800 N.4       4 LYS4        0.0000 
     37 NZ        -37.7100   -2.8700   10.3000 N.4       4 LYS4        0.0000 
     38 NZ        -36.6400   -3.7300    9.6900 N.4       4 LYS4        0.0000 
     39 NZ        -36.7100   -2.3100   11.2700 N.4       4 LYS4        0.0000 
     40 NZ        -35.6400   -3.1800   10.6600 N.4       4 LYS4        0.0000 
     41 NZ        -34.5800   -4.0400   10.0500 N.4       4 LYS4        0.0000 
     42 NZ        -32.8400   -5.4400   11.3800 N.4       4 LYS4        0.0000 
     43 NZ        -31.7700   -6.3000   10.7800 N.4       4 LYS4        0.0000 
     44 NZ        -34.6400   -2.6200   11.6300 N.4       4 LYS4        0.0000 
     45 NZ        -33.5700   -3.4800   11.0200 N.4       4 LYS4        0.0000 
     46 NZ        -32.5100   -4.3400   10.4100 N.4       4 LYS4        0.0000 
     47 NZ        -31.8400   -4.8800   12.3500 N.4       4 LYS4        0.0000 
     48 NZ        -33.6400   -2.0600   12.5900 N.4       4 LYS4        0.0000 
     49 NZ        -32.5700   -2.9200   11.9900 N.4       4 LYS4        0.0000 
     50 NZ        -31.5100   -3.7900   11.3800 N.4       4 LYS4        0.0000 
     51 NZ        -30.4400   -4.6500   10.7700 N.4       4 LYS4        0.0000 
     52 CZ        -32.0500   -6.0900    6.2900 C.ar      5 PHE5        0.0000 
     53 CZ        -34.2500   -2.9500    9.0800 C.ar      5 PHE5        0.0000 
     54 CZ        -33.1800   -3.8100    8.4700 C.ar      5 PHE5        0.0000 
     55 CZ        -32.1100   -4.6700    7.8600 C.ar      5 PHE5        0.0000 
     56 CZ        -34.9800   -0.9900    8.7100 C.ar      5 PHE5        0.0000 
     57 CZ        -33.9200   -1.8500    8.1100 C.ar      5 PHE5        0.0000 
     58 CZ        -33.2400   -2.3900   10.0500 C.ar      5 PHE5        0.0000 
     59 CZ        -32.1800   -3.2500    9.4400 C.ar      5 PHE5        0.0000 
     60 CZ        -31.1100   -4.1100    8.8300 C.ar      5 PHE5        0.0000 
     61 CZ        -34.7000   -1.2000   13.2000 C.ar      5 PHE5        0.0000 
     62 CZ        -32.2400   -1.8300   11.0100 C.ar      5 PHE5        0.0000 
     63 CZ        -31.1800   -2.6900   10.4000 C.ar      5 PHE5        0.0000 
     64 CZ        -31.9100   -0.7400   10.0400 C.ar      5 PHE5        0.0000 
     65 CZ        -32.6300   -1.5000   13.5600 C.ar      5 PHE5        0.0000 
     66 CZ        -31.5700   -2.3700   12.9500 C.ar      5 PHE5        0.0000 
     67 CZ        -30.1700   -2.1400   11.3700 C.ar      5 PHE5        0.0000 
     68 CZ        -30.9100   -0.1800   11.0100 C.ar      5 PHE5        0.0000 
     69 CA        -37.9900   -2.6600    5.8100 C.3       6 GLY6        0.0000 
     70 CA        -36.9200   -3.5200    5.2100 C.3       6 GLY6        0.0000 
     71 CA        -36.2500   -4.0600    7.1500 C.3       6 GLY6        0.0000 
     72 CA        -35.1900   -4.9200    6.5400 C.3       6 GLY6        0.0000 
     73 CA        -34.1200   -5.7900    5.9300 C.3       6 GLY6        0.0000 
     74 CA        -39.1200   -0.3800    8.0000 C.3       6 GLY6        0.0000 
     75 CA        -35.9200   -2.9700    6.1700 C.3       6 GLY6        0.0000 
     76 CA        -39.8500    1.5800    7.6300 C.3       6 GLY6        0.0000 
     77 CA        -36.6600   -1.0100    5.8100 C.3       6 GLY6        0.0000 
     78 CA        -33.1200   -5.2300    6.9000 C.3       6 GLY6        0.0000 
     79 CA        -34.9200   -2.4100    7.1400 C.3       6 GLY6        0.0000 
     80 CA        -33.8500   -3.2700    6.5300 C.3       6 GLY6        0.0000 
     81 CA        -32.7900   -4.1300    5.9200 C.3       6 GLY6        0.0000 
     82 CA        -35.6500   -0.4500    6.7800 C.3       6 GLY6        0.0000 
     83 CA        -34.5900   -1.3200    6.1700 C.3       6 GLY6        0.0000 
     84 CA        -37.1200    3.4600    6.0500 C.3       6 GLY6        0.0000 
     85 CA        -34.6500    0.1000    7.7400 C.3       6 GLY6        0.0000 
     86 CA        -30.2400   -0.7200   12.9500 C.3       6 GLY6        0.0000 
     87 DU        -37.3200   -3.2000    7.7500 H         7 CUB7        0.0000 
     88 DU        -38.0500   -1.2400    7.3900 H         7 CUB7        0.0000 
     89 DU        -36.9900   -2.1000    6.7800 H         7 CUB7        0.0000 
     90 DU        -37.3800   -1.7800    9.3300 H         7 CUB7        0.0000 
     91 DU        -36.3100   -2.6400    8.7200 H         7 CUB7        0.0000 
     92 DU        -35.2500   -3.5000    8.1100 H         7 CUB7        0.0000 
     93 DU        -34.1800   -4.3700    7.5000 H         7 CUB7        0.0000 
     94 DU        -37.0500   -0.6800    8.3600 H         7 CUB7        0.0000 
     95 DU        -35.9800   -1.5500    7.7500 H         7 CUB7        0.0000 
     96 DU        -36.7200    0.4100    7.3800 H         7 CUB7        0.0000 
     97 DU        -36.3800   -1.2200   10.3000 H         7 CUB7        0.0000 
     98 DU        -35.3100   -2.0800    9.6900 H         7 CUB7        0.0000 
     99 DU        -36.0500   -0.1300    9.3200 H         7 CUB7        0.0000 
    100 DU        -34.3100   -1.5300   10.6500 H         7 CUB7        0.0000 
    101 DU        -33.3100   -0.9700   11.6200 H         7 CUB7        0.0000 
    102 DU        -32.3000   -0.4100   12.5900 H         7 CUB7        0.0000 
    103 DU        -31.2400   -1.2700   11.9800 H         7 CUB7        0.0000 
@<TRIPOS>BOND
@<TRIPOS>SUBSTRUCTURE
     1 SER1        1 GROUP   
     2 ALA2       11 GROUP   
     3 ASP3       28 GROUP   
     4 LYS4       36 GROUP   
     5 PHE5       52 GROUP   
     6 GLY6       69 GROUP   
     7 CUB7       87 GROUP   
@<TRIPOS>SET

