#    Name: 5yaq_1_NAD
#    Modification time : Fri May 22 19:15:36 2020

@<TRIPOS>MOLECULE
5yaq_1_NAD
   44    48     1     0     1
SMALL
NO_CHARGES


@<TRIPOS>ATOM
      1 PA         -9.1930  -41.9900   33.4060 P.3       1 NAD500      0.0000 
      2 O1A        -9.6990  -43.3960   33.1100 O.co2     1 NAD500      0.0000 
      3 O2A        -8.2990  -41.1560   32.4960 O.co2     1 NAD500      0.0000 
      4 O5B        -8.5650  -42.0160   34.8890 O.3       1 NAD500      0.0000 
      5 C5B        -9.1930  -42.7210   35.9650 C.3       1 NAD500      0.0000 
      6 C4B        -8.0800  -43.0000   36.9610 C.3       1 NAD500      0.0000 
      7 O4B        -8.6710  -43.6040   38.1040 O.3       1 NAD500      0.0000 
      8 C3B        -7.0280  -43.9660   36.3890 C.3       1 NAD500      0.0000 
      9 O3B        -5.6880  -43.6610   36.8240 O.3       1 NAD500      0.0000 
     10 C2B        -7.4900  -45.2970   36.9450 C.3       1 NAD500      0.0000 
     11 O2B        -6.4550  -46.2920   36.9650 O.3       1 NAD500      0.0000 
     12 C1B        -7.9470  -44.8150   38.3200 C.3       1 NAD500      0.0000 
     13 N9A        -8.8120  -45.7380   39.0550 N.pl3     1 NAD500      0.0000 
     14 C8A        -9.9430  -46.3350   38.6120 C.2       1 NAD500      0.0000 
     15 N7A       -10.4680  -47.1050   39.6080 N.2       1 NAD500      0.0000 
     16 C5A        -9.6580  -46.9720   40.6910 C.ar      1 NAD500      0.0000 
     17 C6A        -9.6070  -47.4910   42.0810 C.ar      1 NAD500      0.0000 
     18 N6A       -10.5760  -48.3330   42.4920 N.pl3     1 NAD500      0.0000 
     19 N1A        -8.5830  -47.1110   42.8960 N.ar      1 NAD500      0.0000 
     20 C2A        -7.6100  -46.2630   42.4910 C.ar      1 NAD500      0.0000 
     21 N3A        -7.5970  -45.7470   41.2430 N.ar      1 NAD500      0.0000 
     22 C4A        -8.5670  -46.0650   40.3260 C.ar      1 NAD500      0.0000 
     23 O3        -10.4370  -40.9980   33.7020 O.3       1 NAD500      0.0000 
     24 PN        -10.3560  -39.3640   33.6660 P.3       1 NAD500      0.0000 
     25 O1N        -9.2090  -38.7410   34.4610 O.co2     1 NAD500      0.0000 
     26 O2N       -10.7260  -38.8440   32.2780 O.co2     1 NAD500      0.0000 
     27 O5D       -11.6380  -39.1200   34.6060 O.3       1 NAD500      0.0000 
     28 C5D       -11.6570  -39.4740   35.9890 C.3       1 NAD500      0.0000 
     29 C4D       -12.4360  -38.3860   36.7200 C.3       1 NAD500      0.0000 
     30 O4D       -11.9440  -37.0890   36.3350 O.3       1 NAD500      0.0000 
     31 C3D       -13.9180  -38.4180   36.3330 C.3       1 NAD500      0.0000 
     32 O3D       -14.7210  -38.0540   37.4530 O.3       1 NAD500      0.0000 
     33 C2D       -14.0510  -37.3550   35.2600 C.3       1 NAD500      0.0000 
     34 O2D       -15.3430  -36.7450   35.1770 O.3       1 NAD500      0.0000 
     35 C1D       -13.0290  -36.3410   35.7440 C.3       1 NAD500      0.0000 
     36 N1N       -12.5260  -35.4140   34.7160 N.pl3     1 NAD500      0.0000 
     37 C2N       -12.5290  -34.0990   35.0180 C.ar      1 NAD500      0.0000 
     38 C3N       -12.0470  -33.1160   34.1300 C.ar      1 NAD500      0.0000 
     39 C7N       -11.9950  -31.6410   34.5180 C.2       1 NAD500      0.0000 
     40 O7N       -11.6510  -30.7880   33.6690 O.2       1 NAD500      0.0000 
     41 N7N       -12.2270  -31.2700   35.8120 N.am      1 NAD500      0.0000 
     42 C4N       -11.5510  -33.5670   32.8930 C.ar      1 NAD500      0.0000 
     43 C5N       -11.5390  -34.9360   32.5970 C.ar      1 NAD500      0.0000 
     44 C6N       -12.0340  -35.8510   33.5320 C.ar      1 NAD500      0.0000 
@<TRIPOS>BOND
     1    1    2 ar   
     2    1    3 ar   
     3    1    4 1    
     4    1   23 1    
     5    4    5 1    
     6    5    6 1    
     7    6    7 1    
     8    6    8 1    
     9    7   12 1    
    10    8    9 1    
    11    8   10 1    
    12   10   11 1    
    13   10   12 1    
    14   12   13 1    
    15   13   14 1    
    16   13   22 1    
    17   14   15 2    
    18   15   16 1    
    19   16   17 ar   
    20   16   22 ar   
    21   17   18 1    
    22   17   19 ar   
    23   19   20 ar   
    24   20   21 ar   
    25   21   22 ar   
    26   23   24 1    
    27   24   25 ar   
    28   24   26 ar   
    29   24   27 1    
    30   27   28 1    
    31   28   29 1    
    32   29   30 1    
    33   29   31 1    
    34   30   35 1    
    35   31   32 1    
    36   31   33 1    
    37   33   34 1    
    38   33   35 1    
    39   35   36 1    
    40   36   37 ar   
    41   36   44 ar   
    42   37   38 ar   
    43   38   39 1    
    44   38   42 ar   
    45   39   40 2    
    46   39   41 am   
    47   42   43 ar   
    48   43   44 ar   
@<TRIPOS>SUBSTRUCTURE
     1 NAD500      1 GROUP   
@<TRIPOS>SET
ATOM$ORANGE STATIC     ATOMS   COLORGROUP SYSTEM 
42 5 5 6 6 8 8 10 10 12 12 14 14 16 16 17 17 20 \
20 22 22 28 28 29 29 31 31 33 33 35 35 37 37 38 38 39 \
39 42 42 43 43 44 44 

