#    Name: 5yaq_2_NAD
#    Modification time : Fri May 22 19:15:45 2020

@<TRIPOS>MOLECULE
5yaq_2_NAD
   44    48     1     0     1
SMALL
NO_CHARGES


@<TRIPOS>ATOM
      1 PA         14.9560  -11.1070   35.6960 P.3       1 NAD401      0.0000 
      2 O1A        15.5160   -9.7290   35.9510 O.co2     1 NAD401      0.0000 
      3 O2A        13.4780  -11.4470   35.8410 O.co2     1 NAD401      0.0000 
      4 O5B        15.7920  -12.1850   36.5410 O.3       1 NAD401      0.0000 
      5 C5B        17.2120  -12.0970   36.6740 C.3       1 NAD401      0.0000 
      6 C4B        17.5800  -13.0780   37.7790 C.3       1 NAD401      0.0000 
      7 O4B        18.9950  -13.2180   37.8930 O.3       1 NAD401      0.0000 
      8 C3B        17.0790  -12.5660   39.1350 C.3       1 NAD401      0.0000 
      9 O3B        16.6550  -13.6840   39.9310 O.3       1 NAD401      0.0000 
     10 C2B        18.2810  -11.8650   39.7390 C.3       1 NAD401      0.0000 
     11 O2B        18.1730  -11.7700   41.1710 O.3       1 NAD401      0.0000 
     12 C1B        19.3460  -12.8430   39.2360 C.3       1 NAD401      0.0000 
     13 N9A        20.7460  -12.3820   39.3310 N.pl3     1 NAD401      0.0000 
     14 C8A        21.3120  -11.2620   38.8130 C.2       1 NAD401      0.0000 
     15 N7A        22.6370  -11.2230   39.1290 N.2       1 NAD401      0.0000 
     16 C5A        22.9230  -12.3240   39.8620 C.ar      1 NAD401      0.0000 
     17 C6A        24.1210  -12.9070   40.5140 C.ar      1 NAD401      0.0000 
     18 N6A        25.3150  -12.2650   40.4500 N.pl3     1 NAD401      0.0000 
     19 N1A        23.9750  -14.0890   41.1740 N.ar      1 NAD401      0.0000 
     20 C2A        22.7920  -14.7480   41.2480 C.ar      1 NAD401      0.0000 
     21 N3A        21.6530  -14.2740   40.6790 N.ar      1 NAD401      0.0000 
     22 C4A        21.6680  -13.0930   39.9850 C.ar      1 NAD401      0.0000 
     23 O3         15.3730  -11.4760   34.1820 O.3       1 NAD401      0.0000 
     24 PN         14.6150  -12.5690   33.2550 P.3       1 NAD401      0.0000 
     25 O1N        13.5390  -11.8280   32.4670 O.co2     1 NAD401      0.0000 
     26 O2N        14.3450  -13.8810   33.9920 O.co2     1 NAD401      0.0000 
     27 O5D        15.7740  -12.8080   32.1830 O.3       1 NAD401      0.0000 
     28 C5D        16.9730  -13.4530   32.5770 C.3       1 NAD401      0.0000 
     29 C4D        17.4460  -14.2320   31.3660 C.3       1 NAD401      0.0000 
     30 O4D        16.3560  -15.0000   30.8620 O.3       1 NAD401      0.0000 
     31 C3D        17.8890  -13.2880   30.2480 C.3       1 NAD401      0.0000 
     32 O3D        19.0640  -13.8520   29.6670 O.3       1 NAD401      0.0000 
     33 C2D        16.7610  -13.2650   29.2320 C.3       1 NAD401      0.0000 
     34 O2D        17.2280  -13.1280   27.8710 O.3       1 NAD401      0.0000 
     35 C1D        16.1380  -14.6370   29.4760 C.3       1 NAD401      0.0000 
     36 N1N        14.7000  -14.7740   29.1920 N.pl3     1 NAD401      0.0000 
     37 C2N        14.3330  -15.7850   28.4030 C.ar      1 NAD401      0.0000 
     38 C3N        12.9970  -16.0650   28.0920 C.ar      1 NAD401      0.0000 
     39 C7N        12.6310  -17.2260   27.1810 C.2       1 NAD401      0.0000 
     40 O7N        11.4370  -17.3430   26.8270 O.2       1 NAD401      0.0000 
     41 N7N        13.5970  -18.1090   26.7880 N.am      1 NAD401      0.0000 
     42 C4N        12.0150  -15.2130   28.6420 C.ar      1 NAD401      0.0000 
     43 C5N        12.4160  -14.1650   29.4780 C.ar      1 NAD401      0.0000 
     44 C6N        13.7730  -13.9750   29.7500 C.ar      1 NAD401      0.0000 
@<TRIPOS>BOND
     1    1    2 ar   
     2    1    3 ar   
     3    1    4 1    
     4    1   23 1    
     5    4    5 1    
     6    5    6 1    
     7    6    7 1    
     8    6    8 1    
     9    7   12 1    
    10    8    9 1    
    11    8   10 1    
    12   10   11 1    
    13   10   12 1    
    14   12   13 1    
    15   13   14 1    
    16   13   22 1    
    17   14   15 2    
    18   15   16 1    
    19   16   17 ar   
    20   16   22 ar   
    21   17   18 1    
    22   17   19 ar   
    23   19   20 ar   
    24   20   21 ar   
    25   21   22 ar   
    26   23   24 1    
    27   24   25 ar   
    28   24   26 ar   
    29   24   27 1    
    30   27   28 1    
    31   28   29 1    
    32   29   30 1    
    33   29   31 1    
    34   30   35 1    
    35   31   32 1    
    36   31   33 1    
    37   33   34 1    
    38   33   35 1    
    39   35   36 1    
    40   36   37 ar   
    41   36   44 ar   
    42   37   38 ar   
    43   38   39 1    
    44   38   42 ar   
    45   39   40 2    
    46   39   41 am   
    47   42   43 ar   
    48   43   44 ar   
@<TRIPOS>SUBSTRUCTURE
     1 NAD401      1 GROUP   
@<TRIPOS>SET
ATOM$ORANGE STATIC     ATOMS   COLORGROUP SYSTEM 
42 5 5 6 6 8 8 10 10 12 12 14 14 16 16 17 17 20 \
20 22 22 28 28 29 29 31 31 33 33 35 35 37 37 38 38 39 \
39 42 42 43 43 44 44 

