#    Name: 5yaq_4_NAD
#    Modification time : Fri May 22 19:16:02 2020

@<TRIPOS>MOLECULE
5yaq_4_NAD
   44    48     1     0     1
SMALL
NO_CHARGES


@<TRIPOS>ATOM
      1 PA         -9.6770   -9.0780  -17.9590 P.3       1 NAD401      0.0000 
      2 O1A        -8.7980   -9.9630  -18.8270 O.co2     1 NAD401      0.0000 
      3 O2A       -10.6840   -9.7200  -17.0360 O.co2     1 NAD401      0.0000 
      4 O5B       -10.4330   -7.9640  -18.8480 O.3       1 NAD401      0.0000 
      5 C5B        -9.7130   -7.2140  -19.8240 C.3       1 NAD401      0.0000 
      6 C4B       -10.7490   -6.6530  -20.7760 C.3       1 NAD401      0.0000 
      7 O4B       -10.1110   -5.8970  -21.8050 O.3       1 NAD401      0.0000 
      8 C3B       -11.5440   -7.7580  -21.4680 C.3       1 NAD401      0.0000 
      9 O3B       -12.8990   -7.3180  -21.5310 O.3       1 NAD401      0.0000 
     10 C2B       -10.8950   -7.8530  -22.8340 C.3       1 NAD401      0.0000 
     11 O2B       -11.7250   -8.4690  -23.8200 O.3       1 NAD401      0.0000 
     12 C1B       -10.6560   -6.3590  -23.0500 C.3       1 NAD401      0.0000 
     13 N9A        -9.7700   -5.9890  -24.1670 N.pl3     1 NAD401      0.0000 
     14 C8A        -8.5730   -6.5270  -24.4880 C.2       1 NAD401      0.0000 
     15 N7A        -8.0700   -5.8940  -25.5830 N.2       1 NAD401      0.0000 
     16 C5A        -8.9490   -4.9300  -25.9680 C.ar      1 NAD401      0.0000 
     17 C6A        -9.0580   -3.8900  -27.0330 C.ar      1 NAD401      0.0000 
     18 N6A        -8.0950   -3.7280  -27.9550 N.pl3     1 NAD401      0.0000 
     19 N1A       -10.1540   -3.1010  -27.0760 N.ar      1 NAD401      0.0000 
     20 C2A       -11.1500   -3.2180  -26.1790 C.ar      1 NAD401      0.0000 
     21 N3A       -11.1170   -4.1350  -25.1770 N.ar      1 NAD401      0.0000 
     22 C4A       -10.0710   -4.9980  -25.0200 C.ar      1 NAD401      0.0000 
     23 O3         -8.6360   -8.2090  -17.0940 O.3       1 NAD401      0.0000 
     24 PN         -9.0140   -7.4200  -15.7340 P.3       1 NAD401      0.0000 
     25 O1N        -8.6760   -8.3270  -14.5630 O.co2     1 NAD401      0.0000 
     26 O2N       -10.3910   -6.7910  -15.8600 O.co2     1 NAD401      0.0000 
     27 O5D        -7.8860   -6.2730  -15.7190 O.3       1 NAD401      0.0000 
     28 C5D        -8.0590   -5.0760  -16.4520 C.3       1 NAD401      0.0000 
     29 C4D        -7.2560   -3.9670  -15.8010 C.3       1 NAD401      0.0000 
     30 O4D        -7.7490   -3.7490  -14.4860 O.3       1 NAD401      0.0000 
     31 C3D        -5.7870   -4.3320  -15.6660 C.3       1 NAD401      0.0000 
     32 O3D        -5.0170   -3.1590  -15.9260 O.3       1 NAD401      0.0000 
     33 C2D        -5.6180   -4.8240  -14.2350 C.3       1 NAD401      0.0000 
     34 O2D        -4.3410   -4.5240  -13.6620 O.3       1 NAD401      0.0000 
     35 C1D        -6.7230   -4.0520  -13.5310 C.3       1 NAD401      0.0000 
     36 N1N        -7.4100   -4.7370  -12.4440 N.pl3     1 NAD401      0.0000 
     37 C2N        -7.6020   -4.0260  -11.3380 C.ar      1 NAD401      0.0000 
     38 C3N        -8.2840   -4.5350  -10.2310 C.ar      1 NAD401      0.0000 
     39 C7N        -8.4340   -3.6430   -9.0100 C.2       1 NAD401      0.0000 
     40 O7N        -8.6910   -4.1890   -7.9240 O.2       1 NAD401      0.0000 
     41 N7N        -8.2740   -2.2930   -9.1540 N.am      1 NAD401      0.0000 
     42 C4N        -8.7640   -5.8710  -10.3020 C.ar      1 NAD401      0.0000 
     43 C5N        -8.5640   -6.6060  -11.4760 C.ar      1 NAD401      0.0000 
     44 C6N        -7.8970   -5.9940  -12.5410 C.ar      1 NAD401      0.0000 
@<TRIPOS>BOND
     1    1    2 ar   
     2    1    3 ar   
     3    1    4 1    
     4    1   23 1    
     5    4    5 1    
     6    5    6 1    
     7    6    7 1    
     8    6    8 1    
     9    7   12 1    
    10    8    9 1    
    11    8   10 1    
    12   10   11 1    
    13   10   12 1    
    14   12   13 1    
    15   13   14 1    
    16   13   22 1    
    17   14   15 2    
    18   15   16 1    
    19   16   17 ar   
    20   16   22 ar   
    21   17   18 1    
    22   17   19 ar   
    23   19   20 ar   
    24   20   21 ar   
    25   21   22 ar   
    26   23   24 1    
    27   24   25 ar   
    28   24   26 ar   
    29   24   27 1    
    30   27   28 1    
    31   28   29 1    
    32   29   30 1    
    33   29   31 1    
    34   30   35 1    
    35   31   32 1    
    36   31   33 1    
    37   33   34 1    
    38   33   35 1    
    39   35   36 1    
    40   36   37 ar   
    41   36   44 ar   
    42   37   38 ar   
    43   38   39 1    
    44   38   42 ar   
    45   39   40 2    
    46   39   41 am   
    47   42   43 ar   
    48   43   44 ar   
@<TRIPOS>SUBSTRUCTURE
     1 NAD401      1 GROUP   
@<TRIPOS>SET
ATOM$ORANGE STATIC     ATOMS   COLORGROUP SYSTEM 
42 5 5 6 6 8 8 10 10 12 12 14 14 16 16 17 17 20 \
20 22 22 28 28 29 29 31 31 33 33 35 35 37 37 38 38 39 \
39 42 42 43 43 44 44 

