#    Name: 5yaq_2_NAD_CAVITY_N1_4
#    Modification time : Fri May 22 19:15:47 2020

@<TRIPOS>MOLECULE
5yaq_2_NAD_CAVITY_N1_4
   93     0     7     0     0
SMALL
NO_CHARGES


@<TRIPOS>ATOM
      1 OG          9.8800  -15.3500   26.3200 O.3       1 SER1        0.0000 
      2 OG         10.9500  -16.2100   25.7100 O.3       1 SER1        0.0000 
      3 OG         10.2100  -14.2600   25.3500 O.3       1 SER1        0.0000 
      4 OG         11.9500  -15.6600   26.6800 O.3       1 SER1        0.0000 
      5 OG         10.1500  -12.8400   26.9200 O.3       1 SER1        0.0000 
      6 OG         12.2800  -14.5600   25.7100 O.3       1 SER1        0.0000 
      7 O          14.5700  -13.6600   32.1300 O.2       2 ALA2        0.0000 
      8 N          17.0300  -14.2900   29.9400 N.am      2 ALA2        0.0000 
      9 N          18.0900  -15.1500   29.3300 N.am      2 ALA2        0.0000 
     10 N          17.3600  -13.2000   28.9600 N.am      2 ALA2        0.0000 
     11 O          14.1700  -13.3300   34.6700 O.2       2 ALA2        0.0000 
     12 N          15.5700  -13.1000   33.0900 N.am      2 ALA2        0.0000 
     13 N          16.6300  -13.9600   32.4800 N.am      2 ALA2        0.0000 
     14 N          17.7000  -14.8300   31.8800 N.am      2 ALA2        0.0000 
     15 N          16.9600  -12.8700   31.5100 N.am      2 ALA2        0.0000 
     16 N          18.0300  -13.7300   30.9000 N.am      2 ALA2        0.0000 
     17 N          18.3600  -12.6400   29.9300 N.am      2 ALA2        0.0000 
     18 N          16.5700  -12.5400   34.0600 N.am      2 ALA2        0.0000 
     19 N          17.9700  -12.3100   32.4800 N.am      2 ALA2        0.0000 
     20 O          15.1000   -8.6300   33.3300 O.2       2 ALA2        0.0000 
     21 N          17.2400  -13.0800   36.0000 N.am      2 ALA2        0.0000 
     22 OD1        12.9500  -15.1000   27.6500 O.co2     3 ASP3        0.0000 
     23 OD1        12.2200  -13.1400   27.2800 O.co2     3 ASP3        0.0000 
     24 OD1        13.2800  -14.0100   26.6700 O.co2     3 ASP3        0.0000 
     25 OD1        12.8900  -13.6800   29.2200 O.co2     3 ASP3        0.0000 
     26 OD1        11.0900  -10.8600   29.4600 O.co2     3 ASP3        0.0000 
     27 OD1        13.2200  -12.5900   28.2500 O.co2     3 ASP3        0.0000 
     28 OD1        14.2900  -13.4500   27.6400 O.co2     3 ASP3        0.0000 
     29 OD1        13.8900  -13.1200   30.1900 O.co2     3 ASP3        0.0000 
     30 OD1        14.9600  -13.9800   29.5800 O.co2     3 ASP3        0.0000 
     31 OD1        11.0300   -9.4400   31.0400 O.co2     3 ASP3        0.0000 
     32 OD1        15.2900  -12.8900   28.6100 O.co2     3 ASP3        0.0000 
     33 OD1        16.3500  -13.7500   28.0000 O.co2     3 ASP3        0.0000 
     34 OD1        11.7000   -9.9800   32.9800 O.co2     3 ASP3        0.0000 
     35 OD1        12.7600  -10.8400   32.3700 O.co2     3 ASP3        0.0000 
     36 OD1        14.9000  -12.5600   31.1500 O.co2     3 ASP3        0.0000 
     37 OD1        15.9600  -13.4300   30.5500 O.co2     3 ASP3        0.0000 
     38 OD1        16.2900  -12.3300   29.5700 O.co2     3 ASP3        0.0000 
     39 OD1        12.7000   -9.4200   33.9400 O.co2     3 ASP3        0.0000 
     40 OD1        13.7700  -10.2800   33.3400 O.co2     3 ASP3        0.0000 
     41 OD1        14.8300  -11.1400   32.7300 O.co2     3 ASP3        0.0000 
     42 OD1        15.9000  -12.0100   32.1200 O.co2     3 ASP3        0.0000 
     43 OD1        14.7700   -9.7200   34.3000 O.co2     3 ASP3        0.0000 
     44 NZ         12.5500  -12.0500   26.3100 N.4       4 LYS4        0.0000 
     45 NZ         15.0200  -15.4000   28.0000 N.4       4 LYS4        0.0000 
     46 NZ         16.0200  -14.8500   28.9700 N.4       4 LYS4        0.0000 
     47 CZ          9.8200  -13.9300   27.8900 C.ar      5 PHE5        0.0000 
     48 CZ         10.8900  -14.7900   27.2900 C.ar      5 PHE5        0.0000 
     49 CZ         10.8200  -13.3700   28.8600 C.ar      5 PHE5        0.0000 
     50 CZ         11.8900  -14.2400   28.2500 C.ar      5 PHE5        0.0000 
     51 CZ         10.0900  -11.4200   28.5000 C.ar      5 PHE5        0.0000 
     52 CZ         11.1500  -12.2800   27.8900 C.ar      5 PHE5        0.0000 
     53 CZ         11.8300  -12.8200   29.8300 C.ar      5 PHE5        0.0000 
     54 CZ         10.7000  -10.5300   32.0100 C.ar      5 PHE5        0.0000 
     55 CZ         11.7600  -11.4000   31.4000 C.ar      5 PHE5        0.0000 
     56 CZ         17.2900  -11.7800   30.5400 C.ar      5 PHE5        0.0000 
     57 CZ         16.9000  -11.4500   33.0900 C.ar      5 PHE5        0.0000 
     58 CZ         16.1700   -9.4900   32.7200 C.ar      5 PHE5        0.0000 
     59 CZ         17.2300  -10.3600   32.1100 C.ar      5 PHE5        0.0000 
     60 CZ         18.3000  -11.2200   31.5100 C.ar      5 PHE5        0.0000 
     61 CZ         16.1000   -8.0700   34.3000 C.ar      5 PHE5        0.0000 
     62 CZ         17.1700   -8.9400   33.6900 C.ar      5 PHE5        0.0000 
     63 CA         10.5600  -15.8900   28.2600 C.3       6 GLY6        0.0000 
     64 CA         11.6200  -16.7500   27.6500 C.3       6 GLY6        0.0000 
     65 CA         11.5600  -15.3300   29.2300 C.3       6 GLY6        0.0000 
     66 CA         12.6200  -16.1900   28.6200 C.3       6 GLY6        0.0000 
     67 CA         14.0200  -15.9600   27.0400 C.3       6 GLY6        0.0000 
     68 CA         12.5600  -14.7700   30.1900 C.3       6 GLY6        0.0000 
     69 CA         13.9600  -14.5400   28.6100 C.3       6 GLY6        0.0000 
     70 CA         13.5600  -14.2100   31.1600 C.3       6 GLY6        0.0000 
     71 CA         15.6900  -15.9400   29.9400 C.3       6 GLY6        0.0000 
     72 CA         11.3700  -11.0700   33.9500 C.3       6 GLY6        0.0000 
     73 CA         13.5000  -12.7900   32.7300 C.3       6 GLY6        0.0000 
     74 CA         15.6300  -14.5200   31.5200 C.3       6 GLY6        0.0000 
     75 CA         16.7000  -15.3800   30.9100 C.3       6 GLY6        0.0000 
     76 CA         13.4400  -11.3700   34.3100 C.3       6 GLY6        0.0000 
     77 CA         14.5000  -12.2400   33.7000 C.3       6 GLY6        0.0000 
     78 CA         14.1100  -11.9100   36.2500 C.3       6 GLY6        0.0000 
     79 CA         15.1700  -12.7700   35.6400 C.3       6 GLY6        0.0000 
     80 CA         16.1800  -12.2200   36.6100 C.3       6 GLY6        0.0000 
     81 CA         17.5700  -11.9900   35.0300 C.3       6 GLY6        0.0000 
     82 CA         16.8400  -10.0300   34.6600 C.3       6 GLY6        0.0000 
     83 CA         17.9000  -10.8900   34.0500 C.3       6 GLY6        0.0000 
     84 CA         18.2300   -9.8000   33.0800 C.3       6 GLY6        0.0000 
     85 CA         17.5100  -10.5700   36.6000 C.3       6 GLY6        0.0000 
     86 CA         17.8400   -9.4700   35.6300 C.3       6 GLY6        0.0000 
     87 CA         18.1700   -8.3800   34.6600 C.3       6 GLY6        0.0000 
     88 DU         11.2200  -13.7000   26.3100 H         7 CUB7        0.0000 
     89 DU         14.4400  -10.8200   35.2800 H         7 CUB7        0.0000 
     90 DU         15.5100  -11.6800   34.6700 H         7 CUB7        0.0000 
     91 DU         15.8400  -10.5900   33.6900 H         7 CUB7        0.0000 
     92 DU         16.5100  -11.1200   35.6300 H         7 CUB7        0.0000 
     93 DU         15.7700   -9.1700   35.2700 H         7 CUB7        0.0000 
@<TRIPOS>BOND
@<TRIPOS>SUBSTRUCTURE
     1 SER1        1 GROUP   
     2 ALA2        7 GROUP   
     3 ASP3       22 GROUP   
     4 LYS4       44 GROUP   
     5 PHE5       47 GROUP   
     6 GLY6       63 GROUP   
     7 CUB7       88 GROUP   
@<TRIPOS>SET

