#    Name: 5yaq_1_NAD_CAVITY_N1_ALL
#    Modification time : Fri May 22 19:15:38 2020

@<TRIPOS>MOLECULE
5yaq_1_NAD_CAVITY_N1_ALL
  109     0     7     0     0
SMALL
NO_CHARGES


@<TRIPOS>ATOM
      1 OG        -14.1700  -32.7200   31.0200 O.3       1 SER1        0.0000 
      2 OG        -13.8400  -31.6300   30.0400 O.3       1 SER1        0.0000 
      3 OG        -12.7700  -32.4900   29.4400 O.3       1 SER1        0.0000 
      4 OG        -11.7100  -33.3500   28.8300 O.3       1 SER1        0.0000 
      5 OG        -13.1700  -32.1600   31.9800 O.3       1 SER1        0.0000 
      6 OG        -12.8400  -31.0700   31.0100 O.3       1 SER1        0.0000 
      7 OG        -11.7700  -31.9300   30.4000 O.3       1 SER1        0.0000 
      8 OG        -12.4900  -32.7000   33.9200 O.3       1 SER1        0.0000 
      9 OG        -12.1600  -31.6000   32.9500 O.3       1 SER1        0.0000 
     10 OG        -11.8300  -30.5100   31.9800 O.3       1 SER1        0.0000 
     11 OG        -10.7700  -31.3700   31.3700 O.3       1 SER1        0.0000 
     12 N         -14.7600  -39.0500   35.2700 N.am      2 ALA2        0.0000 
     13 N         -14.4300  -37.9500   34.3000 N.am      2 ALA2        0.0000 
     14 O         -11.9500  -41.3100   35.9900 O.2       2 ALA2        0.0000 
     15 N         -14.8200  -37.6300   36.8500 N.am      2 ALA2        0.0000 
     16 N         -13.7500  -38.4900   36.2400 N.am      2 ALA2        0.0000 
     17 N         -12.6900  -39.3500   35.6300 N.am      2 ALA2        0.0000 
     18 N         -11.6200  -40.2200   35.0200 N.am      2 ALA2        0.0000 
     19 N         -14.4900  -36.5300   35.8700 N.am      2 ALA2        0.0000 
     20 N         -13.8200  -37.0700   37.8100 N.am      2 ALA2        0.0000 
     21 N         -12.7500  -37.9300   37.2000 N.am      2 ALA2        0.0000 
     22 N         -11.6800  -38.8000   36.6000 N.am      2 ALA2        0.0000 
     23 N         -10.6200  -39.6600   35.9900 N.am      2 ALA2        0.0000 
     24 N          -9.5500  -40.5200   35.3800 N.am      2 ALA2        0.0000 
     25 N         -13.4900  -35.9800   36.8400 N.am      2 ALA2        0.0000 
     26 O         -10.2900  -38.5700   35.0200 O.2       2 ALA2        0.0000 
     27 OD1       -14.3600  -39.3700   32.7200 O.co2     3 ASP3        0.0000 
     28 OD1       -13.3000  -40.2400   32.1200 O.co2     3 ASP3        0.0000 
     29 OD1       -11.8900  -42.7300   34.4200 O.co2     3 ASP3        0.0000 
     30 OD1       -13.6900  -39.9100   34.6600 O.co2     3 ASP3        0.0000 
     31 OD1       -12.6200  -40.7700   34.0500 O.co2     3 ASP3        0.0000 
     32 OD1       -15.4900  -37.0900   34.9100 O.co2     3 ASP3        0.0000 
     33 OD1       -12.2900  -39.6800   33.0800 O.co2     3 ASP3        0.0000 
     34 OD1       -14.5000  -33.8100   31.9900 O.co2     3 ASP3        0.0000 
     35 OD1       -14.1600  -35.4400   34.9000 O.co2     3 ASP3        0.0000 
     36 OD1       -13.0900  -36.3000   34.2900 O.co2     3 ASP3        0.0000 
     37 OD1       -12.7600  -35.2100   33.3200 O.co2     3 ASP3        0.0000 
     38 OD1       -13.5000  -33.2500   32.9600 O.co2     3 ASP3        0.0000 
     39 NZ        -15.0300  -38.8400   30.7800 N.4       4 LYS4        0.0000 
     40 NZ        -14.7000  -37.7400   29.8100 N.4       4 LYS4        0.0000 
     41 NZ        -14.3700  -36.6500   28.8400 N.4       4 LYS4        0.0000 
     42 NZ        -14.0400  -35.5600   27.8700 N.4       4 LYS4        0.0000 
     43 NZ        -12.6500  -35.3300   26.2900 N.4       4 LYS4        0.0000 
     44 NZ        -15.4300  -38.5100   33.3300 N.4       4 LYS4        0.0000 
     45 NZ        -14.0300  -38.2800   31.7500 N.4       4 LYS4        0.0000 
     46 NZ        -13.7000  -37.1900   30.7800 N.4       4 LYS4        0.0000 
     47 NZ        -14.4400  -35.2300   30.4100 N.4       4 LYS4        0.0000 
     48 NZ        -13.3700  -36.0900   29.8100 N.4       4 LYS4        0.0000 
     49 NZ        -15.1700  -33.2800   30.0500 N.4       4 LYS4        0.0000 
     50 NZ        -14.1100  -34.1400   29.4400 N.4       4 LYS4        0.0000 
     51 NZ        -13.0400  -35.0000   28.8300 N.4       4 LYS4        0.0000 
     52 NZ        -13.7800  -33.0500   28.4700 N.4       4 LYS4        0.0000 
     53 NZ        -12.7100  -33.9100   27.8600 N.4       4 LYS4        0.0000 
     54 NZ        -14.0900  -36.8600   33.3300 N.4       4 LYS4        0.0000 
     55 NZ        -13.7600  -35.7700   32.3500 N.4       4 LYS4        0.0000 
     56 NZ        -12.7000  -36.6300   31.7500 N.4       4 LYS4        0.0000 
     57 NZ        -13.4300  -34.6700   31.3800 N.4       4 LYS4        0.0000 
     58 NZ        -13.1600  -34.8800   35.8700 N.4       4 LYS4        0.0000 
     59 NZ        -12.8300  -33.7900   34.8900 N.4       4 LYS4        0.0000 
     60 CZ        -14.3100  -38.0700   27.2600 C.ar      5 PHE5        0.0000 
     61 CZ        -12.9100  -37.8400   25.6800 C.ar      5 PHE5        0.0000 
     62 CZ        -12.9800  -36.4200   27.2600 C.ar      5 PHE5        0.0000 
     63 CZ        -12.3100  -36.9600   29.2000 C.ar      5 PHE5        0.0000 
     64 CZ        -11.9800  -35.8600   28.2300 C.ar      5 PHE5        0.0000 
     65 CZ        -10.9100  -36.7300   27.6200 C.ar      5 PHE5        0.0000 
     66 CZ        -11.6400  -34.7700   27.2500 C.ar      5 PHE5        0.0000 
     67 CZ        -11.6300  -37.4900   31.1400 C.ar      5 PHE5        0.0000 
     68 CZ        -12.3700  -35.5400   30.7700 C.ar      5 PHE5        0.0000 
     69 CZ        -12.0400  -34.4400   29.8000 C.ar      5 PHE5        0.0000 
     70 CZ        -11.7000  -36.0700   32.7100 C.ar      5 PHE5        0.0000 
     71 CZ        -10.6300  -36.9400   32.1000 C.ar      5 PHE5        0.0000 
     72 CZ        -11.3700  -34.9800   31.7400 C.ar      5 PHE5        0.0000 
     73 CZ        -12.1000  -33.0200   31.3700 C.ar      5 PHE5        0.0000 
     74 CZ        -11.0400  -33.8900   30.7700 C.ar      5 PHE5        0.0000 
     75 CA        -11.8500  -38.7000   25.0800 C.3       6 GLY6        0.0000 
     76 CA        -11.5200  -37.6100   24.1000 C.3       6 GLY6        0.0000 
     77 CA        -11.5800  -36.1900   25.6800 C.3       6 GLY6        0.0000 
     78 CA        -14.0200  -41.0000   35.6400 C.3       6 GLY6        0.0000 
     79 CA        -10.8900  -42.1700   35.3900 C.3       6 GLY6        0.0000 
     80 CA        -10.2300  -39.9900   33.4400 C.3       6 GLY6        0.0000 
     81 CA        -10.9600  -38.0300   33.0800 C.3       6 GLY6        0.0000 
     82 CA         -9.9000  -38.8900   32.4700 C.3       6 GLY6        0.0000 
     83 CA        -12.4200  -36.8400   36.2300 C.3       6 GLY6        0.0000 
     84 CA        -11.3500  -37.7000   35.6200 C.3       6 GLY6        0.0000 
     85 CA        -12.0900  -35.7500   35.2600 C.3       6 GLY6        0.0000 
     86 CA        -11.0200  -36.6100   34.6500 C.3       6 GLY6        0.0000 
     87 CA        -11.7600  -34.6500   34.2900 C.3       6 GLY6        0.0000 
     88 CA        -10.6900  -35.5200   33.6800 C.3       6 GLY6        0.0000 
     89 CA        -11.4300  -33.5600   33.3100 C.3       6 GLY6        0.0000 
     90 CA        -10.3600  -34.4200   32.7100 C.3       6 GLY6        0.0000 
     91 CA        -11.1000  -32.4700   32.3400 C.3       6 GLY6        0.0000 
     92 CA        -11.4200  -36.2800   37.2000 C.3       6 GLY6        0.0000 
     93 DU        -13.3100  -37.5100   28.2300 H         7 CUB7        0.0000 
     94 DU        -11.9100  -37.2800   26.6500 H         7 CUB7        0.0000 
     95 DU        -10.8500  -38.1500   26.0400 H         7 CUB7        0.0000 
     96 DU        -12.9700  -39.1400   31.1400 H         7 CUB7        0.0000 
     97 DU        -12.6400  -38.0500   30.1700 H         7 CUB7        0.0000 
     98 DU        -13.3600  -38.8200   33.6900 H         7 CUB7        0.0000 
     99 DU        -11.2300  -40.5400   32.4700 H         7 CUB7        0.0000 
    100 DU        -13.0300  -37.7200   32.7200 H         7 CUB7        0.0000 
    101 DU        -11.9600  -38.5900   32.1100 H         7 CUB7        0.0000 
    102 DU        -13.1000  -33.5800   30.4100 H         7 CUB7        0.0000 
    103 DU        -10.5600  -41.0800   34.4100 H         7 CUB7        0.0000 
    104 DU         -9.4900  -41.9400   33.8100 H         7 CUB7        0.0000 
    105 DU        -13.4200  -37.4000   35.2700 H         7 CUB7        0.0000 
    106 DU        -12.3600  -38.2600   34.6600 H         7 CUB7        0.0000 
    107 DU        -11.2900  -39.1200   34.0500 H         7 CUB7        0.0000 
    108 DU        -12.0300  -37.1700   33.6800 H         7 CUB7        0.0000 
    109 DU        -12.4300  -34.1200   32.3500 H         7 CUB7        0.0000 
@<TRIPOS>BOND
@<TRIPOS>SUBSTRUCTURE
     1 SER1        1 GROUP   
     2 ALA2       12 GROUP   
     3 ASP3       27 GROUP   
     4 LYS4       39 GROUP   
     5 PHE5       60 GROUP   
     6 GLY6       75 GROUP   
     7 CUB7       93 GROUP   
@<TRIPOS>SET

