#    Name: 5yaq_3_NAD
#    Modification time : Fri May 22 19:15:54 2020

@<TRIPOS>MOLECULE
5yaq_3_NAD
   44    48     1     0     1
SMALL
NO_CHARGES


@<TRIPOS>ATOM
      1 PA        -37.2920    3.3570    7.1720 P.3       1 NAD401      0.0000 
      2 O1A       -38.1610    4.1500    8.1530 O.co2     1 NAD401      0.0000 
      3 O2A       -35.8210    3.6190    6.9330 O.co2     1 NAD401      0.0000 
      4 O5B       -37.9670    3.4130    5.7040 O.3       1 NAD401      0.0000 
      5 C5B       -39.3660    3.2960    5.4520 C.3       1 NAD401      0.0000 
      6 C4B       -39.6210    4.0780    4.1730 C.3       1 NAD401      0.0000 
      7 O4B       -41.0260    4.0630    3.9030 O.3       1 NAD401      0.0000 
      8 C3B       -39.2030    5.5530    4.3050 C.3       1 NAD401      0.0000 
      9 O3B       -38.6210    6.0290    3.0770 O.3       1 NAD401      0.0000 
     10 C2B       -40.5180    6.2540    4.5860 C.3       1 NAD401      0.0000 
     11 O2B       -40.4910    7.6310    4.2100 O.3       1 NAD401      0.0000 
     12 C1B       -41.4400    5.4200    3.7040 C.3       1 NAD401      0.0000 
     13 N9A       -42.8790    5.6070    3.9870 N.pl3     1 NAD401      0.0000 
     14 C8A       -43.4860    5.6530    5.2030 C.2       1 NAD401      0.0000 
     15 N7A       -44.8320    5.8210    5.0470 N.2       1 NAD401      0.0000 
     16 C5A       -45.0770    5.8830    3.7090 C.ar      1 NAD401      0.0000 
     17 C6A       -46.2660    6.0530    2.8320 C.ar      1 NAD401      0.0000 
     18 N6A       -47.4930    6.1910    3.3830 N.pl3     1 NAD401      0.0000 
     19 N1A       -46.0900    6.0620    1.4830 N.ar      1 NAD401      0.0000 
     20 C2A       -44.8760    5.9240    0.9090 C.ar      1 NAD401      0.0000 
     21 N3A       -43.7500    5.7630    1.6400 N.ar      1 NAD401      0.0000 
     22 C4A       -43.7880    5.7350    3.0110 C.ar      1 NAD401      0.0000 
     23 O3        -37.3870    1.8120    7.6300 O.3       1 NAD401      0.0000 
     24 PN        -36.4970    0.5840    7.0480 P.3       1 NAD401      0.0000 
     25 O1N       -35.3780    0.2770    8.0310 O.co2     1 NAD401      0.0000 
     26 O2N       -36.1780    0.7330    5.5600 O.co2     1 NAD401      0.0000 
     27 O5D       -37.6330   -0.5660    7.1590 O.3       1 NAD401      0.0000 
     28 C5D       -38.5860   -0.7430    6.1150 C.3       1 NAD401      0.0000 
     29 C4D       -38.8910   -2.2220    5.9110 C.3       1 NAD401      0.0000 
     30 O4D       -37.7350   -2.9820    5.5410 O.3       1 NAD401      0.0000 
     31 C3D       -39.4240   -2.8420    7.2000 C.3       1 NAD401      0.0000 
     32 O3D       -40.5220   -3.6850    6.8440 O.3       1 NAD401      0.0000 
     33 C2D       -38.2640   -3.6230    7.8020 C.3       1 NAD401      0.0000 
     34 O2D       -38.6500   -4.7650    8.5930 O.3       1 NAD401      0.0000 
     35 C1D       -37.5110   -4.0210    6.5280 C.3       1 NAD401      0.0000 
     36 N1N       -36.0600   -4.1480    6.6250 N.pl3     1 NAD401      0.0000 
     37 C2N       -35.4660   -5.2470    6.0980 C.ar      1 NAD401      0.0000 
     38 C3N       -34.0690   -5.4320    6.0960 C.ar      1 NAD401      0.0000 
     39 C7N       -33.4440   -6.6920    5.5130 C.2       1 NAD401      0.0000 
     40 O7N       -32.2680   -6.9890    5.7670 O.2       1 NAD401      0.0000 
     41 N7N       -34.1860   -7.4760    4.7020 N.am      1 NAD401      0.0000 
     42 C4N       -33.3000   -4.4070    6.6680 C.ar      1 NAD401      0.0000 
     43 C5N       -33.9300   -3.2680    7.1860 C.ar      1 NAD401      0.0000 
     44 C6N       -35.3240   -3.1460    7.1440 C.ar      1 NAD401      0.0000 
@<TRIPOS>BOND
     1    1    2 ar   
     2    1    3 ar   
     3    1    4 1    
     4    1   23 1    
     5    4    5 1    
     6    5    6 1    
     7    6    7 1    
     8    6    8 1    
     9    7   12 1    
    10    8    9 1    
    11    8   10 1    
    12   10   11 1    
    13   10   12 1    
    14   12   13 1    
    15   13   14 1    
    16   13   22 1    
    17   14   15 2    
    18   15   16 1    
    19   16   17 ar   
    20   16   22 ar   
    21   17   18 1    
    22   17   19 ar   
    23   19   20 ar   
    24   20   21 ar   
    25   21   22 ar   
    26   23   24 1    
    27   24   25 ar   
    28   24   26 ar   
    29   24   27 1    
    30   27   28 1    
    31   28   29 1    
    32   29   30 1    
    33   29   31 1    
    34   30   35 1    
    35   31   32 1    
    36   31   33 1    
    37   33   34 1    
    38   33   35 1    
    39   35   36 1    
    40   36   37 ar   
    41   36   44 ar   
    42   37   38 ar   
    43   38   39 1    
    44   38   42 ar   
    45   39   40 2    
    46   39   41 am   
    47   42   43 ar   
    48   43   44 ar   
@<TRIPOS>SUBSTRUCTURE
     1 NAD401      1 GROUP   
@<TRIPOS>SET
ATOM$ORANGE STATIC     ATOMS   COLORGROUP SYSTEM 
42 5 5 6 6 8 8 10 10 12 12 14 14 16 16 17 17 20 \
20 22 22 28 28 29 29 31 31 33 33 35 35 37 37 38 38 39 \
39 42 42 43 43 44 44 

