#    Name: 5nue_2_NAD
#    Modification time : Fri May 22 19:13:26 2020

@<TRIPOS>MOLECULE
5nue_2_NAD
   44    48     1     0     1
SMALL
NO_CHARGES


@<TRIPOS>ATOM
      1 PA         30.0820   52.9970   41.1610 P.3       1 NAD401      0.0000 
      2 O1A        28.8520   52.3970   41.8410 O.co2     1 NAD401      0.0000 
      3 O2A        31.2240   52.0990   40.7680 O.co2     1 NAD401      0.0000 
      4 O5B        29.5670   53.8210   39.8570 O.3       1 NAD401      0.0000 
      5 C5B        30.4660   54.3390   38.9300 C.3       1 NAD401      0.0000 
      6 C4B        29.8050   54.0880   37.5760 C.3       1 NAD401      0.0000 
      7 O4B        30.7550   54.8630   36.6030 O.3       1 NAD401      0.0000 
      8 C3B        29.8080   52.7620   37.1450 C.3       1 NAD401      0.0000 
      9 O3B        28.4560   52.3410   36.7420 O.3       1 NAD401      0.0000 
     10 C2B        30.7650   52.7040   35.9440 C.3       1 NAD401      0.0000 
     11 O2B        30.5110   51.6990   35.0010 O.3       1 NAD401      0.0000 
     12 C1B        30.6550   54.1740   35.4500 C.3       1 NAD401      0.0000 
     13 N9A        31.8180   54.4230   34.5700 N.pl3     1 NAD401      0.0000 
     14 C8A        33.0990   54.0130   34.4680 C.2       1 NAD401      0.0000 
     15 N7A        33.6420   54.6290   33.4380 N.2       1 NAD401      0.0000 
     16 C5A        32.7410   55.4570   32.8780 C.ar      1 NAD401      0.0000 
     17 C6A        32.8250   56.2380   31.7430 C.ar      1 NAD401      0.0000 
     18 N6A        33.9880   56.3930   30.8760 N.pl3     1 NAD401      0.0000 
     19 N1A        31.7480   56.9610   31.4140 N.ar      1 NAD401      0.0000 
     20 C2A        30.5920   56.9000   32.1400 C.ar      1 NAD401      0.0000 
     21 N3A        30.5250   56.0680   33.1890 N.ar      1 NAD401      0.0000 
     22 C4A        31.5880   55.3400   33.5800 C.ar      1 NAD401      0.0000 
     23 O3         30.7180   54.1580   42.0970 O.3       1 NAD401      0.0000 
     24 PN         29.9090   55.2690   42.9600 P.3       1 NAD401      0.0000 
     25 O1N        29.8390   54.7550   44.3470 O.co2     1 NAD401      0.0000 
     26 O2N        28.6310   55.6980   42.2850 O.co2     1 NAD401      0.0000 
     27 O5D        31.0030   56.4740   42.9850 O.3       1 NAD401      0.0000 
     28 C5D        31.1550   57.1780   41.7880 C.3       1 NAD401      0.0000 
     29 C4D        32.2690   58.2190   41.9510 C.3       1 NAD401      0.0000 
     30 O4D        31.9090   59.2180   42.8330 O.3       1 NAD401      0.0000 
     31 C3D        33.5880   57.6060   42.4650 C.3       1 NAD401      0.0000 
     32 O3D        34.7320   58.1090   41.8650 O.3       1 NAD401      0.0000 
     33 C2D        33.4390   58.0330   43.9450 C.3       1 NAD401      0.0000 
     34 O2D        34.7270   57.9130   44.6870 O.3       1 NAD401      0.0000 
     35 C1D        33.0710   59.3590   43.8340 C.3       1 NAD401      0.0000 
     36 N1N        32.4560   59.9810   45.0040 N.pl3     1 NAD401      0.0000 
     37 C2N        32.5520   61.3200   45.1220 C.ar      1 NAD401      0.0000 
     38 C3N        32.0260   61.9990   46.2130 C.ar      1 NAD401      0.0000 
     39 C7N        32.2040   63.5170   46.2850 C.2       1 NAD401      0.0000 
     40 O7N        32.7390   64.2390   45.4250 O.2       1 NAD401      0.0000 
     41 N7N        31.7030   64.0520   47.4860 N.am      1 NAD401      0.0000 
     42 C4N        31.4050   61.2840   47.2010 C.ar      1 NAD401      0.0000 
     43 C5N        31.2710   59.9200   47.0940 C.ar      1 NAD401      0.0000 
     44 C6N        31.8150   59.2500   45.9870 C.ar      1 NAD401      0.0000 
@<TRIPOS>BOND
     1    1    2 ar   
     2    1    3 ar   
     3    1    4 1    
     4    1   23 1    
     5    4    5 1    
     6    5    6 1    
     7    6    7 1    
     8    6    8 1    
     9    7   12 1    
    10    8    9 1    
    11    8   10 1    
    12   10   11 1    
    13   10   12 1    
    14   12   13 1    
    15   13   14 1    
    16   13   22 1    
    17   14   15 2    
    18   15   16 1    
    19   16   17 ar   
    20   16   22 ar   
    21   17   18 1    
    22   17   19 ar   
    23   19   20 ar   
    24   20   21 ar   
    25   21   22 ar   
    26   23   24 1    
    27   24   25 ar   
    28   24   26 ar   
    29   24   27 1    
    30   27   28 1    
    31   28   29 1    
    32   29   30 1    
    33   29   31 1    
    34   30   35 1    
    35   31   32 1    
    36   31   33 1    
    37   33   34 1    
    38   33   35 1    
    39   35   36 1    
    40   36   37 ar   
    41   36   44 ar   
    42   37   38 ar   
    43   38   39 1    
    44   38   42 ar   
    45   39   40 2    
    46   39   41 am   
    47   42   43 ar   
    48   43   44 ar   
@<TRIPOS>SUBSTRUCTURE
     1 NAD401      1 GROUP   
@<TRIPOS>SET
ATOM$ORANGE STATIC     ATOMS   COLORGROUP SYSTEM 
42 5 5 6 6 8 8 10 10 12 12 14 14 16 16 17 17 20 \
20 22 22 28 28 29 29 31 31 33 33 35 35 37 37 38 38 39 \
39 42 42 43 43 44 44 

