#    Name: 5zhm_1_SAM
#    Modification time : Fri May 22 19:23:29 2020

@<TRIPOS>MOLECULE
5zhm_1_SAM
   27    29     1     0     0
SMALL
NO_CHARGES


@<TRIPOS>ATOM
      1 N          40.3940  104.8790   -6.2610 N.4       1 SAM301      0.0000 
      2 CA         39.0330  104.5980   -6.7810 C.3       1 SAM301      0.0000 
      3 C          38.4110  105.8510   -7.6080 C.2       1 SAM301      0.0000 
      4 O          38.2360  105.6520   -8.8320 O.co2     1 SAM301      0.0000 
      5 OXT        38.1700  106.9330   -7.0100 O.co2     1 SAM301      0.0000 
      6 CB         38.0680  104.1100   -5.6330 C.3       1 SAM301      0.0000 
      7 CG         37.7500  105.2160   -4.5880 C.3       1 SAM301      0.0000 
      8 SD         36.8010  104.7560   -3.1420 S.3       1 SAM301      0.0000 
      9 CE         36.4420  103.0330   -3.2660 C.3       1 SAM301      0.0000 
     10 C5'        35.1860  105.5600   -3.4300 C.3       1 SAM301      0.0000 
     11 C4'        34.9700  107.0430   -2.9600 C.3       1 SAM301      0.0000 
     12 O4'        35.5140  107.2900   -1.6440 O.3       1 SAM301      0.0000 
     13 C3'        35.6170  108.0850   -3.8640 C.3       1 SAM301      0.0000 
     14 O3'        34.8070  108.3020   -5.0180 O.3       1 SAM301      0.0000 
     15 C2'        35.8170  109.2780   -2.9120 C.3       1 SAM301      0.0000 
     16 O2'        34.6430  110.0790   -2.7830 O.3       1 SAM301      0.0000 
     17 C1'        36.0820  108.5850   -1.5660 C.3       1 SAM301      0.0000 
     18 N9         37.4700  108.4680   -1.1030 N.pl3     1 SAM301      0.0000 
     19 C8         38.1330  107.2890   -0.8680 C.2       1 SAM301      0.0000 
     20 N7         39.3400  107.4360   -0.3780 N.2       1 SAM301      0.0000 
     21 C5         39.4910  108.8130   -0.2870 C.ar      1 SAM301      0.0000 
     22 C6         40.5590  109.6210    0.1490 C.ar      1 SAM301      0.0000 
     23 N6         41.7840  109.1470    0.3940 N.pl3     1 SAM301      0.0000 
     24 N1         40.3640  110.9630    0.1690 N.ar      1 SAM301      0.0000 
     25 C2         39.2010  111.4550   -0.2830 C.ar      1 SAM301      0.0000 
     26 N3         38.1380  110.7930   -0.7540 N.ar      1 SAM301      0.0000 
     27 C4         38.3420  109.4640   -0.7230 C.ar      1 SAM301      0.0000 
@<TRIPOS>BOND
     1    1    2 1    
     2    2    3 1    
     3    2    6 1    
     4    3    4 ar   
     5    3    5 ar   
     6    6    7 1    
     7    7    8 1    
     8    8    9 1    
     9    8   10 1    
    10   10   11 1    
    11   11   12 1    
    12   11   13 1    
    13   12   17 1    
    14   13   14 1    
    15   13   15 1    
    16   15   16 1    
    17   15   17 1    
    18   17   18 1    
    19   18   19 1    
    20   18   27 1    
    21   19   20 2    
    22   20   21 1    
    23   21   22 ar   
    24   21   27 ar   
    25   22   23 1    
    26   22   24 ar   
    27   24   25 ar   
    28   25   26 ar   
    29   26   27 ar   
@<TRIPOS>SUBSTRUCTURE
     1 SAM301      1 GROUP   
@<TRIPOS>SET

