#    Name: 6cza_1_MGD
#    Modification time : Fri May 22 19:26:50 2020

@<TRIPOS>MOLECULE
6cza_1_MGD
   67    72     1     0     0
SMALL
NO_CHARGES


@<TRIPOS>ATOM
      1 PB        -15.4290   64.6570   43.8870 P.3       1 MGD902      0.0000 
      2 O1B       -14.2690   63.7810   44.2930 O.co2     1 MGD902      0.0000 
      3 O2B       -16.7900   64.0510   44.0730 O.co2     1 MGD902      0.0000 
      4 O3B       -15.2050   65.1260   42.3270 O.3       1 MGD902      0.0000 
      5 O3A       -14.3960   62.7510   41.2410 O.3       1 MGD902      0.0000 
      6 PA        -14.6500   64.3400   40.9780 P.3       1 MGD902      0.0000 
      7 O1A       -15.7640   64.5380   39.9640 O.co2     1 MGD902      0.0000 
      8 O2A       -13.3530   65.0380   40.5880 O.co2     1 MGD902      0.0000 
      9 O5'       -15.1770   66.0440   44.7170 O.3       1 MGD902      0.0000 
     10 C5'       -16.0840   67.1220   44.6850 C.3       1 MGD902      0.0000 
     11 C4'       -15.2050   68.3540   44.9010 C.3       1 MGD902      0.0000 
     12 O4'       -16.0820   69.6150   44.4200 O.3       1 MGD902      0.0000 
     13 C3'       -14.8410   68.6230   46.1250 C.3       1 MGD902      0.0000 
     14 O3'       -13.3900   69.0250   46.0890 O.3       1 MGD902      0.0000 
     15 C2'       -15.6390   69.8250   46.6870 C.3       1 MGD902      0.0000 
     16 O2'       -14.8990   70.6750   47.4210 O.3       1 MGD902      0.0000 
     17 C1'       -15.8880   70.5460   45.3890 C.3       1 MGD902      0.0000 
     18 N9        -16.9880   71.4710   45.1080 N.pl3     1 MGD902      0.0000 
     19 C8        -18.0630   71.2410   45.9050 C.2       1 MGD902      0.0000 
     20 N7        -19.0130   72.1610   45.5040 N.2       1 MGD902      0.0000 
     21 C5        -18.4820   72.8910   44.4870 C.2       1 MGD902      0.0000 
     22 C6        -18.8850   74.0350   43.5140 C.2       1 MGD902      0.0000 
     23 O6        -19.9310   74.5760   43.5300 O.2       1 MGD902      0.0000 
     24 N1        -17.9280   74.4880   42.5400 N.am      1 MGD902      0.0000 
     25 C2        -16.6380   73.9100   42.4220 C.2       1 MGD902      0.0000 
     26 N2        -15.6800   74.3570   41.4630 N.pl3     1 MGD902      0.0000 
     27 N3        -16.2570   72.8380   43.2990 N.2       1 MGD902      0.0000 
     28 C4        -17.2430   72.4010   44.2780 C.2       1 MGD902      0.0000 
     29 C10       -15.5230   61.8920   41.3040 C.3       1 MGD902      0.0000 
     30 C11       -15.0460   60.4780   41.0960 C.3       1 MGD902      0.0000 
     31 O11       -13.8830   60.2150   42.1520 O.3       1 MGD902      0.0000 
     32 C12       -16.0250   59.6030   41.3280 C.2       1 MGD902      0.0000 
     33 S12       -17.5800   59.7600   40.4370 S.3       1 MGD902      0.0000 
     34 C13       -15.7120   58.2100   41.8460 C.2       1 MGD902      0.0000 
     35 S13       -17.0230   56.9940   41.8800 S.3       1 MGD902      0.0000 
     36 C14       -14.4460   57.9840   42.5080 C.3       1 MGD902      0.0000 
     37 N15       -14.9020   58.0220   43.9990 N.3       1 MGD902      0.0000 
     38 C16       -13.8480   58.3020   44.8910 C.2       1 MGD902      0.0000 
     39 C17       -13.9780   58.0480   46.3340 C.2       1 MGD902      0.0000 
     40 O17       -14.9270   57.5780   46.8080 O.2       1 MGD902      0.0000 
     41 N18       -12.8500   58.4050   47.1940 N.am      1 MGD902      0.0000 
     42 C19       -11.5880   59.0180   46.6510 C.2       1 MGD902      0.0000 
     43 N19       -10.5230   59.3540   47.5260 N.pl3     1 MGD902      0.0000 
     44 N20       -11.4270   59.2510   45.2200 N.2       1 MGD902      0.0000 
     45 C21       -12.4840   58.9350   44.3490 C.2       1 MGD902      0.0000 
     46 N22       -12.2070   59.1890   43.0120 N.pl3     1 MGD902      0.0000 
     47 C23       -13.4080   58.9320   42.0620 C.3       1 MGD902      0.0000 
     48 H5'1      -16.5350   67.1670   43.8270 H         1 MGD902      0.0000 
     49 H5'2      -16.7420   67.0400   45.3920 H         1 MGD902      0.0000 
     50 H4'       -14.3650   68.2230   44.4330 H         1 MGD902      0.0000 
     51 H3'       -15.0470   67.8480   46.6710 H         1 MGD902      0.0000 
     52 HO3'      -13.2990   69.7140   45.6000 H         1 MGD902      0.0000 
     53 H2'       -16.3980   69.5210   47.2100 H         1 MGD902      0.0000 
     54 H1'       -15.0710   71.0650   45.4480 H         1 MGD902      0.0000 
     55 H8        -18.1430   70.6020   46.5760 H         1 MGD902      0.0000 
     56 HN1       -18.1450   75.1310   42.0120 H         1 MGD902      0.0000 
     57 HN21      -15.8800   74.9920   40.9200 H         1 MGD902      0.0000 
     58 HN22      -14.9140   73.9770   41.4130 H         1 MGD902      0.0000 
     59 H101      -15.9480   61.9720   42.1730 H         1 MGD902      0.0000 
     60 H102      -16.1580   62.1310   40.6100 H         1 MGD902      0.0000 
     61 H11       -14.7540   60.4090   40.1740 H         1 MGD902      0.0000 
     62 H14       -14.0350   57.1220   42.3360 H         1 MGD902      0.0000 
     63 H15       -15.7130   57.8860   44.2510 H         1 MGD902      0.0000 
     64 H18       -12.9110   58.2590   48.0390 H         1 MGD902      0.0000 
     65 H191       -9.7890   59.6720   47.2090 H         1 MGD902      0.0000 
     66 H192      -10.5900   59.1840   48.3700 H         1 MGD902      0.0000 
     67 H22       -11.4400   59.4630   42.7360 H         1 MGD902      0.0000 
@<TRIPOS>BOND
     1    1    2 ar   
     2    1    3 ar   
     3    1    4 1    
     4    1    9 1    
     5    4    6 1    
     6    5    6 1    
     7    5   29 1    
     8    6    7 ar   
     9    6    8 ar   
    10    9   10 1    
    11   10   11 1    
    12   10   48 1    
    13   10   49 1    
    14   11   12 1    
    15   11   13 1    
    16   11   50 1    
    17   13   51 1    
    18   12   17 1    
    19   13   14 1    
    20   13   15 1    
    21   14   52 1    
    22   15   16 1    
    23   15   17 1    
    24   15   53 1    
    25   17   54 1    
    26   17   18 1    
    27   18   19 1    
    28   18   28 1    
    29   19   20 2    
    30   19   55 1    
    31   20   21 1    
    32   21   22 1    
    33   21   28 2    
    34   22   23 2    
    35   22   24 am   
    36   24   25 1    
    37   24   56 1    
    38   25   26 1    
    39   25   27 2    
    40   26   57 1    
    41   26   58 1    
    42   27   28 1    
    43   29   30 1    
    44   29   59 1    
    45   29   60 1    
    46   30   31 1    
    47   30   32 1    
    48   30   61 1    
    49   31   47 1    
    50   32   33 1    
    51   32   34 2    
    52   34   35 1    
    53   34   36 1    
    54   36   37 1    
    55   36   47 1    
    56   36   62 1    
    57   37   38 1    
    58   37   63 1    
    59   38   39 1    
    60   38   45 2    
    61   39   40 2    
    62   39   41 am   
    63   41   42 1    
    64   41   64 1    
    65   42   43 1    
    66   42   44 2    
    67   43   66 1    
    68   43   65 1    
    69   44   45 1    
    70   45   46 1    
    71   46   47 1    
    72   46   67 1    
@<TRIPOS>SUBSTRUCTURE
     1 MGD902      1 GROUP   
@<TRIPOS>SET

