#    Name: 6h5e_2_ANP_CAVITY_N1_4
#    Modification time : Fri May 22 19:32:04 2020

@<TRIPOS>MOLECULE
6h5e_2_ANP_CAVITY_N1_4
   62     0     6     0     0
SMALL
NO_CHARGES


@<TRIPOS>ATOM
      1 OG         24.4100  121.0900  155.8200 O.3       1 SER1        0.0000 
      2 OG         25.7000  120.5800  157.4200 O.3       1 SER1        0.0000 
      3 OG         30.4200  121.4800  162.3300 O.3       1 SER1        0.0000 
      4 O          22.2100  118.9000  159.7100 O.2       2 ALA2        0.0000 
      5 O          22.9700  120.4100  160.9900 O.2       2 ALA2        0.0000 
      6 O          23.5800  119.3300  160.1500 O.2       2 ALA2        0.0000 
      7 N          23.7300  121.9300  162.2700 N.am      2 ALA2        0.0000 
      8 O          24.4900  122.7400  159.1000 O.2       2 ALA2        0.0000 
      9 N          24.3400  120.8400  161.4300 N.am      2 ALA2        0.0000 
     10 N          25.1700  122.6100  157.1000 N.am      2 ALA2        0.0000 
     11 N          25.1000  121.6600  158.2600 N.am      2 ALA2        0.0000 
     12 N          24.9500  119.7600  160.5800 N.am      2 ALA2        0.0000 
     13 N          25.4800  117.7400  160.9000 N.am      2 ALA2        0.0000 
     14 O          26.2400  118.5500  157.7300 O.2       2 ALA2        0.0000 
     15 O          26.1700  117.6000  158.9000 O.2       2 ALA2        0.0000 
     16 O          26.0900  116.6600  160.0600 O.2       2 ALA2        0.0000 
     17 O          26.7700  116.5200  158.0500 O.2       2 ALA2        0.0000 
     18 N          25.8600  123.1700  159.5400 N.am      2 ALA2        0.0000 
     19 O          26.4600  122.0900  158.7000 O.2       2 ALA2        0.0000 
     20 N          26.3200  120.1900  161.0200 N.am      2 ALA2        0.0000 
     21 O          27.0700  121.0100  157.8500 O.2       2 ALA2        0.0000 
     22 O          27.0000  120.0600  159.0100 O.2       2 ALA2        0.0000 
     23 O          27.6100  118.9800  158.1700 O.2       2 ALA2        0.0000 
     24 O          28.3700  120.4900  159.4500 O.2       2 ALA2        0.0000 
     25 O          29.7400  120.9200  159.8900 O.2       2 ALA2        0.0000 
     26 O          31.1100  121.3500  160.3300 O.2       2 ALA2        0.0000 
     27 O          31.0300  120.4000  161.4900 O.2       2 ALA2        0.0000 
     28 NZ         24.7200  116.2300  159.6200 N.4       3 LYS4        0.0000 
     29 CZ         25.7100  121.2700  161.8600 C.ar      4 PHE5        0.0000 
     30 CZ         27.6900  120.6200  161.4600 C.ar      4 PHE5        0.0000 
     31 CZ         28.9800  120.1100  163.0500 C.ar      4 PHE5        0.0000 
     32 CA         21.6800  120.9300  159.3900 C.3       5 GLY6        0.0000 
     33 CA         22.4400  122.4400  160.6700 C.3       5 GLY6        0.0000 
     34 CA         22.3600  121.5000  161.8300 C.3       5 GLY6        0.0000 
     35 CA         23.5100  118.3900  161.3100 C.3       5 GLY6        0.0000 
     36 CA         24.1200  117.3100  160.4600 C.3       5 GLY6        0.0000 
     37 CA         26.3100  119.5000  156.5700 C.3       5 GLY6        0.0000 
     38 CA         25.7800  122.2200  160.7000 C.3       5 GLY6        0.0000 
     39 CA         26.3900  121.1400  159.8600 C.3       5 GLY6        0.0000 
     40 CA         26.9300  119.1100  160.1800 C.3       5 GLY6        0.0000 
     41 CA         26.8500  118.1700  161.3400 C.3       5 GLY6        0.0000 
     42 CA         27.5400  118.0300  159.3300 C.3       5 GLY6        0.0000 
     43 CA         27.7600  121.5700  160.3000 C.3       5 GLY6        0.0000 
     44 CA         27.6100  119.6800  162.6200 C.3       5 GLY6        0.0000 
     45 CA         28.3000  119.5400  160.6100 C.3       5 GLY6        0.0000 
     46 CA         28.2200  118.6000  161.7700 C.3       5 GLY6        0.0000 
     47 CA         29.1300  122.0000  160.7300 C.3       5 GLY6        0.0000 
     48 CA         29.0600  121.0500  161.8900 C.3       5 GLY6        0.0000 
     49 CA         29.6600  119.9700  161.0500 C.3       5 GLY6        0.0000 
     50 CA         29.5900  119.0300  162.2100 C.3       5 GLY6        0.0000 
     51 CA         30.5000  122.4300  161.1700 C.3       5 GLY6        0.0000 
     52 DU         22.8200  117.8200  158.8600 H         6 CUB7        0.0000 
     53 DU         23.0400  121.3600  159.8300 H         6 CUB7        0.0000 
     54 DU         23.7300  121.2300  157.8200 H         6 CUB7        0.0000 
     55 DU         24.3300  120.1500  156.9800 H         6 CUB7        0.0000 
     56 DU         24.1900  118.2500  159.3000 H         6 CUB7        0.0000 
     57 DU         24.8000  117.1700  158.4600 H         6 CUB7        0.0000 
     58 DU         23.8000  122.8700  161.1100 H         6 CUB7        0.0000 
     59 DU         24.4100  121.7900  160.2700 H         6 CUB7        0.0000 
     60 DU         25.0200  120.7100  159.4200 H         6 CUB7        0.0000 
     61 DU         25.6300  119.6300  158.5800 H         6 CUB7        0.0000 
     62 DU         25.5600  118.6800  159.7400 H         6 CUB7        0.0000 
@<TRIPOS>BOND
@<TRIPOS>SUBSTRUCTURE
     1 SER1        1 GROUP   
     2 ALA2        4 GROUP   
     3 LYS4       28 GROUP   
     4 PHE5       29 GROUP   
     5 GLY6       32 GROUP   
     6 CUB7       52 GROUP   
@<TRIPOS>SET

