#    Name: 6h5e_3_ANP
#    Modification time : Fri May 22 19:32:13 2020

@<TRIPOS>MOLECULE
6h5e_3_ANP
   31    33     1     0     1
SMALL
NO_CHARGES


@<TRIPOS>ATOM
      1 PG         28.0330  104.3880  155.1220 P.3       1 ANP502      0.0000 
      2 O1G        27.8940  103.3420  154.0820 O.co2     1 ANP502      0.0000 
      3 O2G        29.3540  105.0770  155.0890 O.co2     1 ANP502      0.0000 
      4 O3G        26.9130  105.3590  155.2400 O.co2     1 ANP502      0.0000 
      5 PB         27.5160  101.8800  156.8140 P.3       1 ANP502      0.0000 
      6 O1B        27.9010  101.1380  155.5940 O.co2     1 ANP502      0.0000 
      7 O2B        26.1080  101.9090  157.2440 O.co2     1 ANP502      0.0000 
      8 N3B        28.0760  103.5190  156.6290 N.3       1 ANP502      0.0000 
      9 PA         29.5120  100.2850  157.9640 P.3       1 ANP502      0.0000 
     10 O1A        30.4030  100.7310  156.8640 O.co2     1 ANP502      0.0000 
     11 O2A        29.1180   98.8570  158.0660 O.co2     1 ANP502      0.0000 
     12 O3A        28.2550  101.2410  158.0460 O.3       1 ANP502      0.0000 
     13 O5'        30.1970  100.6880  159.3280 O.3       1 ANP502      0.0000 
     14 C5'        30.0480  102.0080  159.8160 C.3       1 ANP502      0.0000 
     15 C4'        30.4630  102.1180  161.2670 C.3       1 ANP502      0.0000 
     16 O4'        29.3090  102.1070  162.0740 O.3       1 ANP502      0.0000 
     17 C3'        31.3170  100.9630  161.7350 C.3       1 ANP502      0.0000 
     18 O3'        32.6990  101.2940  161.5980 O.3       1 ANP502      0.0000 
     19 C2'        30.9120  100.7620  163.1680 C.3       1 ANP502      0.0000 
     20 O2'        31.7560  101.5050  164.0410 O.3       1 ANP502      0.0000 
     21 C1'        29.5250  101.3560  163.2560 C.3       1 ANP502      0.0000 
     22 N9         28.4640  100.3330  163.2680 N.pl3     1 ANP502      0.0000 
     23 C8         28.3720   99.3080  162.4320 C.2       1 ANP502      0.0000 
     24 N7         27.2780   98.5820  162.6790 N.2       1 ANP502      0.0000 
     25 C5         26.6450   99.1440  163.6940 C.ar      1 ANP502      0.0000 
     26 C6         25.4220   98.8600  164.4520 C.ar      1 ANP502      0.0000 
     27 N6         24.6520   97.8060  164.1580 N.pl3     1 ANP502      0.0000 
     28 N1         25.1110   99.6940  165.4410 N.ar      1 ANP502      0.0000 
     29 C2         25.8740  100.7450  165.7350 C.ar      1 ANP502      0.0000 
     30 N3         26.9940  101.0610  165.0910 N.ar      1 ANP502      0.0000 
     31 C4         27.4250  100.3030  164.0780 C.ar      1 ANP502      0.0000 
@<TRIPOS>BOND
     1    1    2 ar   
     2    1    3 ar   
     3    1    4 ar   
     4    1    8 1    
     5    5    6 ar   
     6    5    7 ar   
     7    5    8 1    
     8    5   12 1    
     9    9   10 ar   
    10    9   11 ar   
    11    9   12 1    
    12    9   13 1    
    13   13   14 1    
    14   14   15 1    
    15   15   16 1    
    16   15   17 1    
    17   16   21 1    
    18   17   18 1    
    19   17   19 1    
    20   19   20 1    
    21   19   21 1    
    22   21   22 1    
    23   22   23 1    
    24   22   31 1    
    25   23   24 2    
    26   24   25 1    
    27   25   26 ar   
    28   25   31 ar   
    29   26   27 1    
    30   26   28 ar   
    31   28   29 ar   
    32   29   30 ar   
    33   30   31 ar   
@<TRIPOS>SUBSTRUCTURE
     1 ANP502      1 GROUP   
@<TRIPOS>SET
ATOM$ORANGE STATIC     ATOMS   COLORGROUP SYSTEM 
20 14 14 15 15 17 17 19 19 21 21 23 23 25 25 26 26 29 \
29 31 31 

