#    Name: 6h5e_3_ANP_CAVITY_N1_6
#    Modification time : Fri May 22 19:32:15 2020

@<TRIPOS>MOLECULE
6h5e_3_ANP_CAVITY_N1_6
   34     0     4     0     0
SMALL
NO_CHARGES


@<TRIPOS>ATOM
      1 O          33.5000   96.6700  161.6600 O.2       1 ALA2        0.0000 
      2 O          33.4300   95.7200  162.8200 O.2       1 ALA2        0.0000 
      3 O          36.3800   99.4300  160.2100 O.2       1 ALA2        0.0000 
      4 O          36.3100   98.4800  161.3700 O.2       1 ALA2        0.0000 
      5 O          37.7500   99.8600  160.6500 O.2       1 ALA2        0.0000 
      6 CZ         32.8900   97.7500  162.5000 C.ar      2 PHE5        0.0000 
      7 CZ         34.2600   98.1800  162.9400 C.ar      2 PHE5        0.0000 
      8 CZ         34.1900   97.2400  164.1000 C.ar      2 PHE5        0.0000 
      9 CZ         34.1100   96.2900  165.2600 C.ar      2 PHE5        0.0000 
     10 CA         33.6500   99.2600  163.7800 C.3       3 GLY6        0.0000 
     11 CA         35.1700  101.5900  161.9000 C.3       3 GLY6        0.0000 
     12 CA         35.0900  100.6400  163.0600 C.3       3 GLY6        0.0000 
     13 CA         35.7000   99.5600  162.2200 C.3       3 GLY6        0.0000 
     14 CA         35.6300   98.6100  163.3800 C.3       3 GLY6        0.0000 
     15 CA         35.5600   97.6700  164.5400 C.3       3 GLY6        0.0000 
     16 CA         36.6800  103.9100  160.0200 C.3       3 GLY6        0.0000 
     17 CA         36.4600  101.0700  163.5000 C.3       3 GLY6        0.0000 
     18 CA         37.2200  101.8800  160.3300 C.3       3 GLY6        0.0000 
     19 CA         37.1400  100.9400  161.4900 C.3       3 GLY6        0.0000 
     20 CA         37.0700   99.9900  162.6500 C.3       3 GLY6        0.0000 
     21 CA         37.0000   99.0400  163.8200 C.3       3 GLY6        0.0000 
     22 CA         38.5100  101.3700  161.9300 C.3       3 GLY6        0.0000 
     23 CA         38.4400  100.4200  163.0900 C.3       3 GLY6        0.0000 
     24 DU         32.9600   98.7000  161.3400 H         4 CUB7        0.0000 
     25 DU         33.5700   97.6200  160.5000 H         4 CUB7        0.0000 
     26 DU         34.3300   99.1300  161.7800 H         4 CUB7        0.0000 
     27 DU         34.9400   98.0500  160.9400 H         4 CUB7        0.0000 
     28 DU         34.8700   97.1000  162.1000 H         4 CUB7        0.0000 
     29 DU         34.8000   96.1500  163.2600 H         4 CUB7        0.0000 
     30 DU         35.4800   96.0200  161.2500 H         4 CUB7        0.0000 
     31 DU         35.7700  100.5100  161.0600 H         4 CUB7        0.0000 
     32 DU         36.2400   97.5300  162.5300 H         4 CUB7        0.0000 
     33 DU         37.8300  100.8000  159.4900 H         4 CUB7        0.0000 
     34 DU         37.6800   98.9100  161.8100 H         4 CUB7        0.0000 
@<TRIPOS>BOND
@<TRIPOS>SUBSTRUCTURE
     1 ALA2        1 GROUP   
     2 PHE5        6 GROUP   
     3 GLY6       10 GROUP   
     4 CUB7       24 GROUP   
@<TRIPOS>SET

