#    Name: 6cmw_1_ATP
#    Modification time : Fri May 22 19:28:51 2020

@<TRIPOS>MOLECULE
6cmw_1_ATP
   31    33     1     0     1
SMALL
NO_CHARGES


@<TRIPOS>ATOM
      1 PG        -22.2150    3.8880  -14.1540 P.3       1 ATP501      0.0000 
      2 O1G       -21.3630    3.7740  -15.4040 O.co2     1 ATP501      0.0000 
      3 O2G       -23.6990    3.7290  -14.4440 O.co2     1 ATP501      0.0000 
      4 O3G       -21.7300    3.0810  -12.9830 O.co2     1 ATP501      0.0000 
      5 PB        -20.6290    6.2250  -13.8370 P.3       1 ATP501      0.0000 
      6 O1B       -19.8960    5.8960  -15.1340 O.co2     1 ATP501      0.0000 
      7 O2B       -19.8440    6.3620  -12.5590 O.co2     1 ATP501      0.0000 
      8 O3B       -21.9570    5.3600  -13.5820 O.3       1 ATP501      0.0000 
      9 PA        -22.7860    7.7730  -14.9250 P.3       1 ATP501      0.0000 
     10 O1A       -22.4280    8.7300  -16.0340 O.co2     1 ATP501      0.0000 
     11 O2A       -23.5660    6.5260  -15.2950 O.co2     1 ATP501      0.0000 
     12 O3A       -21.4080    7.6080  -14.0830 O.3       1 ATP501      0.0000 
     13 O5'       -23.6410    8.6150  -13.8790 O.3       1 ATP501      0.0000 
     14 C5'       -24.9180    8.1460  -13.4860 C.3       1 ATP501      0.0000 
     15 C4'       -25.5790    9.1690  -12.5640 C.3       1 ATP501      0.0000 
     16 O4'       -24.7880   10.3440  -12.3100 O.3       1 ATP501      0.0000 
     17 C3'       -26.8650    9.6350  -13.2010 C.3       1 ATP501      0.0000 
     18 O3'       -27.9660    8.8240  -12.8070 O.3       1 ATP501      0.0000 
     19 C2'       -27.0060   11.0450  -12.7040 C.3       1 ATP501      0.0000 
     20 O2'       -27.8130   11.0270  -11.5270 O.3       1 ATP501      0.0000 
     21 C1'       -25.5840   11.5230  -12.4370 C.3       1 ATP501      0.0000 
     22 N9        -25.2130   12.2280  -13.6990 N.pl3     1 ATP501      0.0000 
     23 C8        -24.3020   11.7950  -14.6000 C.2       1 ATP501      0.0000 
     24 N7        -24.2100   12.6260  -15.6690 N.2       1 ATP501      0.0000 
     25 C5        -25.0810   13.6460  -15.4730 C.ar      1 ATP501      0.0000 
     26 C6        -25.4980   14.8780  -16.2120 C.ar      1 ATP501      0.0000 
     27 N6        -24.9630   15.2410  -17.4090 N.pl3     1 ATP501      0.0000 
     28 N1        -26.4450   15.6520  -15.6520 N.ar      1 ATP501      0.0000 
     29 C2        -27.0100   15.3390  -14.4750 C.ar      1 ATP501      0.0000 
     30 N3        -26.6870   14.2500  -13.7560 N.ar      1 ATP501      0.0000 
     31 C4        -25.7430   13.3710  -14.1810 C.ar      1 ATP501      0.0000 
@<TRIPOS>BOND
     1    1    2 ar   
     2    1    3 ar   
     3    1    4 ar   
     4    1    8 1    
     5    5    6 ar   
     6    5    7 ar   
     7    5    8 1    
     8    5   12 1    
     9    9   10 ar   
    10    9   11 ar   
    11    9   12 1    
    12    9   13 1    
    13   13   14 1    
    14   14   15 1    
    15   15   16 1    
    16   15   17 1    
    17   16   21 1    
    18   17   18 1    
    19   17   19 1    
    20   19   20 1    
    21   19   21 1    
    22   21   22 1    
    23   22   23 1    
    24   22   31 1    
    25   23   24 2    
    26   24   25 1    
    27   25   26 ar   
    28   25   31 ar   
    29   26   27 1    
    30   26   28 ar   
    31   28   29 ar   
    32   29   30 ar   
    33   30   31 ar   
@<TRIPOS>SUBSTRUCTURE
     1 ATP501      1 GROUP   
@<TRIPOS>SET
ATOM$ORANGE STATIC     ATOMS   COLORGROUP SYSTEM 
20 14 14 15 15 17 17 19 19 21 21 23 23 25 25 26 26 29 \
29 31 31 

