#    Name: 5tvu_2_ATP
#    Modification time : Fri May 22 19:12:19 2020

@<TRIPOS>MOLECULE
5tvu_2_ATP
   31    33     1     0     1
SMALL
NO_CHARGES


@<TRIPOS>ATOM
      1 PG        237.3300   15.3000   20.1140 P.3       1 ATP801      0.0000 
      2 O1G       237.1980   16.5080   21.0090 O.co2     1 ATP801      0.0000 
      3 O2G       236.7560   14.0240   20.6760 O.co2     1 ATP801      0.0000 
      4 O3G       236.9350   15.5740   18.6860 O.co2     1 ATP801      0.0000 
      5 PB        239.9510   15.3430   21.1960 P.3       1 ATP801      0.0000 
      6 O1B       241.0450   14.3020   21.1530 O.co2     1 ATP801      0.0000 
      7 O2B       239.2160   15.5930   22.4910 O.co2     1 ATP801      0.0000 
      8 O3B       238.9150   15.0280   20.0030 O.3       1 ATP801      0.0000 
      9 PA        241.5850   17.6100   21.5270 P.3       1 ATP801      0.0000 
     10 O1A       240.8700   18.0510   22.7820 O.co2     1 ATP801      0.0000 
     11 O2A       242.2060   18.6380   20.6130 O.co2     1 ATP801      0.0000 
     12 O3A       240.5690   16.7260   20.6530 O.3       1 ATP801      0.0000 
     13 O5'       242.7030   16.5260   21.9220 O.3       1 ATP801      0.0000 
     14 C5'       244.0000   16.9570   22.3160 C.3       1 ATP801      0.0000 
     15 C4'       244.7100   15.8170   23.0270 C.3       1 ATP801      0.0000 
     16 O4'       245.4170   16.3470   24.1490 O.3       1 ATP801      0.0000 
     17 C3'       243.7370   14.7750   23.5510 C.3       1 ATP801      0.0000 
     18 O3'       243.8120   13.5860   22.7600 O.3       1 ATP801      0.0000 
     19 C2'       244.1700   14.4940   24.9750 C.3       1 ATP801      0.0000 
     20 O2'       244.8220   13.2230   25.0420 O.3       1 ATP801      0.0000 
     21 C1'       245.1600   15.5890   25.3310 C.3       1 ATP801      0.0000 
     22 N9        244.5340   16.4760   26.3410 N.pl3     1 ATP801      0.0000 
     23 C8        243.5680   17.3800   26.0900 C.2       1 ATP801      0.0000 
     24 N7        243.2010   18.0320   27.2220 N.2       1 ATP801      0.0000 
     25 C5        243.9440   17.5370   28.2290 C.ar      1 ATP801      0.0000 
     26 C6        244.0630   17.7820   29.6850 C.ar      1 ATP801      0.0000 
     27 N6        243.2930   18.7090   30.3030 N.pl3     1 ATP801      0.0000 
     28 N1        244.9650   17.0470   30.3730 N.ar      1 ATP801      0.0000 
     29 C2        245.7360   16.1230   29.7690 C.ar      1 ATP801      0.0000 
     30 N3        245.6790   15.8490   28.4530 N.ar      1 ATP801      0.0000 
     31 C4        244.8190   16.5100   27.6440 C.ar      1 ATP801      0.0000 
@<TRIPOS>BOND
     1    1    2 ar   
     2    1    3 ar   
     3    1    4 ar   
     4    1    8 1    
     5    5    6 ar   
     6    5    7 ar   
     7    5    8 1    
     8    5   12 1    
     9    9   10 ar   
    10    9   11 ar   
    11    9   12 1    
    12    9   13 1    
    13   13   14 1    
    14   14   15 1    
    15   15   16 1    
    16   15   17 1    
    17   16   21 1    
    18   17   18 1    
    19   17   19 1    
    20   19   20 1    
    21   19   21 1    
    22   21   22 1    
    23   22   23 1    
    24   22   31 1    
    25   23   24 2    
    26   24   25 1    
    27   25   26 ar   
    28   25   31 ar   
    29   26   27 1    
    30   26   28 ar   
    31   28   29 ar   
    32   29   30 ar   
    33   30   31 ar   
@<TRIPOS>SUBSTRUCTURE
     1 ATP801      1 GROUP   
@<TRIPOS>SET
ATOM$ORANGE STATIC     ATOMS   COLORGROUP SYSTEM 
20 14 14 15 15 17 17 19 19 21 21 23 23 25 25 26 26 29 \
29 31 31 

