#    Name: 5tvu_1_ATP
#    Modification time : Fri May 22 19:12:11 2020

@<TRIPOS>MOLECULE
5tvu_1_ATP
   31    33     1     0     1
SMALL
NO_CHARGES


@<TRIPOS>ATOM
      1 PG        232.9280   24.2720    0.2970 P.3       1 ATP801      0.0000 
      2 O1G       232.1160   25.1350    1.2310 O.co2     1 ATP801      0.0000 
      3 O2G       234.0780   23.5640    0.9750 O.co2     1 ATP801      0.0000 
      4 O3G       232.1160   23.3940   -0.6250 O.co2     1 ATP801      0.0000 
      5 PB        234.4180   24.8490   -2.0050 P.3       1 ATP801      0.0000 
      6 O1B       235.2310   26.0130   -2.5210 O.co2     1 ATP801      0.0000 
      7 O2B       233.4330   24.1680   -2.9240 O.co2     1 ATP801      0.0000 
      8 O3B       233.6480   25.3340   -0.6770 O.3       1 ATP801      0.0000 
      9 PA        235.9700   22.5410   -2.3310 P.3       1 ATP801      0.0000 
     10 O1A       234.7780   21.7440   -2.8040 O.co2     1 ATP801      0.0000 
     11 O2A       237.0870   21.8580   -1.5820 O.co2     1 ATP801      0.0000 
     12 O3A       235.4440   23.7560   -1.4190 O.3       1 ATP801      0.0000 
     13 O5'       236.5890   23.3470   -3.5750 O.3       1 ATP801      0.0000 
     14 C5'       237.9660   23.2060   -3.9020 C.3       1 ATP801      0.0000 
     15 C4'       238.2810   24.1130   -5.0830 C.3       1 ATP801      0.0000 
     16 O4'       238.3440   23.3390   -6.2810 O.3       1 ATP801      0.0000 
     17 C3'       237.2300   25.1900   -5.2920 C.3       1 ATP801      0.0000 
     18 O3'       237.7090   26.4520   -4.8250 O.3       1 ATP801      0.0000 
     19 C2'       236.9990   25.2370   -6.7880 C.3       1 ATP801      0.0000 
     20 O2'       237.5470   26.4430   -7.3260 O.3       1 ATP801      0.0000 
     21 C1'       237.7350   24.0390   -7.3660 C.3       1 ATP801      0.0000 
     22 N9        236.7540   23.1460   -8.0270 N.pl3     1 ATP801      0.0000 
     23 C8        236.0750   22.1510   -7.4260 C.2       1 ATP801      0.0000 
     24 N7        235.2520   21.5210   -8.3020 N.2       1 ATP801      0.0000 
     25 C5        235.4020   22.1220   -9.4960 C.ar      1 ATP801      0.0000 
     26 C6        234.8310   21.9550  -10.8520 C.ar      1 ATP801      0.0000 
     27 N6        233.9130   20.9920  -11.1080 N.pl3     1 ATP801      0.0000 
     28 N1        235.2590   22.7930  -11.8210 N.ar      1 ATP801      0.0000 
     29 C2        236.1710   23.7530  -11.5760 C.ar      1 ATP801      0.0000 
     30 N3        236.7300   23.9620  -10.3710 N.ar      1 ATP801      0.0000 
     31 C4        236.3920   23.1930   -9.3090 C.ar      1 ATP801      0.0000 
@<TRIPOS>BOND
     1    1    2 ar   
     2    1    3 ar   
     3    1    4 ar   
     4    1    8 1    
     5    5    6 ar   
     6    5    7 ar   
     7    5    8 1    
     8    5   12 1    
     9    9   10 ar   
    10    9   11 ar   
    11    9   12 1    
    12    9   13 1    
    13   13   14 1    
    14   14   15 1    
    15   15   16 1    
    16   15   17 1    
    17   16   21 1    
    18   17   18 1    
    19   17   19 1    
    20   19   20 1    
    21   19   21 1    
    22   21   22 1    
    23   22   23 1    
    24   22   31 1    
    25   23   24 2    
    26   24   25 1    
    27   25   26 ar   
    28   25   31 ar   
    29   26   27 1    
    30   26   28 ar   
    31   28   29 ar   
    32   29   30 ar   
    33   30   31 ar   
@<TRIPOS>SUBSTRUCTURE
     1 ATP801      1 GROUP   
@<TRIPOS>SET
ATOM$ORANGE STATIC     ATOMS   COLORGROUP SYSTEM 
20 14 14 15 15 17 17 19 19 21 21 23 23 25 25 26 26 29 \
29 31 31 

