#    Name: 6isv_2_NAD
#    Modification time : Fri May 22 19:27:06 2020

@<TRIPOS>MOLECULE
6isv_2_NAD
   44    48     1     0     1
SMALL
NO_CHARGES


@<TRIPOS>ATOM
      1 PA        -19.9530   74.6360   -3.6540 P.3       1 NAD401      0.0000 
      2 O1A       -19.7850   75.1510   -5.0380 O.co2     1 NAD401      0.0000 
      3 O2A       -21.2110   73.9400   -3.3090 O.co2     1 NAD401      0.0000 
      4 O5B       -19.7790   75.8480   -2.5800 O.3       1 NAD401      0.0000 
      5 C5B       -18.7680   76.8240   -2.8470 C.3       1 NAD401      0.0000 
      6 C4B       -18.9500   78.1080   -2.0380 C.3       1 NAD401      0.0000 
      7 O4B       -17.6140   78.6310   -2.1670 O.3       1 NAD401      0.0000 
      8 C3B       -19.8370   79.1520   -2.7560 C.3       1 NAD401      0.0000 
      9 O3B       -20.8830   79.6100   -1.8730 O.3       1 NAD401      0.0000 
     10 C2B       -18.8340   80.2790   -3.0350 C.3       1 NAD401      0.0000 
     11 O2B       -19.4480   81.5980   -2.8690 O.3       1 NAD401      0.0000 
     12 C1B       -17.7690   80.0300   -1.9830 C.3       1 NAD401      0.0000 
     13 N9A       -16.4610   80.7290   -2.2690 N.pl3     1 NAD401      0.0000 
     14 C8A       -15.6560   80.5540   -3.3190 C.2       1 NAD401      0.0000 
     15 N7A       -14.6070   81.3650   -3.1670 N.2       1 NAD401      0.0000 
     16 C5A       -14.7460   82.0470   -2.0200 C.ar      1 NAD401      0.0000 
     17 C6A       -13.9840   82.9700   -1.4000 C.ar      1 NAD401      0.0000 
     18 N6A       -12.8450   83.3310   -1.9750 N.pl3     1 NAD401      0.0000 
     19 N1A       -14.3320   83.5250   -0.2400 N.ar      1 NAD401      0.0000 
     20 C2A       -15.5290   83.1200    0.3500 C.ar      1 NAD401      0.0000 
     21 N3A       -16.3120   82.1550   -0.3020 N.ar      1 NAD401      0.0000 
     22 C4A       -15.9010   81.6430   -1.4700 C.ar      1 NAD401      0.0000 
     23 O3        -18.6880   73.6950   -3.2800 O.3       1 NAD401      0.0000 
     24 PN        -18.8440   72.4730   -2.2270 P.3       1 NAD401      0.0000 
     25 O1N       -19.2550   71.2780   -2.9900 O.co2     1 NAD401      0.0000 
     26 O2N       -19.6560   72.9220   -1.0710 O.co2     1 NAD401      0.0000 
     27 O5D       -17.3240   72.2570   -1.7360 O.3       1 NAD401      0.0000 
     28 C5D       -16.4000   73.3440   -1.6430 C.3       1 NAD401      0.0000 
     29 C4D       -14.9450   72.8420   -1.7140 C.3       1 NAD401      0.0000 
     30 O4D       -14.8090   71.6930   -0.8370 O.3       1 NAD401      0.0000 
     31 C3D       -14.5580   72.3050   -3.1000 C.3       1 NAD401      0.0000 
     32 O3D       -13.1500   72.4330   -3.2680 O.3       1 NAD401      0.0000 
     33 C2D       -14.8590   70.8460   -2.9110 C.3       1 NAD401      0.0000 
     34 O2D       -14.2310   70.0520   -3.9140 O.3       1 NAD401      0.0000 
     35 C1D       -14.1370   70.6820   -1.6160 C.3       1 NAD401      0.0000 
     36 N1N       -14.3960   69.3590   -0.9950 N.pl3     1 NAD401      0.0000 
     37 C2N       -13.4410   68.7520   -0.1990 C.ar      1 NAD401      0.0000 
     38 C3N       -13.6920   67.5200    0.4000 C.ar      1 NAD401      0.0000 
     39 C7N       -12.7070   66.9470    1.2120 C.2       1 NAD401      0.0000 
     40 O7N       -11.8090   67.6390    1.6910 O.2       1 NAD401      0.0000 
     41 N7N       -12.8450   65.6540    1.4640 N.am      1 NAD401      0.0000 
     42 C4N       -14.9160   66.8840    0.2060 C.ar      1 NAD401      0.0000 
     43 C5N       -15.8810   67.4850   -0.5960 C.ar      1 NAD401      0.0000 
     44 C6N       -15.6240   68.7180   -1.1880 C.ar      1 NAD401      0.0000 
@<TRIPOS>BOND
     1    1    2 ar   
     2    1    3 ar   
     3    1    4 1    
     4    1   23 1    
     5    4    5 1    
     6    5    6 1    
     7    6    7 1    
     8    6    8 1    
     9    7   12 1    
    10    8    9 1    
    11    8   10 1    
    12   10   11 1    
    13   10   12 1    
    14   12   13 1    
    15   13   14 1    
    16   13   22 1    
    17   14   15 2    
    18   15   16 1    
    19   16   17 ar   
    20   16   22 ar   
    21   17   18 1    
    22   17   19 ar   
    23   19   20 ar   
    24   20   21 ar   
    25   21   22 ar   
    26   23   24 1    
    27   24   25 ar   
    28   24   26 ar   
    29   24   27 1    
    30   27   28 1    
    31   28   29 1    
    32   29   30 1    
    33   29   31 1    
    34   30   35 1    
    35   31   32 1    
    36   31   33 1    
    37   33   34 1    
    38   33   35 1    
    39   35   36 1    
    40   36   37 ar   
    41   36   44 ar   
    42   37   38 ar   
    43   38   39 1    
    44   38   42 ar   
    45   39   40 2    
    46   39   41 am   
    47   42   43 ar   
    48   43   44 ar   
@<TRIPOS>SUBSTRUCTURE
     1 NAD401      1 GROUP   
@<TRIPOS>SET
ATOM$ORANGE STATIC     ATOMS   COLORGROUP SYSTEM 
42 5 5 6 6 8 8 10 10 12 12 14 14 16 16 17 17 20 \
20 22 22 28 28 29 29 31 31 33 33 35 35 37 37 38 38 39 \
39 42 42 43 43 44 44 

