#    Name: 6isv_1_NAD
#    Modification time : Fri May 22 19:27:00 2020

@<TRIPOS>MOLECULE
6isv_1_NAD
   44    48     1     0     1
SMALL
NO_CHARGES


@<TRIPOS>ATOM
      1 PA          0.0300   33.0610   34.4220 P.3       1 NAD401      0.0000 
      2 O1A        -0.5140   31.9260   35.2100 O.co2     1 NAD401      0.0000 
      3 O2A         0.7110   32.7850   33.1370 O.co2     1 NAD401      0.0000 
      4 O5B         1.0700   33.8590   35.3500 O.3       1 NAD401      0.0000 
      5 C5B         0.6290   34.8750   36.2530 C.3       1 NAD401      0.0000 
      6 C4B         1.8190   35.3730   37.0990 C.3       1 NAD401      0.0000 
      7 O4B         1.2550   36.1290   38.2110 O.3       1 NAD401      0.0000 
      8 C3B         2.6020   34.2090   37.7450 C.3       1 NAD401      0.0000 
      9 O3B         4.0050   34.3220   37.4570 O.3       1 NAD401      0.0000 
     10 C2B         2.3680   34.5220   39.2020 C.3       1 NAD401      0.0000 
     11 O2B         3.5190   34.1440   39.9670 O.3       1 NAD401      0.0000 
     12 C1B         2.2510   36.0140   39.1850 C.3       1 NAD401      0.0000 
     13 N9A         1.6680   36.5010   40.4520 N.pl3     1 NAD401      0.0000 
     14 C8A         0.5410   36.0370   41.0000 C.2       1 NAD401      0.0000 
     15 N7A         0.3200   36.7210   42.1230 N.2       1 NAD401      0.0000 
     16 C5A         1.3180   37.5960   42.2800 C.ar      1 NAD401      0.0000 
     17 C6A         1.5630   38.4970   43.2310 C.ar      1 NAD401      0.0000 
     18 N6A         0.6880   38.5690   44.2320 N.pl3     1 NAD401      0.0000 
     19 N1A         2.6380   39.2940   43.1910 N.ar      1 NAD401      0.0000 
     20 C2A         3.5290   39.1770   42.1150 C.ar      1 NAD401      0.0000 
     21 N3A         3.2500   38.2230   41.1270 N.ar      1 NAD401      0.0000 
     22 C4A         2.1510   37.4600   41.2410 C.ar      1 NAD401      0.0000 
     23 O3         -1.1690   34.1590   34.2230 O.3       1 NAD401      0.0000 
     24 PN         -1.4820   34.9260   32.8150 P.3       1 NAD401      0.0000 
     25 O1N        -2.1240   33.9690   31.8720 O.co2     1 NAD401      0.0000 
     26 O2N        -0.2880   35.7020   32.4150 O.co2     1 NAD401      0.0000 
     27 O5D        -2.6000   35.9900   33.2460 O.3       1 NAD401      0.0000 
     28 C5D        -2.4260   36.8850   34.3480 C.3       1 NAD401      0.0000 
     29 C4D        -3.7040   37.7200   34.5240 C.3       1 NAD401      0.0000 
     30 O4D        -4.0160   38.3090   33.2090 O.3       1 NAD401      0.0000 
     31 C3D        -4.9300   36.8630   34.8530 C.3       1 NAD401      0.0000 
     32 O3D        -5.7650   37.5720   35.7770 O.3       1 NAD401      0.0000 
     33 C2D        -5.5970   36.8400   33.4770 C.3       1 NAD401      0.0000 
     34 O2D        -6.9770   36.4820   33.5910 O.3       1 NAD401      0.0000 
     35 C1D        -5.4400   38.2620   33.0780 C.3       1 NAD401      0.0000 
     36 N1N        -5.8180   38.5440   31.6410 N.pl3     1 NAD401      0.0000 
     37 C2N        -6.3600   39.8020   31.2740 C.ar      1 NAD401      0.0000 
     38 C3N        -6.7050   40.0920   29.9540 C.ar      1 NAD401      0.0000 
     39 C7N        -7.2500   41.3350   29.6210 C.2       1 NAD401      0.0000 
     40 O7N        -6.9820   42.3530   30.2610 O.2       1 NAD401      0.0000 
     41 N7N        -8.0480   41.3380   28.5620 N.am      1 NAD401      0.0000 
     42 C4N        -6.5040   39.1220   28.9760 C.ar      1 NAD401      0.0000 
     43 C5N        -5.9650   37.8800   29.3090 C.ar      1 NAD401      0.0000 
     44 C6N        -5.6100   37.5840   30.6260 C.ar      1 NAD401      0.0000 
@<TRIPOS>BOND
     1    1    2 ar   
     2    1    3 ar   
     3    1    4 1    
     4    1   23 1    
     5    4    5 1    
     6    5    6 1    
     7    6    7 1    
     8    6    8 1    
     9    7   12 1    
    10    8    9 1    
    11    8   10 1    
    12   10   11 1    
    13   10   12 1    
    14   12   13 1    
    15   13   14 1    
    16   13   22 1    
    17   14   15 2    
    18   15   16 1    
    19   16   17 ar   
    20   16   22 ar   
    21   17   18 1    
    22   17   19 ar   
    23   19   20 ar   
    24   20   21 ar   
    25   21   22 ar   
    26   23   24 1    
    27   24   25 ar   
    28   24   26 ar   
    29   24   27 1    
    30   27   28 1    
    31   28   29 1    
    32   29   30 1    
    33   29   31 1    
    34   30   35 1    
    35   31   32 1    
    36   31   33 1    
    37   33   34 1    
    38   33   35 1    
    39   35   36 1    
    40   36   37 ar   
    41   36   44 ar   
    42   37   38 ar   
    43   38   39 1    
    44   38   42 ar   
    45   39   40 2    
    46   39   41 am   
    47   42   43 ar   
    48   43   44 ar   
@<TRIPOS>SUBSTRUCTURE
     1 NAD401      1 GROUP   
@<TRIPOS>SET
ATOM$ORANGE STATIC     ATOMS   COLORGROUP SYSTEM 
42 5 5 6 6 8 8 10 10 12 12 14 14 16 16 17 17 20 \
20 22 22 28 28 29 29 31 31 33 33 35 35 37 37 38 38 39 \
39 42 42 43 43 44 44 

