#    Name: 6mb9_4_COA
#    Modification time : Fri May 22 19:24:07 2020

@<TRIPOS>MOLECULE
6mb9_4_COA
   48    50     1     0     1
SMALL
NO_CHARGES


@<TRIPOS>ATOM
      1 N1A       -15.4400   -5.8370    0.7830 N.ar      1 COA301      0.0000 
      2 C2A       -16.0080   -6.1480   -0.4170 C.ar      1 COA301      0.0000 
      3 N3A       -17.0280   -5.3810   -0.9110 N.ar      1 COA301      0.0000 
      4 C4A       -17.4740   -4.3060   -0.2030 C.ar      1 COA301      0.0000 
      5 C5A       -16.9190   -4.0020    0.9720 C.ar      1 COA301      0.0000 
      6 C6A       -15.8730   -4.7920    1.4750 C.ar      1 COA301      0.0000 
      7 N6A       -15.1310   -4.6730    2.6890 N.pl3     1 COA301      0.0000 
      8 N7A       -17.5430   -2.9080    1.4560 N.2       1 COA301      0.0000 
      9 C8A       -18.4790   -2.5430    0.5730 C.2       1 COA301      0.0000 
     10 N9A       -18.4440   -3.4060   -0.4500 N.pl3     1 COA301      0.0000 
     11 C1B       -19.2450   -3.4310   -1.6460 C.3       1 COA301      0.0000 
     12 C2B       -20.3260   -4.1670   -1.4920 C.3       1 COA301      0.0000 
     13 O2B       -20.6640   -4.7380   -2.7630 O.3       1 COA301      0.0000 
     14 C3B       -21.4320   -3.1660   -1.0890 C.3       1 COA301      0.0000 
     15 O3B       -22.6320   -3.6450   -1.4440 O.3       1 COA301      0.0000 
     16 P3B       -23.8300   -3.8440   -0.2550 P.3       1 COA301      0.0000 
     17 O7A       -25.1410   -4.1600   -0.9440 O.co2     1 COA301      0.0000 
     18 O8A       -23.9540   -2.5480    0.5810 O.co2     1 COA301      0.0000 
     19 O9A       -23.4710   -4.9830    0.6710 O.co2     1 COA301      0.0000 
     20 C4B       -21.0640   -1.9240   -1.9690 C.3       1 COA301      0.0000 
     21 O4B       -19.7580   -1.9120   -2.0130 O.3       1 COA301      0.0000 
     22 C5B       -21.5390   -0.6260   -1.3490 C.3       1 COA301      0.0000 
     23 O5B       -21.0830    0.3990   -2.1930 O.3       1 COA301      0.0000 
     24 P1A       -20.7170    1.8810   -1.5570 P.3       1 COA301      0.0000 
     25 O1A       -19.7340    1.7480   -0.4260 O.co2     1 COA301      0.0000 
     26 O2A       -20.1300    2.7280   -2.6400 O.co2     1 COA301      0.0000 
     27 O3A       -22.1110    2.5820   -1.0000 O.3       1 COA301      0.0000 
     28 P2A       -23.5620    2.5750   -1.8820 P.3       1 COA301      0.0000 
     29 O4A       -24.6530    1.9600   -1.0210 O.co2     1 COA301      0.0000 
     30 O5A       -23.3940    1.7880   -3.1620 O.co2     1 COA301      0.0000 
     31 O6A       -23.9790    4.1250   -2.2640 O.3       1 COA301      0.0000 
     32 CBP       -23.2040    6.2310   -1.4510 C.3       1 COA301      0.0000 
     33 CCP       -24.1100    5.0340   -1.1850 C.3       1 COA301      0.0000 
     34 CDP       -21.7930    5.7520   -1.5700 C.3       1 COA301      0.0000 
     35 CEP       -23.3260    7.1830   -0.2860 C.3       1 COA301      0.0000 
     36 CAP       -23.6540    6.9230   -2.7570 C.3       1 COA301      0.0000 
     37 OAP       -24.9320    7.3840   -2.5910 O.3       1 COA301      0.0000 
     38 C9P       -22.7190    8.1260   -3.0750 C.2       1 COA301      0.0000 
     39 O9P       -23.0000    9.2360   -2.6540 O.2       1 COA301      0.0000 
     40 N8P       -21.4640    7.9340   -3.9110 N.am      1 COA301      0.0000 
     41 C7P       -20.5680    9.1350   -4.1950 C.3       1 COA301      0.0000 
     42 C6P       -19.8230    9.4690   -2.8960 C.3       1 COA301      0.0000 
     43 C5P       -18.9100   10.7000   -3.0740 C.2       1 COA301      0.0000 
     44 O5P       -17.9200   10.6270   -3.7370 O.2       1 COA301      0.0000 
     45 N4P       -19.2660   11.9110   -2.4280 N.am      1 COA301      0.0000 
     46 C3P       -18.4420   13.1110   -2.5530 C.3       1 COA301      0.0000 
     47 C2P       -18.9510   14.1660   -1.5140 C.3       1 COA301      0.0000 
     48 S1P       -20.7180   13.8250   -1.0980 S.3       1 COA301      0.0000 
@<TRIPOS>BOND
     1    1    2 ar   
     2    1    6 ar   
     3    2    3 ar   
     4    3    4 ar   
     5    4    5 ar   
     6    4   10 1    
     7    5    6 ar   
     8    5    8 1    
     9    6    7 1    
    10    8    9 2    
    11    9   10 1    
    12   10   11 1    
    13   11   12 1    
    14   11   21 1    
    15   12   13 1    
    16   12   14 1    
    17   14   15 1    
    18   14   20 1    
    19   15   16 1    
    20   16   17 ar   
    21   16   18 ar   
    22   16   19 ar   
    23   20   21 1    
    24   20   22 1    
    25   22   23 1    
    26   23   24 1    
    27   24   25 ar   
    28   24   26 ar   
    29   24   27 1    
    30   27   28 1    
    31   28   29 ar   
    32   28   30 ar   
    33   28   31 1    
    34   31   33 1    
    35   32   33 1    
    36   32   34 1    
    37   32   35 1    
    38   32   36 1    
    39   36   37 1    
    40   36   38 1    
    41   38   39 2    
    42   38   40 am   
    43   40   41 1    
    44   41   42 1    
    45   42   43 1    
    46   43   44 2    
    47   43   45 am   
    48   45   46 1    
    49   46   47 1    
    50   47   48 1    
@<TRIPOS>SUBSTRUCTURE
     1 COA301      1 GROUP   
@<TRIPOS>SET
ATOM$ORANGE STATIC     ATOMS   COLORGROUP SYSTEM 
42 2 2 4 4 5 5 6 6 9 9 11 11 12 12 14 14 20 \
20 22 22 32 32 33 33 34 34 35 35 36 36 38 38 41 41 42 \
42 43 43 46 46 47 47 

