#    Name: 6mb9_2_COA
#    Modification time : Fri May 22 19:24:03 2020

@<TRIPOS>MOLECULE
6mb9_2_COA
   48    50     1     0     1
SMALL
NO_CHARGES


@<TRIPOS>ATOM
      1 N1A       -15.1620    3.8990    8.5530 N.ar      1 COA301      0.0000 
      2 C2A       -15.4240    4.1030    9.8750 C.ar      1 COA301      0.0000 
      3 N3A       -16.0990    3.1590   10.6010 N.ar      1 COA301      0.0000 
      4 C4A       -16.5080    2.0070    9.9950 C.ar      1 COA301      0.0000 
      5 C5A       -16.2500    1.8080    8.7010 C.ar      1 COA301      0.0000 
      6 C6A       -15.5590    2.7790    7.9650 C.ar      1 COA301      0.0000 
      7 N6A       -15.1800    2.7810    6.5890 N.pl3     1 COA301      0.0000 
      8 N7A       -16.7530    0.6100    8.3490 N.2       1 COA301      0.0000 
      9 C8A       -17.3190    0.0720    9.4320 C.2       1 COA301      0.0000 
     10 N9A       -17.1780    0.9300   10.4490 N.pl3     1 COA301      0.0000 
     11 C1B       -17.6190    0.7860   11.8100 C.3       1 COA301      0.0000 
     12 C2B       -18.8560    1.2090   11.9740 C.3       1 COA301      0.0000 
     13 O2B       -19.0250    1.6150   13.3390 O.3       1 COA301      0.0000 
     14 C3B       -19.7250   -0.0450   11.7030 C.3       1 COA301      0.0000 
     15 O3B       -20.9220    0.0560   12.2950 O.3       1 COA301      0.0000 
     16 P3B       -22.2760    0.1170   11.2730 P.3       1 COA301      0.0000 
     17 O7A       -23.4470   -0.5800   11.9320 O.co2     1 COA301      0.0000 
     18 O8A       -21.9500   -0.5870    9.9330 O.co2     1 COA301      0.0000 
     19 O9A       -22.6180    1.5670   11.0180 O.co2     1 COA301      0.0000 
     20 C4B       -18.8740   -1.1730   12.3720 C.3       1 COA301      0.0000 
     21 O4B       -17.6340   -0.8120   12.1850 O.3       1 COA301      0.0000 
     22 C5B       -19.0710   -2.5240   11.7130 C.3       1 COA301      0.0000 
     23 O5B       -18.0900   -3.3520   12.2820 O.3       1 COA301      0.0000 
     24 P1A       -17.8620   -4.8910   11.7290 P.3       1 COA301      0.0000 
     25 O1A       -17.2610   -4.8530   10.3470 O.co2     1 COA301      0.0000 
     26 O2A       -16.9360   -5.5980   12.6670 O.co2     1 COA301      0.0000 
     27 O3A       -19.3160   -5.6810   11.6860 O.3       1 COA301      0.0000 
     28 P2A       -20.2490   -5.9600   13.0760 P.3       1 COA301      0.0000 
     29 O4A       -21.6800   -5.5370   12.7890 O.co2     1 COA301      0.0000 
     30 O5A       -19.6900   -5.1630   14.2320 O.co2     1 COA301      0.0000 
     31 O6A       -20.2050   -7.5690   13.4540 O.3       1 COA301      0.0000 
     32 CBP       -19.2020   -9.4610   12.3620 C.3       1 COA301      0.0000 
     33 CCP       -20.3780   -8.4880   12.3890 C.3       1 COA301      0.0000 
     34 CDP       -17.9760   -8.7330   11.9100 C.3       1 COA301      0.0000 
     35 CEP       -19.5180  -10.5600   11.3760 C.3       1 COA301      0.0000 
     36 CAP       -18.9890  -10.0390   13.7820 C.3       1 COA301      0.0000 
     37 OAP       -20.1620  -10.5760   14.2350 O.3       1 COA301      0.0000 
     38 C9P       -17.8850  -11.1380   13.7580 C.2       1 COA301      0.0000 
     39 O9P       -18.1840  -12.3100   13.5860 O.2       1 COA301      0.0000 
     40 N8P       -16.4300  -10.7490   13.9580 N.am      1 COA301      0.0000 
     41 C7P       -15.3570  -11.8270   13.9220 C.3       1 COA301      0.0000 
     42 C6P       -15.1560  -12.2020   12.4460 C.3       1 COA301      0.0000 
     43 C5P       -14.1110  -13.3260   12.3040 C.2       1 COA301      0.0000 
     44 O5P       -13.0000  -13.1510   12.6950 O.2       1 COA301      0.0000 
     45 N4P       -14.4610  -14.5640   11.7070 N.am      1 COA301      0.0000 
     46 C3P       -13.4340  -15.5980   11.5890 C.3       1 COA301      0.0000 
     47 C2P       -14.0910  -17.0140   11.4900 C.3       1 COA301      0.0000 
     48 S1P       -12.8080  -18.2870   11.8770 S.3       1 COA301      0.0000 
@<TRIPOS>BOND
     1    1    2 ar   
     2    1    6 ar   
     3    2    3 ar   
     4    3    4 ar   
     5    4    5 ar   
     6    4   10 1    
     7    5    6 ar   
     8    5    8 1    
     9    6    7 1    
    10    8    9 2    
    11    9   10 1    
    12   10   11 1    
    13   11   12 1    
    14   11   21 1    
    15   12   13 1    
    16   12   14 1    
    17   14   15 1    
    18   14   20 1    
    19   15   16 1    
    20   16   17 ar   
    21   16   18 ar   
    22   16   19 ar   
    23   20   21 1    
    24   20   22 1    
    25   22   23 1    
    26   23   24 1    
    27   24   25 ar   
    28   24   26 ar   
    29   24   27 1    
    30   27   28 1    
    31   28   29 ar   
    32   28   30 ar   
    33   28   31 1    
    34   31   33 1    
    35   32   33 1    
    36   32   34 1    
    37   32   35 1    
    38   32   36 1    
    39   36   37 1    
    40   36   38 1    
    41   38   39 2    
    42   38   40 am   
    43   40   41 1    
    44   41   42 1    
    45   42   43 1    
    46   43   44 2    
    47   43   45 am   
    48   45   46 1    
    49   46   47 1    
    50   47   48 1    
@<TRIPOS>SUBSTRUCTURE
     1 COA301      1 GROUP   
@<TRIPOS>SET
ATOM$ORANGE STATIC     ATOMS   COLORGROUP SYSTEM 
42 2 2 4 4 5 5 6 6 9 9 11 11 12 12 14 14 20 \
20 22 22 32 32 33 33 34 34 35 35 36 36 38 38 41 41 42 \
42 43 43 46 46 47 47 

