#    Name: 6mb9_1_COA
#    Modification time : Fri May 22 19:23:58 2020

@<TRIPOS>MOLECULE
6mb9_1_COA
   48    50     1     0     1
SMALL
NO_CHARGES


@<TRIPOS>ATOM
      1 N1A        28.1030   -2.1790   11.2770 N.ar      1 COA301      0.0000 
      2 C2A        28.3800   -0.9020   11.6640 C.ar      1 COA301      0.0000 
      3 N3A        29.0160   -0.0470   10.8050 N.ar      1 COA301      0.0000 
      4 C4A        29.3740   -0.4710    9.5600 C.ar      1 COA301      0.0000 
      5 C5A        29.1020   -1.7190    9.1830 C.ar      1 COA301      0.0000 
      6 C6A        28.4510   -2.5920   10.0670 C.ar      1 COA301      0.0000 
      7 N6A        28.0640   -3.9540    9.8890 N.pl3     1 COA301      0.0000 
      8 N7A        29.5560   -1.8840    7.9230 N.2       1 COA301      0.0000 
      9 C8A        30.1030   -0.7300    7.5290 C.2       1 COA301      0.0000 
     10 N9A        29.9970    0.1480    8.5350 N.pl3     1 COA301      0.0000 
     11 C1B        30.4370    1.5200    8.5870 C.3       1 COA301      0.0000 
     12 C2B        31.7040    1.6110    8.9460 C.3       1 COA301      0.0000 
     13 O2B        31.9020    2.8510    9.6420 O.3       1 COA301      0.0000 
     14 C3B        32.5010    1.6530    7.6190 C.3       1 COA301      0.0000 
     15 O3B        33.6340    2.3500    7.7570 O.3       1 COA301      0.0000 
     16 P3B        35.1180    1.5310    7.8460 P.3       1 COA301      0.0000 
     17 O7A        36.2430    2.4850    7.5020 O.co2     1 COA301      0.0000 
     18 O8A        35.1210    0.3350    6.8650 O.co2     1 COA301      0.0000 
     19 O9A        35.3120    1.0470    9.2670 O.co2     1 COA301      0.0000 
     20 C4B        31.5440    2.4790    6.7020 C.3       1 COA301      0.0000 
     21 O4B        30.3260    2.1980    7.0940 O.3       1 COA301      0.0000 
     22 C5B        31.7200    2.0870    5.2520 C.3       1 COA301      0.0000 
     23 O5B        30.7980    2.8660    4.5430 O.3       1 COA301      0.0000 
     24 P1A        30.3010    2.3340    3.0650 P.3       1 COA301      0.0000 
     25 O1A        29.6080    1.0060    3.2070 O.co2     1 COA301      0.0000 
     26 O2A        29.3620    3.3390    2.4740 O.co2     1 COA301      0.0000 
     27 O3A        31.6440    2.1870    2.1100 O.3       1 COA301      0.0000 
     28 P2A        32.7240    3.4700    1.8340 P.3       1 COA301      0.0000 
     29 O4A        34.1440    2.9670    2.0400 O.co2     1 COA301      0.0000 
     30 O5A        32.4520    4.6160    2.7780 O.co2     1 COA301      0.0000 
     31 O6A        32.5440    3.9750    0.2770 O.3       1 COA301      0.0000 
     32 CBP        31.3470    3.1380   -1.5990 C.3       1 COA301      0.0000 
     33 CCP        32.5830    2.9710   -0.7250 C.3       1 COA301      0.0000 
     34 CDP        30.1460    2.7720   -0.7910 C.3       1 COA301      0.0000 
     35 CEP        31.4550    2.2240   -2.7980 C.3       1 COA301      0.0000 
     36 CAP        31.2720    4.6140   -2.0450 C.3       1 COA301      0.0000 
     37 OAP        32.4330    4.9250   -2.7010 O.3       1 COA301      0.0000 
     38 C9P        30.0580    4.8250   -3.0000 C.2       1 COA301      0.0000 
     39 O9P        30.2090    4.7180   -4.2090 O.2       1 COA301      0.0000 
     40 N8P        28.6880    5.1710   -2.4330 N.am      1 COA301      0.0000 
     41 C7P        27.4940    5.3650   -3.3640 C.3       1 COA301      0.0000 
     42 C6P        26.8860    3.9710   -3.5600 C.3       1 COA301      0.0000 
     43 C5P        25.7290    3.9480   -4.5820 C.2       1 COA301      0.0000 
     44 O5P        24.6510    4.3840   -4.3000 O.2       1 COA301      0.0000 
     45 N4P        25.9790    3.3740   -5.8530 N.am      1 COA301      0.0000 
     46 C3P        24.9410    3.3010   -6.8750 C.3       1 COA301      0.0000 
     47 C2P        25.4520    2.2980   -7.9590 C.3       1 COA301      0.0000 
     48 S1P        27.1090    2.8690   -8.5350 S.3       1 COA301      0.0000 
@<TRIPOS>BOND
     1   23   24 1    
     2   24   25 ar   
     3   24   26 ar   
     4   24   27 1    
     5   27   28 1    
     6   28   29 ar   
     7   28   30 ar   
     8   28   31 1    
     9   31   33 1    
    10   32   33 1    
    11   32   34 1    
    12   32   35 1    
    13   32   36 1    
    14   36   37 1    
    15   36   38 1    
    16   38   39 2    
    17   38   40 am   
    18   40   41 1    
    19   41   42 1    
    20   42   43 1    
    21   43   44 2    
    22   43   45 am   
    23   45   46 1    
    24   46   47 1    
    25   47   48 1    
    26    1    2 ar   
    27    1    6 ar   
    28    2    3 ar   
    29    3    4 ar   
    30    4    5 ar   
    31    4   10 1    
    32    5    6 ar   
    33    5    8 1    
    34    6    7 1    
    35    8    9 2    
    36    9   10 1    
    37   10   11 1    
    38   11   12 1    
    39   11   21 1    
    40   12   13 1    
    41   12   14 1    
    42   14   15 1    
    43   14   20 1    
    44   15   16 1    
    45   16   17 ar   
    46   16   18 ar   
    47   16   19 ar   
    48   20   21 1    
    49   20   22 1    
    50   22   23 1    
@<TRIPOS>SUBSTRUCTURE
     1 COA301      1 GROUP   
@<TRIPOS>SET
ATOM$ORANGE STATIC     ATOMS   COLORGROUP SYSTEM 
42 2 2 4 4 5 5 6 6 9 9 11 11 12 12 14 14 20 \
20 22 22 32 32 33 33 34 34 35 35 36 36 38 38 41 41 42 \
42 43 43 46 46 47 47 

