#    Name: 6ka5_1_1S7_CAVITY_N1_ALL
#    Modification time : Fri May 22 19:31:52 2020

@<TRIPOS>MOLECULE
6ka5_1_1S7_CAVITY_N1_ALL
   77     0     6     0     0
SMALL
NO_CHARGES


@<TRIPOS>ATOM
      1 OG         23.5600   -7.1800    3.0000 O.3       1 SER1        0.0000 
      2 OG         24.8200   -5.1200    2.0400 O.3       1 SER1        0.0000 
      3 OG         26.6600   -6.1600    2.2100 O.3       1 SER1        0.0000 
      4 OG         24.1300   -6.0500    3.8100 O.3       1 SER1        0.0000 
      5 OG         24.7000   -7.0400    4.7900 O.3       1 SER1        0.0000 
      6 OG         28.4900   -5.0900    2.2200 O.3       1 SER1        0.0000 
      7 OG         27.2200   -5.0400    3.0200 O.3       1 SER1        0.0000 
      8 OG         25.9600   -4.9800    3.8300 O.3       1 SER1        0.0000 
      9 OG         27.7900   -3.9100    3.8400 O.3       1 SER1        0.0000 
     10 N          23.2500   -8.6900   -2.9900 N.am      2 ALA2        0.0000 
     11 O          21.8600   -8.4400    0.4000 O.2       2 ALA2        0.0000 
     12 O          22.4300   -9.4300    1.3700 O.2       2 ALA2        0.0000 
     13 N          21.2800   -5.3400   -0.7300 N.am      2 ALA2        0.0000 
     14 N          23.1200   -6.3800   -0.5600 N.am      2 ALA2        0.0000 
     15 N          21.8500   -6.3300    0.2400 N.am      2 ALA2        0.0000 
     16 O          23.0000   -8.3100    2.1900 O.2       2 ALA2        0.0000 
     17 N          24.2500   -6.2500    1.2300 N.am      2 ALA2        0.0000 
     18 N          22.9900   -6.1900    2.0300 N.am      2 ALA2        0.0000 
     19 N          24.1300   -8.1700    3.9700 N.am      2 ALA2        0.0000 
     20 NZ         20.3000  -14.1300   -4.4700 N.4       3 LYS4        0.0000 
     21 NZ         20.8600  -13.0000   -3.6600 N.4       3 LYS4        0.0000 
     22 NZ         21.4400  -13.9900   -2.6900 N.4       3 LYS4        0.0000 
     23 NZ         20.1700  -13.9300   -1.8900 N.4       3 LYS4        0.0000 
     24 NZ         20.1600  -11.8200   -2.0400 N.4       3 LYS4        0.0000 
     25 NZ         20.7400  -12.8100   -1.0700 N.4       3 LYS4        0.0000 
     26 CZ         20.1500   -9.7000   -2.2000 C.ar      4 PHE5        0.0000 
     27 CZ         19.4600  -10.6400   -0.4300 C.ar      4 PHE5        0.0000 
     28 CZ         22.5700  -11.7400   -1.0600 C.ar      4 PHE5        0.0000 
     29 CZ         21.3000  -11.6800   -0.2600 C.ar      4 PHE5        0.0000 
     30 CZ         19.4500   -8.5200   -0.5800 C.ar      4 PHE5        0.0000 
     31 CZ         22.5600   -9.6200   -1.2200 C.ar      4 PHE5        0.0000 
     32 CZ         20.0300   -9.5100    0.3900 C.ar      4 PHE5        0.0000 
     33 CZ         21.8700  -10.5600    0.5600 C.ar      4 PHE5        0.0000 
     34 CZ         19.4500   -6.4100   -0.7400 C.ar      4 PHE5        0.0000 
     35 CZ         20.0200   -7.4000    0.2300 C.ar      4 PHE5        0.0000 
     36 CZ         23.1200   -8.5000   -0.4000 C.ar      4 PHE5        0.0000 
     37 CZ         20.5900   -8.3900    1.2000 C.ar      4 PHE5        0.0000 
     38 CZ         24.2600   -8.3600    1.3800 C.ar      4 PHE5        0.0000 
     39 CZ         26.0900   -7.2900    1.3900 C.ar      4 PHE5        0.0000 
     40 CZ         24.8300   -7.2400    2.2000 C.ar      4 PHE5        0.0000 
     41 CZ         26.6700   -8.2800    2.3600 C.ar      4 PHE5        0.0000 
     42 CZ         25.4000   -8.2200    3.1700 C.ar      4 PHE5        0.0000 
     43 CZ         25.2600   -5.9200    5.6000 C.ar      4 PHE5        0.0000 
     44 CA         20.1500   -7.5900   -2.3600 C.3       5 GLY6        0.0000 
     45 CA         20.7100   -6.4600   -1.5400 C.3       5 GLY6        0.0000 
     46 CA         20.5800   -6.2700    1.0500 C.3       5 GLY6        0.0000 
     47 CA         21.1600   -7.2600    2.0200 C.3       5 GLY6        0.0000 
     48 CA         27.2400   -9.2700    3.3400 C.3       5 GLY6        0.0000 
     49 CA         25.9700   -9.2100    4.1400 C.3       5 GLY6        0.0000 
     50 CA         29.0700   -8.2000    3.3500 C.3       5 GLY6        0.0000 
     51 CA         27.8000   -8.1400    4.1500 C.3       5 GLY6        0.0000 
     52 CA         26.5400   -8.0900    4.9500 C.3       5 GLY6        0.0000 
     53 CA         25.2700   -8.0300    5.7600 C.3       5 GLY6        0.0000 
     54 CA         27.8000   -6.0300    3.9900 C.3       5 GLY6        0.0000 
     55 CA         26.5300   -5.9700    4.8000 C.3       5 GLY6        0.0000 
     56 CA         29.6300   -7.0700    4.1600 C.3       5 GLY6        0.0000 
     57 CA         28.3700   -7.0200    4.9600 C.3       5 GLY6        0.0000 
     58 CA         27.1000   -6.9600    5.7700 C.3       5 GLY6        0.0000 
     59 CA         28.3600   -4.9000    4.8100 C.3       5 GLY6        0.0000 
     60 CA         27.1000   -4.8500    5.6100 C.3       5 GLY6        0.0000 
     61 DU         21.4300  -11.8700   -2.8500 H         6 CUB7        0.0000 
     62 DU         21.4200   -9.7600   -3.0000 H         6 CUB7        0.0000 
     63 DU         21.9900  -10.7500   -2.0300 H         6 CUB7        0.0000 
     64 DU         20.7300  -10.6900   -1.2300 H         6 CUB7        0.0000 
     65 DU         21.9900   -8.6300   -2.1900 H         6 CUB7        0.0000 
     66 DU         20.7200   -8.5800   -1.3800 H         6 CUB7        0.0000 
     67 DU         21.2900   -9.5700   -0.4100 H         6 CUB7        0.0000 
     68 DU         22.5500   -7.5100   -1.3700 H         6 CUB7        0.0000 
     69 DU         21.2900   -7.4500   -0.5700 H         6 CUB7        0.0000 
     70 DU         23.6900   -7.3700    0.4100 H         6 CUB7        0.0000 
     71 DU         22.4200   -7.3200    1.2100 H         6 CUB7        0.0000 
     72 DU         27.9200   -6.2200    1.4100 H         6 CUB7        0.0000 
     73 DU         25.3900   -6.1100    3.0100 H         6 CUB7        0.0000 
     74 DU         28.5000   -7.2100    2.3800 H         6 CUB7        0.0000 
     75 DU         27.2300   -7.1500    3.1800 H         6 CUB7        0.0000 
     76 DU         25.9700   -7.1000    3.9800 H         6 CUB7        0.0000 
     77 DU         29.0600   -6.0800    3.1900 H         6 CUB7        0.0000 
@<TRIPOS>BOND
@<TRIPOS>SUBSTRUCTURE
     1 SER1        1 GROUP   
     2 ALA2       10 GROUP   
     3 LYS4       20 GROUP   
     4 PHE5       26 GROUP   
     5 GLY6       44 GROUP   
     6 CUB7       61 GROUP   
@<TRIPOS>SET

