#    Name: 6ka5_1_1S7
#    Modification time : Fri May 22 19:31:51 2020

@<TRIPOS>MOLECULE
6ka5_1_1S7
   24    25     1     0     0
SMALL
NO_CHARGES


@<TRIPOS>ATOM
      1 C          24.0120   -8.0750    3.6630           1 1S7401      0.0000 
      2 N          23.6580   -5.9470    1.9340           1 1S7401      0.0000 
      3 O          23.7160   -6.7210    4.0810           1 1S7401      0.0000 
      4 S          21.2490   -8.8320    0.5090           1 1S7401      0.0000 
      5 C1         24.2360   -5.7820    3.2610           1 1S7401      0.0000 
      6 O1         21.4480   -5.5670    2.4950           1 1S7401      0.0000 
      7 S1         26.4340   -5.8830    4.7110           1 1S7401      0.0000 
      8 C2         22.2460   -5.8450    1.6400           1 1S7401      0.0000 
      9 N2         26.3090   -6.6860    2.1020           1 1S7401      0.0000 
     10 C3         21.7820   -6.0570    0.1930           1 1S7401      0.0000 
     11 C4         21.9900   -7.5130   -0.2150           1 1S7401      0.0000 
     12 O4         23.3150   -3.5060    3.3050           1 1S7401      0.0000 
     13 C5         22.8370   -8.0200   -1.2270           1 1S7401      0.0000 
     14 O5         29.4650   -6.7480    0.7340           1 1S7401      0.0000 
     15 C6         22.8000   -9.4680   -1.3370           1 1S7401      0.0000 
     16 O6         27.6880   -7.9050    0.2050           1 1S7401      0.0000 
     17 C7         21.9300  -10.0710   -0.4030           1 1S7401      0.0000 
     18 C8         25.8040   -5.8450    3.2010           1 1S7401      0.0000 
     19 C9         28.0040   -6.0410    4.6440           1 1S7401      0.0000 
     20 C10        28.5300   -5.9360    3.2600           1 1S7401      0.0000 
     21 C11        30.0000   -6.1420    3.3100           1 1S7401      0.0000 
     22 C13        27.8190   -7.0640    2.3180           1 1S7401      0.0000 
     23 C14        24.3410   -4.3570    3.7970           1 1S7401      0.0000 
     24 C15        28.3560   -7.2400    1.0510           1 1S7401      0.0000 
@<TRIPOS>BOND
     1    1    3 du   
     2    2    5 du   
     3    2    8 du   
     4    3    5 du   
     5    4   11 du   
     6    4   17 du   
     7    5   18 du   
     8    5   23 du   
     9    6    8 du   
    10    7   18 du   
    11    7   19 du   
    12    8   10 du   
    13    9   18 du   
    14    9   22 du   
    15   10   11 du   
    16   11   13 du   
    17   12   23 du   
    18   13   15 du   
    19   14   24 du   
    20   15   17 du   
    21   16   24 du   
    22   19   20 du   
    23   20   21 du   
    24   20   22 du   
    25   22   24 du   
@<TRIPOS>SUBSTRUCTURE
     1 1S7401      1 GROUP   
@<TRIPOS>SET

