#    Name: 5vea_1_3TL
#    Modification time : Fri May 22 19:16:23 2020

@<TRIPOS>MOLECULE
5vea_1_3TL
   33    34     1     0     0
SMALL
NO_CHARGES


@<TRIPOS>ATOM
      1 C31        11.8140   11.7070    5.6060 C.2       1 3TL101      0.0000 
      2 O8         10.8940   10.8650    5.8870 O.2       1 3TL101      0.0000 
      3 O9         12.0210   11.5380    4.2900 O.3       1 3TL101      0.0000 
      4 CA         11.7160   10.3540    3.4920 C.3       1 3TL101      0.0000 
      5 C          12.3910    9.0200    3.7990 C.ar      1 3TL101      0.0000 
      6 C13        11.9660    7.9250    3.0660 C.ar      1 3TL101      0.0000 
      7 C14        12.5640    6.6680    3.2710 C.ar      1 3TL101      0.0000 
      8 C15        13.5370    6.6490    4.2310 C.ar      1 3TL101      0.0000 
      9 C16        13.9020    7.7480    5.0330 C.ar      1 3TL101      0.0000 
     10 C17        13.3520    9.0160    4.7740 C.ar      1 3TL101      0.0000 
     11 N4         12.5800   12.5150    6.3180 N.am      1 3TL101      0.0000 
     12 C18        12.2490   12.5280    7.7280 C.3       1 3TL101      0.0000 
     13 C19        11.6060   13.8350    8.1700 C.2       1 3TL101      0.0000 
     14 O4         12.1450   14.9360    7.8350 O.2       1 3TL101      0.0000 
     15 C20        13.5950   12.1400    8.3640 C.3       1 3TL101      0.0000 
     16 N2         10.5800   13.8200    8.9230 N.am      1 3TL101      0.0000 
     17 C10         9.7270   14.8100    9.5720 C.3       1 3TL101      0.0000 
     18 C11         9.6510   14.6340   11.0470 C.2       1 3TL101      0.0000 
     19 O2          8.7880   13.8030   11.5340 O.2       1 3TL101      0.0000 
     20 C12         8.4970   15.1250    8.7300 C.3       1 3TL101      0.0000 
     21 CG2         7.7420   16.2340    9.4440 C.3       1 3TL101      0.0000 
     22 CG1         8.7850   15.5840    7.3120 C.3       1 3TL101      0.0000 
     23 C2         10.7360   16.1480   14.2490 C.3       1 3TL101      0.0000 
     24 O1         11.1420   17.3140   13.5120 O.3       1 3TL101      0.0000 
     25 C1         10.8250   14.9700   13.3300 C.3       1 3TL101      0.0000 
     26 N1         10.4610   15.2860   11.9020 N.am      1 3TL101      0.0000 
     27 C3         12.1610   14.3700   13.7950 C.3       1 3TL101      0.0000 
     28 C4         12.3770   12.9870   13.2810 C.ar      1 3TL101      0.0000 
     29 C5         13.1860   12.6140   12.2210 C.ar      1 3TL101      0.0000 
     30 C9         11.7030   12.1140   14.1060 C.ar      1 3TL101      0.0000 
     31 C6         13.2750   11.2670   11.9010 C.ar      1 3TL101      0.0000 
     32 C8         11.7760   10.7680   13.8120 C.ar      1 3TL101      0.0000 
     33 C7         12.5330   10.4220   12.7080 C.ar      1 3TL101      0.0000 
@<TRIPOS>BOND
     1   28   30 ar   
     2   29   31 ar   
     3   30   32 ar   
     4   31   33 ar   
     5   32   33 ar   
     6    1    2 2    
     7    1    3 1    
     8    1   11 am   
     9    3    4 1    
    10    4    5 1    
    11    5    6 ar   
    12    5   10 ar   
    13    6    7 ar   
    14    7    8 ar   
    15    8    9 ar   
    16    9   10 ar   
    17   11   12 1    
    18   12   13 1    
    19   12   15 1    
    20   13   14 2    
    21   13   16 am   
    22   16   17 1    
    23   17   18 1    
    24   17   20 1    
    25   18   19 2    
    26   18   26 am   
    27   20   21 1    
    28   20   22 1    
    29   23   24 1    
    30   23   25 1    
    31   25   26 1    
    32   25   27 1    
    33   27   28 1    
    34   28   29 ar   
@<TRIPOS>SUBSTRUCTURE
     1 3TL101      1 GROUP   
@<TRIPOS>SET

