#    Name: 5vea_1_3TL_CAVITY_N1_4
#    Modification time : Fri May 22 19:16:24 2020

@<TRIPOS>MOLECULE
5vea_1_3TL_CAVITY_N1_4
   53     0     5     0     0
SMALL
NO_CHARGES


@<TRIPOS>ATOM
      1 OG          3.8600   15.4100    9.1800 O.3       1 SER1        0.0000 
      2 N           7.2500   11.9500    8.0400 N.am      2 ALA2        0.0000 
      3 N           8.1000   16.1000    5.8900 N.am      2 ALA2        0.0000 
      4 N          10.6700   12.9900    7.2000 N.am      2 ALA2        0.0000 
      5 N           9.3100   13.4700    7.5900 N.am      2 ALA2        0.0000 
      6 N           7.8700   12.8800    9.0400 N.am      2 ALA2        0.0000 
      7 O           6.4300   12.3000   10.4800 O.2       2 ALA2        0.0000 
      8 O          10.0800   16.5400    6.4900 O.2       2 ALA2        0.0000 
      9 N           8.7200   17.0300    6.8900 N.am      2 ALA2        0.0000 
     10 O          11.3700   14.9900    7.1500 O.2       2 ALA2        0.0000 
     11 N          11.2900   13.9200    8.1900 N.am      2 ALA2        0.0000 
     12 N           9.9300   14.4000    8.5900 N.am      2 ALA2        0.0000 
     13 N           8.4900   13.8200   10.0300 N.am      2 ALA2        0.0000 
     14 N          13.2800   14.3600    8.7900 N.am      2 ALA2        0.0000 
     15 N          11.9100   14.8500    9.1900 N.am      2 ALA2        0.0000 
     16 N          10.5500   15.3300    9.5900 N.am      2 ALA2        0.0000 
     17 N           9.7300   15.6800   12.0300 N.am      2 ALA2        0.0000 
     18 NZ         12.1100   13.5700    5.7500 N.4       3 LYS4        0.0000 
     19 NZ         10.7500   14.0600    6.1500 N.4       3 LYS4        0.0000 
     20 NZ         12.0300   12.5000    6.8000 N.4       3 LYS4        0.0000 
     21 NZ         12.6600   13.4300    7.8000 N.4       3 LYS4        0.0000 
     22 NZ          9.8100   16.7500   10.9800 N.4       3 LYS4        0.0000 
     23 NZ          8.4500   17.2300   11.3800 N.4       3 LYS4        0.0000 
     24 NZ          8.3700   16.1600   12.4300 N.4       3 LYS4        0.0000 
     25 CA          5.8800   12.4400    8.4400 C.3       4 GLY6        0.0000 
     26 CA          9.4600   15.6100    5.5000 C.3       4 GLY6        0.0000 
     27 CA          9.3800   14.5400    6.5400 C.3       4 GLY6        0.0000 
     28 CA          8.0200   15.0300    6.9400 C.3       4 GLY6        0.0000 
     29 CA          6.6600   15.5100    7.3400 C.3       4 GLY6        0.0000 
     30 CA          7.9500   13.9500    7.9900 C.3       4 GLY6        0.0000 
     31 CA          6.5800   14.4400    8.3900 C.3       4 GLY6        0.0000 
     32 CA          5.2200   14.9200    8.7800 C.3       4 GLY6        0.0000 
     33 CA          6.5100   13.3700    9.4300 C.3       4 GLY6        0.0000 
     34 CA          5.1400   13.8500    9.8300 C.3       4 GLY6        0.0000 
     35 CA          6.3500   11.2300   11.5300 C.3       4 GLY6        0.0000 
     36 CA         10.0100   15.4700    7.5400 C.3       4 GLY6        0.0000 
     37 CA          8.6400   15.9600    7.9400 C.3       4 GLY6        0.0000 
     38 CA          7.2800   16.4400    8.3400 C.3       4 GLY6        0.0000 
     39 CA          7.2000   15.3700    9.3800 C.3       4 GLY6        0.0000 
     40 CA          5.8400   15.8600    9.7800 C.3       4 GLY6        0.0000 
     41 CA          5.7700   14.7900   10.8300 C.3       4 GLY6        0.0000 
     42 CA          4.4000   15.2700   11.2200 C.3       4 GLY6        0.0000 
     43 CA          7.9000   17.3700    9.3300 C.3       4 GLY6        0.0000 
     44 CA          9.1900   15.8200    9.9800 C.3       4 GLY6        0.0000 
     45 CA          7.8300   16.3000   10.3800 C.3       4 GLY6        0.0000 
     46 CA          6.3900   15.7200   11.8300 C.3       4 GLY6        0.0000 
     47 CA          5.0200   16.2000   12.2200 C.3       4 GLY6        0.0000 
     48 DU          5.0700   12.7800   10.8800 H         5 CUB7        0.0000 
     49 DU          8.5700   14.8900    8.9900 H         5 CUB7        0.0000 
     50 DU          7.1300   14.3000   10.4300 H         5 CUB7        0.0000 
     51 DU          5.6900   13.7100   11.8800 H         5 CUB7        0.0000 
     52 DU          9.1100   14.7500   11.0300 H         5 CUB7        0.0000 
     53 DU          7.7500   15.2300   11.4300 H         5 CUB7        0.0000 
@<TRIPOS>BOND
@<TRIPOS>SUBSTRUCTURE
     1 SER1        1 GROUP   
     2 ALA2        2 GROUP   
     3 LYS4       18 GROUP   
     4 GLY6       25 GROUP   
     5 CUB7       48 GROUP   
@<TRIPOS>SET

