#    Name: 6nwl_1_HCY
#    Modification time : Fri May 22 19:24:46 2020

@<TRIPOS>MOLECULE
6nwl_1_HCY
   56    59     1     0     0
SMALL
NO_CHARGES


@<TRIPOS>ATOM
      1 C1          0.9330  -29.5560   12.0410 C.3       1 HCY301      0.0000 
      2 C2         -0.3950  -29.0100   12.5130 C.3       1 HCY301      0.0000 
      3 C3         -0.2210  -27.6170   13.0410 C.2       1 HCY301      0.0000 
      4 C4          0.7210  -26.7560   12.3380 C.2       1 HCY301      0.0000 
      5 C5          1.6010  -27.2230   11.4440 C.2       1 HCY301      0.0000 
      6 C6          2.5050  -26.2780   10.7240 C.3       1 HCY301      0.0000 
      7 C7          3.9840  -26.6890   10.8230 C.3       1 HCY301      0.0000 
      8 C8          4.1550  -28.1010   10.3430 C.3       1 HCY301      0.0000 
      9 C9          3.2600  -29.0380   11.1720 C.3       1 HCY301      0.0000 
     10 C10         1.7400  -28.6560   11.0880 C.3       1 HCY301      0.0000 
     11 C12         5.0130  -30.9250   10.9310 C.3       1 HCY301      0.0000 
     12 C11         3.5150  -30.5550   10.8920 C.3       1 HCY301      0.0000 
     13 C13         5.8390  -30.0270   10.0270 C.3       1 HCY301      0.0000 
     14 C14         5.6190  -28.5590   10.4780 C.3       1 HCY301      0.0000 
     15 C15         6.6640  -27.8090    9.6420 C.3       1 HCY301      0.0000 
     16 C16         7.9090  -28.7600    9.6730 C.3       1 HCY301      0.0000 
     17 C17         7.4010  -30.1610   10.1700 C.3       1 HCY301      0.0000 
     18 C18         5.4740  -30.2540    8.5610 C.3       1 HCY301      0.0000 
     19 C19         1.1380  -28.7850    9.6660 C.3       1 HCY301      0.0000 
     20 C20         7.9520  -31.3520    9.3720 C.2       1 HCY301      0.0000 
     21 C21         7.9840  -32.7000   10.0920 C.3       1 HCY301      0.0000 
     22 O1         -0.8480  -27.2240   14.0160 O.2       1 HCY301      0.0000 
     23 O2          2.8740  -30.9650    9.6960 O.3       1 HCY301      0.0000 
     24 O3          7.6890  -30.3490   11.5220 O.3       1 HCY301      0.0000 
     25 O4          8.3630  -31.2540    8.2320 O.2       1 HCY301      0.0000 
     26 O5          8.0360  -33.6590    9.0960 O.3       1 HCY301      0.0000 
     27 H4          0.6810  -25.8500   12.5430 H         1 HCY301      0.0000 
     28 H2C1       -1.0480  -29.0330   11.7960 H         1 HCY301      0.0000 
     29 H2C2       -0.7780  -29.5720   13.2050 H         1 HCY301      0.0000 
     30 H6C1        2.2360  -26.1950    9.7950 H         1 HCY301      0.0000 
     31 H6C2        2.3950  -25.3730   11.0560 H         1 HCY301      0.0000 
     32 H7C1        4.5270  -26.0760   10.3040 H         1 HCY301      0.0000 
     33 H7C2        4.3100  -26.5810   11.7300 H         1 HCY301      0.0000 
     34 H8          3.8890  -28.1230    9.4100 H         1 HCY301      0.0000 
     35 H1C1        1.4700  -29.7890   12.8140 H         1 HCY301      0.0000 
     36 H1C2        0.7880  -30.4200   11.6250 H         1 HCY301      0.0000 
     37 H191        0.5760  -29.5670    9.5500 H         1 HCY301      0.0000 
     38 H192        0.6130  -28.0120    9.4060 H         1 HCY301      0.0000 
     39 H193        1.8420  -28.8440    9.0010 H         1 HCY301      0.0000 
     40 H9          3.5340  -28.9150   12.0950 H         1 HCY301      0.0000 
     41 H11         3.0560  -31.0500   11.5890 H         1 HCY301      0.0000 
     42 H14         5.8680  -28.4510   11.4090 H         1 HCY301      0.0000 
     43 H2          3.3070  -31.6060    9.3450 H         1 HCY301      0.0000 
     44 H121        5.3210  -30.8780   11.8500 H         1 HCY301      0.0000 
     45 H122        5.1440  -31.8600   10.7090 H         1 HCY301      0.0000 
     46 H181        5.3750  -31.1890    8.3220 H         1 HCY301      0.0000 
     47 H182        4.6110  -29.8950    8.3050 H         1 HCY301      0.0000 
     48 H183        6.1400  -29.8850    7.9610 H         1 HCY301      0.0000 
     49 H151        6.3520  -27.6600    8.7360 H         1 HCY301      0.0000 
     50 H152        6.8660  -26.9200    9.9730 H         1 HCY301      0.0000 
     51 H161        8.3250  -28.8070    8.7990 H         1 HCY301      0.0000 
     52 H162        8.6020  -28.4080   10.2540 H         1 HCY301      0.0000 
     53 H3          7.5320  -29.6170   11.9240 H         1 HCY301      0.0000 
     54 H211        7.1990  -32.7690   10.6560 H         1 HCY301      0.0000 
     55 H212        8.7440  -32.7600   10.6920 H         1 HCY301      0.0000 
     56 H5          8.7910  -34.0450    9.1560 H         1 HCY301      0.0000 
@<TRIPOS>BOND
     1    1    2 1    
     2    1   10 1    
     3    1   35 1    
     4    1   36 1    
     5    2    3 1    
     6    2   28 1    
     7    2   29 1    
     8    3    4 1    
     9    3   22 2    
    10    4    5 2    
    11    5    6 1    
    12    4   27 1    
    13    5   10 1    
    14    6    7 1    
    15    6   30 1    
    16    6   31 1    
    17    7    8 1    
    18    7   32 1    
    19    7   33 1    
    20    8    9 1    
    21    8   14 1    
    22    8   34 1    
    23    9   10 1    
    24    9   12 1    
    25    9   40 1    
    26   10   19 1    
    27   11   12 1    
    28   11   13 1    
    29   11   44 1    
    30   11   45 1    
    31   12   23 1    
    32   12   41 1    
    33   23   43 1    
    34   13   14 1    
    35   13   17 1    
    36   13   18 1    
    37   14   15 1    
    38   14   42 1    
    39   15   16 1    
    40   15   49 1    
    41   15   50 1    
    42   16   17 1    
    43   16   51 1    
    44   16   52 1    
    45   17   20 1    
    46   17   24 1    
    47   24   53 1    
    48   18   46 1    
    49   18   47 1    
    50   18   48 1    
    51   19   37 1    
    52   19   38 1    
    53   19   39 1    
    54   20   21 1    
    55   20   25 2    
    56   21   26 1    
    57   21   54 1    
    58   21   55 1    
    59   26   56 1    
@<TRIPOS>SUBSTRUCTURE
     1 HCY301      1 GROUP   
@<TRIPOS>SET

