#    Name: 6pwk_2_C2E
#    Modification time : Fri May 22 19:36:33 2020

@<TRIPOS>MOLECULE
6pwk_2_C2E
   46    52     1     0     0
SMALL
NO_CHARGES


@<TRIPOS>ATOM
      1 P1        -39.5800   16.0520   -3.2040 P.3       1 C2E702      0.0000 
      2 O2P       -40.6250   15.3210   -4.0100 O.co2     1 C2E702      0.0000 
      3 O1P       -39.3830   17.3370   -3.9500 O.co2     1 C2E702      0.0000 
      4 O5'       -40.1000   16.5690   -1.7460 O.3       1 C2E702      0.0000 
      5 C5'       -39.4700   17.6510   -1.1380 C.3       1 C2E702      0.0000 
      6 C4'       -40.2500   17.7830    0.1910 C.3       1 C2E702      0.0000 
      7 O4'       -41.5040   18.0170   -0.0760 O.3       1 C2E702      0.0000 
      8 C3'       -40.3190   16.3550    0.7680 C.3       1 C2E702      0.0000 
      9 O3'       -39.2620   16.0670    1.5530 O.3       1 C2E702      0.0000 
     10 C2'       -41.6370   16.3350    1.5680 C.3       1 C2E702      0.0000 
     11 O2'       -41.3740   16.6260    3.0070 O.3       1 C2E702      0.0000 
     12 C1'       -42.3480   17.3380    1.1180 C.3       1 C2E702      0.0000 
     13 N9        -43.6760   16.9460    0.7110 N.pl3     1 C2E702      0.0000 
     14 C8        -43.2640   16.4000   -0.4610 C.2       1 C2E702      0.0000 
     15 N7        -44.3780   15.9250   -1.0700 N.2       1 C2E702      0.0000 
     16 C5        -45.4420   16.1770   -0.3000 C.2       1 C2E702      0.0000 
     17 C6        -46.9590   15.8990   -0.4230 C.2       1 C2E702      0.0000 
     18 O6        -47.4170   15.3420   -1.3650 O.2       1 C2E702      0.0000 
     19 N1        -47.8740   16.3100    0.6090 N.am      1 C2E702      0.0000 
     20 C2        -47.3810   16.9930    1.7830 C.2       1 C2E702      0.0000 
     21 N2        -48.2120   17.4550    2.8910 N.pl3     1 C2E702      0.0000 
     22 N3        -45.9490   17.2420    1.8730 N.2       1 C2E702      0.0000 
     23 C4        -44.9940   16.8200    0.8060 C.2       1 C2E702      0.0000 
     24 P11       -39.1830   14.4460    1.9300 P.3       1 C2E702      0.0000 
     25 O21       -40.4530   13.7230    2.3220 O.co2     1 C2E702      0.0000 
     26 O11       -38.3330   14.3610    3.1680 O.co2     1 C2E702      0.0000 
     27 O5A       -38.2520   13.7960    0.7250 O.3       1 C2E702      0.0000 
     28 C5A       -37.4220   14.6880    0.0290 C.3       1 C2E702      0.0000 
     29 C4A       -36.9570   14.0220   -1.2020 C.3       1 C2E702      0.0000 
     30 O4A       -36.7180   12.7520   -0.9820 O.3       1 C2E702      0.0000 
     31 C3A       -38.1910   14.0920   -2.3390 C.3       1 C2E702      0.0000 
     32 O3A       -38.0890   15.3350   -3.1740 O.3       1 C2E702      0.0000 
     33 C2A       -38.0400   13.1170   -3.0540 C.3       1 C2E702      0.0000 
     34 O2A       -37.0760   13.4660   -4.1560 O.3       1 C2E702      0.0000 
     35 C1A       -37.4320   11.9790   -2.0690 C.3       1 C2E702      0.0000 
     36 N91       -38.3690   11.1990   -1.5720 N.pl3     1 C2E702      0.0000 
     37 C81       -39.0860   11.3460   -0.4450 C.2       1 C2E702      0.0000 
     38 N71       -39.8990   10.2790   -0.3640 N.2       1 C2E702      0.0000 
     39 C51       -39.6750    9.4990   -1.4210 C.2       1 C2E702      0.0000 
     40 C61       -40.2860    8.1730   -1.8630 C.2       1 C2E702      0.0000 
     41 O61       -41.1220    7.6900   -1.1890 O.2       1 C2E702      0.0000 
     42 N11       -39.8700    7.5140   -3.0660 N.am      1 C2E702      0.0000 
     43 C21       -38.8500    8.1100   -3.8850 C.2       1 C2E702      0.0000 
     44 N21       -38.4140    7.4550   -5.1120 N.pl3     1 C2E702      0.0000 
     45 N31       -38.2690    9.3840   -3.4500 N.2       1 C2E702      0.0000 
     46 C41       -38.7120   10.0650   -2.1890 C.2       1 C2E702      0.0000 
@<TRIPOS>BOND
     1    1    2 ar   
     2    1    3 ar   
     3    1    4 1    
     4    1   32 1    
     5    4    5 1    
     6    5    6 1    
     7    6    7 1    
     8    6    8 1    
     9    7   12 1    
    10    8    9 1    
    11    8   10 1    
    12    9   24 1    
    13   10   11 1    
    14   10   12 1    
    15   12   13 1    
    16   13   14 1    
    17   13   23 1    
    18   14   15 2    
    19   15   16 1    
    20   16   17 1    
    21   16   23 2    
    22   17   18 2    
    23   17   19 am   
    24   19   20 1    
    25   20   21 1    
    26   20   22 2    
    27   22   23 1    
    28   24   25 ar   
    29   24   26 ar   
    30   24   27 1    
    31   27   28 1    
    32   28   29 1    
    33   29   30 1    
    34   29   31 1    
    35   30   35 1    
    36   31   32 1    
    37   31   33 1    
    38   33   34 1    
    39   33   35 1    
    40   35   36 1    
    41   36   37 1    
    42   36   46 1    
    43   37   38 2    
    44   38   39 1    
    45   39   40 1    
    46   39   46 2    
    47   40   41 2    
    48   40   42 am   
    49   42   43 1    
    50   43   44 1    
    51   43   45 2    
    52   45   46 1    
@<TRIPOS>SUBSTRUCTURE
     1 C2E702      1 GROUP   
@<TRIPOS>SET

