#    Name: 6pwk_3_C2E
#    Modification time : Fri May 22 19:36:37 2020

@<TRIPOS>MOLECULE
6pwk_3_C2E
   46    52     1     0     0
SMALL
NO_CHARGES


@<TRIPOS>ATOM
      1 P1        -79.5490   14.0120  -20.0500 P.3       1 C2E701      0.0000 
      2 O2P       -78.5150   14.3360  -21.1000 O.co2     1 C2E701      0.0000 
      3 O1P       -79.9640   15.3390  -19.4760 O.co2     1 C2E701      0.0000 
      4 O5'       -80.9150   13.3780  -20.6950 O.3       1 C2E701      0.0000 
      5 C5'       -82.1410   13.8980  -20.3010 C.3       1 C2E701      0.0000 
      6 C4'       -82.6910   12.9970  -19.1600 C.3       1 C2E701      0.0000 
      7 O4'       -83.7740   13.5260  -18.6710 O.3       1 C2E701      0.0000 
      8 C3'       -83.1690   11.6350  -19.7020 C.3       1 C2E701      0.0000 
      9 O3'       -83.3740   10.8260  -18.6460 O.3       1 C2E701      0.0000 
     10 C2'       -84.5400   12.0330  -20.2700 C.3       1 C2E701      0.0000 
     11 O2'       -85.3850   10.8280  -20.5150 O.3       1 C2E701      0.0000 
     12 C1'       -85.0120   12.6520  -19.2250 C.3       1 C2E701      0.0000 
     13 N9        -86.1090   13.5810  -19.3440 N.pl3     1 C2E701      0.0000 
     14 C8        -86.0540   13.7990  -20.6830 C.2       1 C2E701      0.0000 
     15 N7        -87.0420   14.6830  -20.9770 N.2       1 C2E701      0.0000 
     16 C5        -87.6750   15.0070  -19.8540 C.2       1 C2E701      0.0000 
     17 C6        -88.8520   15.9400  -19.5210 C.2       1 C2E701      0.0000 
     18 O6        -89.4110   16.5630  -20.3600 O.2       1 C2E701      0.0000 
     19 N1        -89.3020   16.0700  -18.1690 N.am      1 C2E701      0.0000 
     20 C2        -88.6700   15.3420  -17.1000 C.2       1 C2E701      0.0000 
     21 N2        -89.0880   15.4370  -15.7040 N.pl3     1 C2E701      0.0000 
     22 N3        -87.5590   14.4700  -17.4490 N.2       1 C2E701      0.0000 
     23 C4        -87.0850   14.3240  -18.8490 C.2       1 C2E701      0.0000 
     24 P11       -82.4970    9.4190  -18.7410 P.3       1 C2E701      0.0000 
     25 O21       -82.9180    8.3860  -19.7510 O.co2     1 C2E701      0.0000 
     26 O11       -82.5920    8.7430  -17.3960 O.co2     1 C2E701      0.0000 
     27 O5A       -80.9780   10.0290  -18.9180 O.3       1 C2E701      0.0000 
     28 C5A       -80.4200   10.3370  -17.6740 C.3       1 C2E701      0.0000 
     29 C4A       -79.0050   10.6920  -17.8590 C.3       1 C2E701      0.0000 
     30 O4A       -78.3290    9.6060  -18.1190 O.3       1 C2E701      0.0000 
     31 C3A       -78.8540   11.7100  -19.1910 C.3       1 C2E701      0.0000 
     32 O3A       -78.9500   13.1500  -18.7700 O.3       1 C2E701      0.0000 
     33 C2A       -77.7610   11.4750  -19.6900 C.3       1 C2E701      0.0000 
     34 O2A       -76.7050   12.4060  -19.1490 O.3       1 C2E701      0.0000 
     35 C1A       -77.4490    9.9270  -19.3030 C.3       1 C2E701      0.0000 
     36 N91       -77.6900    9.1540  -20.3370 N.pl3     1 C2E701      0.0000 
     37 C81       -78.8470    8.6790  -20.8260 C.2       1 C2E701      0.0000 
     38 N71       -78.5160    7.9420  -21.9060 N.2       1 C2E701      0.0000 
     39 C51       -77.1930    7.9790  -22.0620 C.2       1 C2E701      0.0000 
     40 C61       -76.2510    7.3530  -23.0840 C.2       1 C2E701      0.0000 
     41 O61       -76.7090    6.6880  -23.9430 O.2       1 C2E701      0.0000 
     42 N11       -74.8390    7.5640  -23.0090 N.am      1 C2E701      0.0000 
     43 C21       -74.2850    8.3760  -21.9600 C.2       1 C2E701      0.0000 
     44 N21       -72.8480    8.5950  -21.8790 N.pl3     1 C2E701      0.0000 
     45 N31       -75.1980    8.9710  -20.9880 N.2       1 C2E701      0.0000 
     46 C41       -76.6690    8.7430  -21.0760 C.2       1 C2E701      0.0000 
@<TRIPOS>BOND
     1    1    2 ar   
     2    1    3 ar   
     3    1    4 1    
     4    1   32 1    
     5    4    5 1    
     6    5    6 1    
     7    6    7 1    
     8    6    8 1    
     9    7   12 1    
    10    8    9 1    
    11    8   10 1    
    12    9   24 1    
    13   10   11 1    
    14   10   12 1    
    15   12   13 1    
    16   13   14 1    
    17   13   23 1    
    18   14   15 2    
    19   15   16 1    
    20   16   17 1    
    21   16   23 2    
    22   17   18 2    
    23   17   19 am   
    24   19   20 1    
    25   20   21 1    
    26   20   22 2    
    27   22   23 1    
    28   24   25 ar   
    29   24   26 ar   
    30   24   27 1    
    31   27   28 1    
    32   28   29 1    
    33   29   30 1    
    34   29   31 1    
    35   30   35 1    
    36   31   32 1    
    37   31   33 1    
    38   33   34 1    
    39   33   35 1    
    40   35   36 1    
    41   36   37 1    
    42   36   46 1    
    43   37   38 2    
    44   38   39 1    
    45   39   40 1    
    46   39   46 2    
    47   40   41 2    
    48   40   42 am   
    49   42   43 1    
    50   43   44 1    
    51   43   45 2    
    52   45   46 1    
@<TRIPOS>SUBSTRUCTURE
     1 C2E701      1 GROUP   
@<TRIPOS>SET

