#    Name: 6pwk_1_C2E
#    Modification time : Fri May 22 19:36:22 2020

@<TRIPOS>MOLECULE
6pwk_1_C2E
   46    52     1     0     0
SMALL
NO_CHARGES


@<TRIPOS>ATOM
      1 P1        -30.2910    8.5240  -25.2700 P.3       1 C2E701      0.0000 
      2 O2P       -31.4400    8.6070  -26.2380 O.co2     1 C2E701      0.0000 
      3 O1P       -29.8750    7.0800  -25.2830 O.co2     1 C2E701      0.0000 
      4 O5'       -28.9790    9.3400  -25.8110 O.3       1 C2E701      0.0000 
      5 C5'       -27.7680    8.6630  -25.8760 C.3       1 C2E701      0.0000 
      6 C4'       -26.9950    9.0090  -24.5730 C.3       1 C2E701      0.0000 
      7 O4'       -25.8900    8.3260  -24.5060 O.3       1 C2E701      0.0000 
      8 C3'       -26.5190   10.4720  -24.5860 C.3       1 C2E701      0.0000 
      9 O3'       -26.1490   10.7700  -23.3280 O.3       1 C2E701      0.0000 
     10 C2'       -25.2510   10.3500  -25.4430 C.3       1 C2E701      0.0000 
     11 O2'       -24.3860   11.5490  -25.2550 O.3       1 C2E701      0.0000 
     12 C1'       -24.6840    9.3470  -24.8340 C.3       1 C2E701      0.0000 
     13 N9        -23.7020    8.5300  -25.5000 N.pl3     1 C2E701      0.0000 
     14 C8        -23.9230    8.9200  -26.7800 C.2       1 C2E701      0.0000 
     15 N7        -23.0620    8.2150  -27.5570 N.2       1 C2E701      0.0000 
     16 C5        -22.3440    7.4110  -26.7800 C.2       1 C2E701      0.0000 
     17 C6        -21.2340    6.3780  -27.0380 C.2       1 C2E701      0.0000 
     18 O6        -20.8270    6.1600  -28.1300 O.2       1 C2E701      0.0000 
     19 N1        -20.6610    5.6600  -25.9400 N.am      1 C2E701      0.0000 
     20 C2        -21.1060    5.8760  -24.5870 C.2       1 C2E701      0.0000 
     21 N2        -20.5590    5.1710  -23.4310 N.pl3     1 C2E701      0.0000 
     22 N3        -22.1590    6.8550  -24.3800 N.2       1 C2E701      0.0000 
     23 C4        -22.7570    7.6090  -25.5100 C.2       1 C2E701      0.0000 
     24 P11       -26.8480   12.1660  -22.7660 P.3       1 C2E701      0.0000 
     25 O21       -26.4390   13.4670  -23.4050 O.co2     1 C2E701      0.0000 
     26 O11       -26.4390   12.2860  -21.3210 O.co2     1 C2E701      0.0000 
     27 O5A       -28.4520   11.7820  -22.8370 O.3       1 C2E701      0.0000 
     28 C5A       -28.8290   10.8770  -21.8350 C.3       1 C2E701      0.0000 
     29 C4A       -30.2870   10.6570  -21.8800 C.3       1 C2E701      0.0000 
     30 O4A       -30.9060   11.7510  -21.5230 O.3       1 C2E701      0.0000 
     31 C3A       -30.7820   10.3000  -23.4500 C.3       1 C2E701      0.0000 
     32 O3A       -30.7090    8.8180  -23.6930 O.3       1 C2E701      0.0000 
     33 C2A       -31.9410   10.6870  -23.5300 C.3       1 C2E701      0.0000 
     34 O2A       -32.8850    9.5890  -23.1120 O.3       1 C2E701      0.0000 
     35 C1A       -32.0310   11.9510  -22.5130 C.3       1 C2E701      0.0000 
     36 N91       -31.9020   13.0810  -23.1700 N.pl3     1 C2E701      0.0000 
     37 C81       -30.7920   13.6950  -23.6070 C.2       1 C2E701      0.0000 
     38 N71       -31.2010   14.8210  -24.2200 N.2       1 C2E701      0.0000 
     39 C51       -32.5280   14.8840  -24.1530 C.2       1 C2E701      0.0000 
     40 C61       -33.5320   15.9110  -24.6630 C.2       1 C2E701      0.0000 
     41 O61       -33.1270   16.8590  -25.2370 O.2       1 C2E701      0.0000 
     42 N11       -34.9360   15.7340  -24.4530 N.am      1 C2E701      0.0000 
     43 C21       -35.4160   14.5760  -23.7530 C.2       1 C2E701      0.0000 
     44 N21       -36.8450   14.4000  -23.5410 N.pl3     1 C2E701      0.0000 
     45 N31       -34.4430   13.5950  -23.2690 N.2       1 C2E701      0.0000 
     46 C41       -32.9790   13.7890  -23.4930 C.2       1 C2E701      0.0000 
@<TRIPOS>BOND
     1    1    2 ar   
     2    1    3 ar   
     3    1    4 1    
     4    1   32 1    
     5    4    5 1    
     6    5    6 1    
     7    6    7 1    
     8    6    8 1    
     9    7   12 1    
    10    8    9 1    
    11    8   10 1    
    12    9   24 1    
    13   10   11 1    
    14   10   12 1    
    15   12   13 1    
    16   13   14 1    
    17   13   23 1    
    18   14   15 2    
    19   15   16 1    
    20   16   17 1    
    21   16   23 2    
    22   17   18 2    
    23   17   19 am   
    24   19   20 1    
    25   20   21 1    
    26   20   22 2    
    27   22   23 1    
    28   24   25 ar   
    29   24   26 ar   
    30   24   27 1    
    31   27   28 1    
    32   28   29 1    
    33   29   30 1    
    34   29   31 1    
    35   30   35 1    
    36   31   32 1    
    37   31   33 1    
    38   33   34 1    
    39   33   35 1    
    40   35   36 1    
    41   36   37 1    
    42   36   46 1    
    43   37   38 2    
    44   38   39 1    
    45   39   40 1    
    46   39   46 2    
    47   40   41 2    
    48   40   42 am   
    49   42   43 1    
    50   43   44 1    
    51   43   45 2    
    52   45   46 1    
@<TRIPOS>SUBSTRUCTURE
     1 C2E701      1 GROUP   
@<TRIPOS>SET

