#    Name: 6pwk_2_C2E_CAVITY_N1_ALL
#    Modification time : Fri May 22 19:36:34 2020

@<TRIPOS>MOLECULE
6pwk_2_C2E_CAVITY_N1_ALL
   78     0     6     0     0
SMALL
NO_CHARGES


@<TRIPOS>ATOM
      1 N         -51.5100   17.7500   -6.2800 N.am      1 ALA2        0.0000 
      2 N         -50.8700   18.4200   -7.4600 N.am      1 ALA2        0.0000 
      3 N         -48.2300   17.2100  -10.5500 N.am      1 ALA2        0.0000 
      4 N         -49.6300   21.7400  -10.6100 N.am      1 ALA2        0.0000 
      5 N         -47.6300   19.8500  -12.5300 N.am      1 ALA2        0.0000 
      6 N         -49.7000   18.8000   -6.6000 N.am      1 ALA2        0.0000 
      7 N         -49.0600   19.4800   -7.7800 N.am      1 ALA2        0.0000 
      8 O         -49.7800   22.7200   -8.2100 O.2       1 ALA2        0.0000 
      9 N         -47.0600   17.5900   -9.6900 N.am      1 ALA2        0.0000 
     10 N         -48.4600   22.1200   -9.7500 N.am      1 ALA2        0.0000 
     11 N         -47.1000   19.5500  -10.5000 N.am      1 ALA2        0.0000 
     12 O         -48.5300   19.1700   -5.7500 O.2       1 ALA2        0.0000 
     13 N         -45.2500   18.6400  -10.0100 N.am      1 ALA2        0.0000 
     14 N         -48.1100   24.7600   -6.1200 N.am      1 ALA2        0.0000 
     15 O         -44.8600   19.3100   -5.5800 O.2       1 ALA2        0.0000 
     16 N         -44.3600   20.9700   -4.3500 N.am      1 ALA2        0.0000 
     17 N         -44.4000   22.9400   -5.1600 N.am      1 ALA2        0.0000 
     18 N         -43.7200   21.6500   -5.5300 N.am      1 ALA2        0.0000 
     19 OD1       -47.1400   21.5100  -11.3000 O.co2     2 ASP3        0.0000 
     20 OD1       -45.9300   19.9200   -9.6400 O.co2     2 ASP3        0.0000 
     21 OD1       -46.6500   23.1700  -10.0700 O.co2     2 ASP3        0.0000 
     22 OD1       -46.1100   22.8700   -8.0400 O.co2     2 ASP3        0.0000 
     23 OD1       -45.4300   21.5800   -8.4100 O.co2     2 ASP3        0.0000 
     24 OD1       -44.7500   20.3000   -8.7800 O.co2     2 ASP3        0.0000 
     25 OD1       -45.4700   23.5400   -9.2200 O.co2     2 ASP3        0.0000 
     26 OD1       -44.2600   21.9600   -7.5600 O.co2     2 ASP3        0.0000 
     27 NZ        -50.1900   17.1400   -7.8300 N.4       3 LYS4        0.0000 
     28 NZ        -50.2300   19.1000   -8.6300 N.4       3 LYS4        0.0000 
     29 NZ        -49.5500   17.8200   -9.0000 N.4       3 LYS4        0.0000 
     30 NZ        -49.5900   19.7800   -9.8100 N.4       3 LYS4        0.0000 
     31 NZ        -48.9100   18.5000  -10.1800 N.4       3 LYS4        0.0000 
     32 NZ        -48.9500   20.4600  -10.9800 N.4       3 LYS4        0.0000 
     33 NZ        -48.2700   19.1800  -11.3500 N.4       3 LYS4        0.0000 
     34 NZ        -46.2600   23.8500   -5.6400 N.4       3 LYS4        0.0000 
     35 CZ        -50.9800   17.4400   -4.2500 C.ar      4 PHE5        0.0000 
     36 CZ        -47.8500   17.8900   -6.1200 C.ar      4 PHE5        0.0000 
     37 CZ        -46.6700   18.2600   -5.2600 C.ar      4 PHE5        0.0000 
     38 CZ        -46.7100   20.2200   -6.0600 C.ar      4 PHE5        0.0000 
     39 CZ        -46.0300   18.9400   -6.4400 C.ar      4 PHE5        0.0000 
     40 CZ        -45.5400   20.6000   -5.2100 C.ar      4 PHE5        0.0000 
     41 CZ        -45.0400   22.2600   -3.9800 C.ar      4 PHE5        0.0000 
     42 CA        -50.3400   18.1200   -5.4300 C.3       5 GLY6        0.0000 
     43 CA        -49.7400   20.7600   -7.4000 C.3       5 GLY6        0.0000 
     44 CA        -49.1000   21.4400   -8.5800 C.3       5 GLY6        0.0000 
     45 CA        -46.3800   16.3000  -10.0600 C.3       5 GLY6        0.0000 
     46 CA        -49.1700   18.4900   -4.5700 C.3       5 GLY6        0.0000 
     47 CA        -47.8900   19.8500   -6.9200 C.3       5 GLY6        0.0000 
     48 CA        -46.5300   17.2800   -7.6600 C.3       5 GLY6        0.0000 
     49 CA        -48.6100   23.1000   -7.3500 C.3       5 GLY6        0.0000 
     50 CA        -47.9300   21.8100   -7.7200 C.3       5 GLY6        0.0000 
     51 CA        -45.8900   17.9600   -8.8400 C.3       5 GLY6        0.0000 
     52 CA        -47.3900   21.5100   -5.6900 C.3       5 GLY6        0.0000 
     53 CA        -45.3500   17.6600   -6.8100 C.3       5 GLY6        0.0000 
     54 CA        -47.4300   23.4700   -6.5000 C.3       5 GLY6        0.0000 
     55 CA        -46.7500   22.1900   -6.8700 C.3       5 GLY6        0.0000 
     56 CA        -44.7100   18.3300   -7.9800 C.3       5 GLY6        0.0000 
     57 CA        -44.0700   19.0100   -9.1600 C.3       5 GLY6        0.0000 
     58 CA        -44.2200   19.9900   -6.7500 C.3       5 GLY6        0.0000 
     59 CA        -43.5400   18.7100   -7.1300 C.3       5 GLY6        0.0000 
     60 CA        -43.5800   20.6700   -7.9300 C.3       5 GLY6        0.0000 
     61 DU        -50.8300   16.4600   -6.6500 H         6 CUB7        0.0000 
     62 DU        -49.6600   16.8400   -5.8000 H         6 CUB7        0.0000 
     63 DU        -49.0200   17.5100   -6.9700 H         6 CUB7        0.0000 
     64 DU        -48.3800   18.1900   -8.1500 H         6 CUB7        0.0000 
     65 DU        -47.7000   16.9100   -8.5200 H         6 CUB7        0.0000 
     66 DU        -48.4200   20.1600   -8.9500 H         6 CUB7        0.0000 
     67 DU        -47.7400   18.8700   -9.3200 H         6 CUB7        0.0000 
     68 DU        -47.7800   20.8300  -10.1200 H         6 CUB7        0.0000 
     69 DU        -47.2100   18.5700   -7.2900 H         6 CUB7        0.0000 
     70 DU        -47.2500   20.5300   -8.0900 H         6 CUB7        0.0000 
     71 DU        -46.5700   19.2400   -8.4700 H         6 CUB7        0.0000 
     72 DU        -47.2900   22.4900   -8.9000 H         6 CUB7        0.0000 
     73 DU        -46.0700   20.9000   -7.2400 H         6 CUB7        0.0000 
     74 DU        -45.3900   19.6200   -7.6100 H         6 CUB7        0.0000 
     75 DU        -46.7900   24.1500   -7.6700 H         6 CUB7        0.0000 
     76 DU        -45.5800   22.5600   -6.0100 H         6 CUB7        0.0000 
     77 DU        -44.9000   21.2800   -6.3800 H         6 CUB7        0.0000 
     78 DU        -44.9400   23.2400   -7.1900 H         6 CUB7        0.0000 
@<TRIPOS>BOND
@<TRIPOS>SUBSTRUCTURE
     1 ALA2        1 GROUP   
     2 ASP3       19 GROUP   
     3 LYS4       27 GROUP   
     4 PHE5       35 GROUP   
     5 GLY6       42 GROUP   
     6 CUB7       61 GROUP   
@<TRIPOS>SET

