#    Name: 6pwk_1_C2E_CAVITY_N1_6
#    Modification time : Fri May 22 19:36:23 2020

@<TRIPOS>MOLECULE
6pwk_1_C2E_CAVITY_N1_6
  152     0     7     0     0
SMALL
NO_CHARGES


@<TRIPOS>ATOM
      1 OG        -30.4600    5.1100  -27.0100 O.3       1 SER1        0.0000 
      2 OG        -29.8200    5.7900  -28.1900 O.3       1 SER1        0.0000 
      3 OG        -29.1800    6.4600  -29.3600 O.3       1 SER1        0.0000 
      4 OG        -28.6500    6.1600  -27.3300 O.3       1 SER1        0.0000 
      5 OG        -28.0000    6.8400  -28.5100 O.3       1 SER1        0.0000 
      6 O         -33.7400    5.6400  -22.7400 O.2       2 ALA2        0.0000 
      7 N         -33.1000    6.3200  -23.9200 N.am      2 ALA2        0.0000 
      8 N         -31.7800    5.7100  -25.4700 N.am      2 ALA2        0.0000 
      9 N         -31.1000    4.4300  -25.8400 N.am      2 ALA2        0.0000 
     10 N         -34.5700    7.9000  -19.9700 N.am      2 ALA2        0.0000 
     11 N         -33.9300    8.5800  -21.1500 N.am      2 ALA2        0.0000 
     12 N         -31.8900    4.7300  -22.2600 N.am      2 ALA2        0.0000 
     13 N         -32.0100   10.6200  -24.6700 N.am      2 ALA2        0.0000 
     14 O         -32.7200   13.8700  -25.1000 O.2       2 ALA2        0.0000 
     15 O         -27.3600    7.5200  -29.6800 O.2       2 ALA2        0.0000 
     16 N         -34.7100    8.8800  -17.5700 N.am      2 ALA2        0.0000 
     17 N         -34.0300    7.6000  -17.9400 N.am      2 ALA2        0.0000 
     18 N         -34.0700    9.5600  -18.7400 N.am      2 ALA2        0.0000 
     19 N         -33.3900    8.2800  -19.1200 N.am      2 ALA2        0.0000 
     20 N         -32.7100    6.9900  -19.4900 N.am      2 ALA2        0.0000 
     21 N         -32.0300    5.7100  -19.8600 N.am      2 ALA2        0.0000 
     22 N         -31.3500    4.4200  -20.2300 N.am      2 ALA2        0.0000 
     23 N         -32.0700    7.6700  -20.6600 N.am      2 ALA2        0.0000 
     24 N         -31.3900    6.3900  -21.0300 N.am      2 ALA2        0.0000 
     25 N         -30.7100    5.1000  -21.4000 N.am      2 ALA2        0.0000 
     26 N         -32.7900   10.9200  -21.0900 N.am      2 ALA2        0.0000 
     27 N         -32.1100    9.6400  -21.4700 N.am      2 ALA2        0.0000 
     28 N         -31.4300    8.3500  -21.8400 N.am      2 ALA2        0.0000 
     29 N         -31.4700   10.3100  -22.6400 N.am      2 ALA2        0.0000 
     30 O         -32.2300   15.5200  -23.8700 O.2       2 ALA2        0.0000 
     31 O         -31.5500   14.2400  -24.2500 O.2       2 ALA2        0.0000 
     32 N         -26.1900    7.8900  -28.8200 N.am      2 ALA2        0.0000 
     33 O         -30.2200    6.7600  -20.1800 O.2       2 ALA2        0.0000 
     34 O         -29.5800    7.4400  -21.3500 O.2       2 ALA2        0.0000 
     35 N         -30.3000   10.6900  -21.7800 N.am      2 ALA2        0.0000 
     36 O         -29.6200    9.4000  -22.1600 O.2       2 ALA2        0.0000 
     37 N         -25.0200    8.2600  -27.9700 N.am      2 ALA2        0.0000 
     38 O         -29.1200   11.0600  -20.9300 O.2       2 ALA2        0.0000 
     39 O         -28.4400    9.7800  -21.3000 O.2       2 ALA2        0.0000 
     40 O         -27.7600    8.4900  -21.6700 O.2       2 ALA2        0.0000 
     41 N         -23.8400    8.6400  -27.1100 N.am      2 ALA2        0.0000 
     42 O         -27.9500   11.4400  -20.0700 O.2       2 ALA2        0.0000 
     43 O         -27.2700   10.1500  -20.4400 O.2       2 ALA2        0.0000 
     44 O         -26.5900    8.8700  -20.8200 O.2       2 ALA2        0.0000 
     45 O         -26.1000   10.5300  -19.5900 O.2       2 ALA2        0.0000 
     46 O         -25.4200    9.2400  -19.9600 O.2       2 ALA2        0.0000 
     47 OD1       -30.5000    7.0700  -27.8100 O.co2     3 ASP3        0.0000 
     48 OD1       -32.5300    4.0500  -21.0900 O.co2     3 ASP3        0.0000 
     49 OD1       -31.2500    5.4100  -23.4400 O.co2     3 ASP3        0.0000 
     50 OD1       -31.2900    7.3700  -24.2400 O.co2     3 ASP3        0.0000 
     51 OD1       -30.6100    6.0900  -24.6100 O.co2     3 ASP3        0.0000 
     52 OD1       -31.3300    9.3300  -25.0400 O.co2     3 ASP3        0.0000 
     53 OD1       -30.6500    8.0500  -25.4100 O.co2     3 ASP3        0.0000 
     54 OD1       -29.9700    6.7700  -25.7800 O.co2     3 ASP3        0.0000 
     55 OD1       -29.2900    5.4800  -26.1600 O.co2     3 ASP3        0.0000 
     56 OD1       -30.0100    8.7300  -26.5900 O.co2     3 ASP3        0.0000 
     57 OD1       -29.3300    7.4400  -26.9600 O.co2     3 ASP3        0.0000 
     58 OD1       -30.7500    7.0700  -22.2100 O.co2     3 ASP3        0.0000 
     59 OD1       -30.1100    7.7500  -23.3800 O.co2     3 ASP3        0.0000 
     60 OD1       -29.4700    8.4200  -24.5600 O.co2     3 ASP3        0.0000 
     61 OD1       -28.1500    7.8200  -26.1000 O.co2     3 ASP3        0.0000 
     62 OD1       -28.9400    8.1200  -22.5300 O.co2     3 ASP3        0.0000 
     63 OD1       -28.3000    8.8000  -23.7000 O.co2     3 ASP3        0.0000 
     64 OD1       -26.9800    8.1900  -25.2500 O.co2     3 ASP3        0.0000 
     65 OD1       -27.1200    9.1700  -22.8500 O.co2     3 ASP3        0.0000 
     66 OD1       -25.8000    8.5700  -24.3900 O.co2     3 ASP3        0.0000 
     67 OD1       -25.9100    7.5800  -21.1900 O.co2     3 ASP3        0.0000 
     68 OD1       -25.2700    8.2600  -22.3600 O.co2     3 ASP3        0.0000 
     69 OD1       -23.9500    7.6600  -23.9100 O.co2     3 ASP3        0.0000 
     70 OD1       -26.0300   13.4700  -23.6000 O.co2     3 ASP3        0.0000 
     71 OD1       -25.3500   12.1900  -23.9700 O.co2     3 ASP3        0.0000 
     72 OD1       -24.6700   10.9000  -24.3400 O.co2     3 ASP3        0.0000 
     73 OD1       -23.5000   11.2800  -23.4800 O.co2     3 ASP3        0.0000 
     74 NZ        -37.0600    8.1400  -19.2800 N.4       4 LYS4        0.0000 
     75 NZ        -31.1400    6.3900  -26.6400 N.4       4 LYS4        0.0000 
     76 NZ        -29.8600    7.7500  -28.9900 N.4       4 LYS4        0.0000 
     77 NZ        -35.8900    8.5100  -18.4300 N.4       4 LYS4        0.0000 
     78 NZ        -28.6800    8.1200  -28.1300 N.4       4 LYS4        0.0000 
     79 CZ        -30.8700   12.9600  -24.6200 C.ar      5 PHE5        0.0000 
     80 CZ        -30.1900   11.6700  -24.9900 C.ar      5 PHE5        0.0000 
     81 CZ        -29.5100   10.3900  -25.3600 C.ar      5 PHE5        0.0000 
     82 CZ        -28.8300    9.1000  -25.7300 C.ar      5 PHE5        0.0000 
     83 CZ        -27.5100    8.5000  -27.2800 C.ar      5 PHE5        0.0000 
     84 CZ        -29.7000   13.3300  -23.7600 C.ar      5 PHE5        0.0000 
     85 CZ        -29.0200   12.0500  -24.1300 C.ar      5 PHE5        0.0000 
     86 CZ        -28.3400   10.7600  -24.5000 C.ar      5 PHE5        0.0000 
     87 CZ        -27.6600    9.4800  -24.8800 C.ar      5 PHE5        0.0000 
     88 CZ        -26.3400    8.8700  -26.4200 C.ar      5 PHE5        0.0000 
     89 CZ        -25.7000    9.5500  -27.6000 C.ar      5 PHE5        0.0000 
     90 CZ        -27.8400   12.4200  -23.2800 C.ar      5 PHE5        0.0000 
     91 CZ        -27.2000   13.1000  -24.4500 C.ar      5 PHE5        0.0000 
     92 CZ        -26.5200   11.8100  -24.8200 C.ar      5 PHE5        0.0000 
     93 CZ        -25.8400   10.5300  -25.1900 C.ar      5 PHE5        0.0000 
     94 CZ        -25.1600    9.2400  -25.5700 C.ar      5 PHE5        0.0000 
     95 CZ        -24.5200    9.9200  -26.7400 C.ar      5 PHE5        0.0000 
     96 CZ        -23.3500   10.3000  -25.8900 C.ar      5 PHE5        0.0000 
     97 CZ        -22.6700    9.0100  -26.2600 C.ar      5 PHE5        0.0000 
     98 CZ        -22.1400    8.7100  -24.2300 C.ar      5 PHE5        0.0000 
     99 CA        -35.9300   10.4700  -19.2300 C.3       6 GLY6        0.0000 
    100 CA        -35.2500    9.1900  -19.6000 C.3       6 GLY6        0.0000 
    101 CA        -34.6100    9.8700  -20.7700 C.3       6 GLY6        0.0000 
    102 CA        -33.9700   10.5500  -21.9500 C.3       6 GLY6        0.0000 
    103 CA        -34.0100   12.5100  -22.7500 C.3       6 GLY6        0.0000 
    104 CA        -33.3300   11.2200  -23.1200 C.3       6 GLY6        0.0000 
    105 CA        -34.0400   14.4700  -23.5600 C.3       6 GLY6        0.0000 
    106 CA        -33.3600   13.1900  -23.9300 C.3       6 GLY6        0.0000 
    107 CA        -32.6900   11.9000  -24.3000 C.3       6 GLY6        0.0000 
    108 CA        -33.4000   15.1500  -24.7300 C.3       6 GLY6        0.0000 
    109 CA        -33.3500    6.3100  -18.3100 C.3       6 GLY6        0.0000 
    110 CA        -32.8300   12.8800  -21.9000 C.3       6 GLY6        0.0000 
    111 CA        -32.1500   11.6000  -22.2700 C.3       6 GLY6        0.0000 
    112 CA        -32.8700   14.8500  -22.7000 C.3       6 GLY6        0.0000 
    113 CA        -32.1900   13.5600  -23.0700 C.3       6 GLY6        0.0000 
    114 CA        -26.8300    7.2100  -27.6500 C.3       6 GLY6        0.0000 
    115 CA        -30.9800   11.9700  -21.4100 C.3       6 GLY6        0.0000 
    116 CA        -30.3400   12.6500  -22.5900 C.3       6 GLY6        0.0000 
    117 CA        -30.3800   14.6100  -23.3900 C.3       6 GLY6        0.0000 
    118 CA        -29.1600   13.0200  -21.7300 C.3       6 GLY6        0.0000 
    119 CA        -24.4800    7.9600  -25.9400 C.3       6 GLY6        0.0000 
    120 CA        -23.3100    8.3300  -25.0800 C.3       6 GLY6        0.0000 
    121 CA        -26.1400   12.4900  -20.3900 C.3       6 GLY6        0.0000 
    122 CA        -25.5000   13.1700  -21.5700 C.3       6 GLY6        0.0000 
    123 DU        -36.4200    8.8100  -20.4600 H         7 CUB7        0.0000 
    124 DU        -35.7800    9.4900  -21.6300 H         7 CUB7        0.0000 
    125 DU        -35.2100    7.2300  -18.8000 H         7 CUB7        0.0000 
    126 DU        -34.5300    5.9400  -19.1700 H         7 CUB7        0.0000 
    127 DU        -33.8900    6.6200  -20.3400 H         7 CUB7        0.0000 
    128 DU        -33.2100    5.3400  -20.7100 H         7 CUB7        0.0000 
    129 DU        -33.2500    7.3000  -21.5200 H         7 CUB7        0.0000 
    130 DU        -32.5700    6.0100  -21.8900 H         7 CUB7        0.0000 
    131 DU        -33.2900    9.2600  -22.3200 H         7 CUB7        0.0000 
    132 DU        -32.6100    7.9800  -22.6900 H         7 CUB7        0.0000 
    133 DU        -31.9300    6.6900  -23.0600 H         7 CUB7        0.0000 
    134 DU        -30.7900    9.0300  -23.0100 H         7 CUB7        0.0000 
    135 DU        -31.5100   12.2800  -23.4400 H         7 CUB7        0.0000 
    136 DU        -30.8300   10.9900  -23.8100 H         7 CUB7        0.0000 
    137 DU        -30.1500    9.7100  -24.1900 H         7 CUB7        0.0000 
    138 DU        -29.6600   11.3700  -22.9600 H         7 CUB7        0.0000 
    139 DU        -28.9800   10.0800  -23.3300 H         7 CUB7        0.0000 
    140 DU        -28.4800   11.7400  -22.1000 H         7 CUB7        0.0000 
    141 DU        -27.8000   10.4600  -22.4700 H         7 CUB7        0.0000 
    142 DU        -27.1600   11.1300  -23.6500 H         7 CUB7        0.0000 
    143 DU        -26.4800    9.8500  -24.0200 H         7 CUB7        0.0000 
    144 DU        -27.3100   12.1100  -21.2500 H         7 CUB7        0.0000 
    145 DU        -26.6300   10.8300  -21.6200 H         7 CUB7        0.0000 
    146 DU        -25.9500    9.5500  -21.9900 H         7 CUB7        0.0000 
    147 DU        -26.6700   12.7900  -22.4200 H         7 CUB7        0.0000 
    148 DU        -25.9900   11.5100  -22.7900 H         7 CUB7        0.0000 
    149 DU        -24.6300    8.9400  -23.5400 H         7 CUB7        0.0000 
    150 DU        -23.9900    9.6200  -24.7100 H         7 CUB7        0.0000 
    151 DU        -25.4600   11.2000  -20.7600 H         7 CUB7        0.0000 
    152 DU        -24.8200   11.8800  -21.9400 H         7 CUB7        0.0000 
@<TRIPOS>BOND
@<TRIPOS>SUBSTRUCTURE
     1 SER1        1 GROUP   
     2 ALA2        6 GROUP   
     3 ASP3       47 GROUP   
     4 LYS4       74 GROUP   
     5 PHE5       79 GROUP   
     6 GLY6       99 GROUP   
     7 CUB7      123 GROUP   
@<TRIPOS>SET

