#    Name: 6pwk_2_C2E_CAVITY_N1_8
#    Modification time : Fri May 22 19:36:34 2020

@<TRIPOS>MOLECULE
6pwk_2_C2E_CAVITY_N1_8
   39     0     6     0     0
SMALL
NO_CHARGES


@<TRIPOS>ATOM
      1 N         -51.5100   17.7500   -6.2800 N.am      1 ALA2        0.0000 
      2 N         -50.8700   18.4200   -7.4600 N.am      1 ALA2        0.0000 
      3 N         -49.7000   18.8000   -6.6000 N.am      1 ALA2        0.0000 
      4 N         -49.0600   19.4800   -7.7800 N.am      1 ALA2        0.0000 
      5 O         -48.5300   19.1700   -5.7500 O.2       1 ALA2        0.0000 
      6 O         -44.8600   19.3100   -5.5800 O.2       1 ALA2        0.0000 
      7 N         -44.3600   20.9700   -4.3500 N.am      1 ALA2        0.0000 
      8 N         -44.4000   22.9400   -5.1600 N.am      1 ALA2        0.0000 
      9 N         -43.7200   21.6500   -5.5300 N.am      1 ALA2        0.0000 
     10 OD1       -44.7500   20.3000   -8.7800 O.co2     2 ASP3        0.0000 
     11 OD1       -44.2600   21.9600   -7.5600 O.co2     2 ASP3        0.0000 
     12 NZ        -50.1900   17.1400   -7.8300 N.4       3 LYS4        0.0000 
     13 CZ        -50.9800   17.4400   -4.2500 C.ar      4 PHE5        0.0000 
     14 CZ        -47.8500   17.8900   -6.1200 C.ar      4 PHE5        0.0000 
     15 CZ        -46.6700   18.2600   -5.2600 C.ar      4 PHE5        0.0000 
     16 CZ        -46.7100   20.2200   -6.0600 C.ar      4 PHE5        0.0000 
     17 CZ        -46.0300   18.9400   -6.4400 C.ar      4 PHE5        0.0000 
     18 CZ        -45.5400   20.6000   -5.2100 C.ar      4 PHE5        0.0000 
     19 CZ        -45.0400   22.2600   -3.9800 C.ar      4 PHE5        0.0000 
     20 CA        -50.3400   18.1200   -5.4300 C.3       5 GLY6        0.0000 
     21 CA        -49.1700   18.4900   -4.5700 C.3       5 GLY6        0.0000 
     22 CA        -47.8900   19.8500   -6.9200 C.3       5 GLY6        0.0000 
     23 CA        -46.5300   17.2800   -7.6600 C.3       5 GLY6        0.0000 
     24 CA        -45.8900   17.9600   -8.8400 C.3       5 GLY6        0.0000 
     25 CA        -47.3900   21.5100   -5.6900 C.3       5 GLY6        0.0000 
     26 CA        -45.3500   17.6600   -6.8100 C.3       5 GLY6        0.0000 
     27 CA        -44.7100   18.3300   -7.9800 C.3       5 GLY6        0.0000 
     28 CA        -44.0700   19.0100   -9.1600 C.3       5 GLY6        0.0000 
     29 CA        -44.2200   19.9900   -6.7500 C.3       5 GLY6        0.0000 
     30 CA        -43.5400   18.7100   -7.1300 C.3       5 GLY6        0.0000 
     31 CA        -43.5800   20.6700   -7.9300 C.3       5 GLY6        0.0000 
     32 DU        -50.8300   16.4600   -6.6500 H         6 CUB7        0.0000 
     33 DU        -49.6600   16.8400   -5.8000 H         6 CUB7        0.0000 
     34 DU        -49.0200   17.5100   -6.9700 H         6 CUB7        0.0000 
     35 DU        -48.3800   18.1900   -8.1500 H         6 CUB7        0.0000 
     36 DU        -47.7000   16.9100   -8.5200 H         6 CUB7        0.0000 
     37 DU        -47.2100   18.5700   -7.2900 H         6 CUB7        0.0000 
     38 DU        -45.3900   19.6200   -7.6100 H         6 CUB7        0.0000 
     39 DU        -44.9000   21.2800   -6.3800 H         6 CUB7        0.0000 
@<TRIPOS>BOND
@<TRIPOS>SUBSTRUCTURE
     1 ALA2        1 GROUP   
     2 ASP3       10 GROUP   
     3 LYS4       12 GROUP   
     4 PHE5       13 GROUP   
     5 GLY6       20 GROUP   
     6 CUB7       32 GROUP   
@<TRIPOS>SET

