#    Name: 5zi2_2_ADP_CAVITY_N1_4
#    Modification time : Fri May 22 19:23:41 2020

@<TRIPOS>MOLECULE
5zi2_2_ADP_CAVITY_N1_4
   54     0     4     0     0
SMALL
NO_CHARGES


@<TRIPOS>ATOM
      1 OG        -31.5100  -18.0900  -23.5900 O.3       1 SER1        0.0000 
      2 OG        -32.0700  -18.1100  -21.5400 O.3       1 SER1        0.0000 
      3 OG        -31.0400  -17.3800  -22.3500 O.3       1 SER1        0.0000 
      4 OG        -30.6200  -18.5100  -20.0500 O.3       1 SER1        0.0000 
      5 O         -30.8900  -16.2300  -26.7000 O.2       2 ALA2        0.0000 
      6 O         -32.9000  -15.8500  -26.1500 O.2       2 ALA2        0.0000 
      7 O         -31.8600  -15.1200  -26.9600 O.2       2 ALA2        0.0000 
      8 N         -32.4900  -16.9800  -23.8500 N.am      2 ALA2        0.0000 
      9 N         -32.4200  -15.1400  -24.9100 N.am      2 ALA2        0.0000 
     10 N         -29.0300  -17.7700  -22.9000 N.am      2 ALA2        0.0000 
     11 N         -29.9400  -14.8300  -24.2200 N.am      2 ALA2        0.0000 
     12 N         -28.9000  -14.1000  -25.0300 N.am      2 ALA2        0.0000 
     13 O         -32.9900  -15.1600  -22.8700 O.2       2 ALA2        0.0000 
     14 N         -30.9100  -13.7200  -24.4800 N.am      2 ALA2        0.0000 
     15 N         -31.4800  -13.7400  -22.4400 N.am      2 ALA2        0.0000 
     16 N         -30.4400  -13.0100  -23.2400 N.am      2 ALA2        0.0000 
     17 O         -33.4900  -13.3500  -21.8900 O.2       2 ALA2        0.0000 
     18 N         -31.4100  -11.9000  -23.5000 N.am      2 ALA2        0.0000 
     19 O         -29.0500  -15.2600  -20.6800 O.2       2 ALA2        0.0000 
     20 O         -30.0300  -14.1400  -20.9400 O.2       2 ALA2        0.0000 
     21 O         -31.0000  -13.0300  -21.2000 O.2       2 ALA2        0.0000 
     22 N         -31.9800  -11.9200  -21.4600 N.am      2 ALA2        0.0000 
     23 O         -30.5900  -14.1700  -18.9000 O.2       2 ALA2        0.0000 
     24 O         -31.5600  -13.0500  -19.1500 O.2       2 ALA2        0.0000 
     25 CA        -29.3800  -14.8100  -26.2700 C.3       3 GLY6        0.0000 
     26 CA        -31.3900  -14.4200  -25.7200 C.3       3 GLY6        0.0000 
     27 CA        -30.0000  -16.6600  -23.1600 C.3       3 GLY6        0.0000 
     28 CA        -28.9600  -15.9400  -23.9700 C.3       3 GLY6        0.0000 
     29 CA        -32.0100  -16.2700  -22.6100 C.3       3 GLY6        0.0000 
     30 CA        -31.9500  -14.4400  -23.6700 C.3       3 GLY6        0.0000 
     31 CA        -29.5900  -17.7900  -20.8600 C.3       3 GLY6        0.0000 
     32 CA        -28.5500  -17.0700  -21.6600 C.3       3 GLY6        0.0000 
     33 CA        -31.6000  -17.4000  -20.3100 C.3       3 GLY6        0.0000 
     34 CA        -29.5300  -15.9600  -21.9200 C.3       3 GLY6        0.0000 
     35 CA        -31.5400  -15.5700  -21.3700 C.3       3 GLY6        0.0000 
     36 CA        -29.4600  -14.1200  -22.9900 C.3       3 GLY6        0.0000 
     37 CA        -32.5100  -14.4600  -21.6300 C.3       3 GLY6        0.0000 
     38 CA        -30.1500  -17.8100  -18.8100 C.3       3 GLY6        0.0000 
     39 CA        -31.1300  -16.7000  -19.0700 C.3       3 GLY6        0.0000 
     40 CA        -30.0900  -15.9800  -19.8800 C.3       3 GLY6        0.0000 
     41 CA        -32.1000  -15.5900  -19.3300 C.3       3 GLY6        0.0000 
     42 CA        -31.0600  -14.8700  -20.1300 C.3       3 GLY6        0.0000 
     43 CA        -32.0400  -13.7600  -20.3900 C.3       3 GLY6        0.0000 
     44 CA        -33.0100  -12.6500  -20.6500 C.3       3 GLY6        0.0000 
     45 CA        -30.9400  -11.2000  -22.2600 C.3       3 GLY6        0.0000 
     46 CA        -29.6100  -15.2800  -18.6400 C.3       3 GLY6        0.0000 
     47 DU        -31.9200  -16.9600  -25.8900 H         4 CUB7        0.0000 
     48 DU        -30.4700  -17.3600  -24.4000 H         4 CUB7        0.0000 
     49 DU        -29.4400  -16.6400  -25.2000 H         4 CUB7        0.0000 
     50 DU        -31.4500  -16.2500  -24.6500 H         4 CUB7        0.0000 
     51 DU        -30.4100  -15.5300  -25.4600 H         4 CUB7        0.0000 
     52 DU        -30.9800  -15.5500  -23.4200 H         4 CUB7        0.0000 
     53 DU        -30.5600  -16.6800  -21.1100 H         4 CUB7        0.0000 
     54 DU        -30.5000  -14.8500  -22.1800 H         4 CUB7        0.0000 
@<TRIPOS>BOND
@<TRIPOS>SUBSTRUCTURE
     1 SER1        1 GROUP   
     2 ALA2        5 GROUP   
     3 GLY6       25 GROUP   
     4 CUB7       47 GROUP   
@<TRIPOS>SET

