#    Name: 5zi2_2_ADP
#    Modification time : Fri May 22 19:23:40 2020

@<TRIPOS>MOLECULE
5zi2_2_ADP
   27    29     1     0     1
SMALL
NO_CHARGES


@<TRIPOS>ATOM
      1 PB        -30.2000  -14.4240  -21.7930 P.3       1 ADP402      0.0000 
      2 O1B       -30.9620  -14.6130  -23.1190 O.co2     1 ADP402      0.0000 
      3 O2B       -29.7540  -15.7390  -21.2190 O.co2     1 ADP402      0.0000 
      4 O3B       -29.0550  -13.4250  -21.7970 O.co2     1 ADP402      0.0000 
      5 PA        -31.9770  -12.6430  -20.1960 P.3       1 ADP402      0.0000 
      6 O1A       -33.4850  -12.4310  -20.3060 O.co2     1 ADP402      0.0000 
      7 O2A       -31.3610  -12.7830  -18.8310 O.co2     1 ADP402      0.0000 
      8 O3A       -31.5140  -13.9510  -20.9900 O.3       1 ADP402      0.0000 
      9 O5'       -31.2660  -11.4060  -20.9930 O.3       1 ADP402      0.0000 
     10 C5'       -31.7540  -10.7380  -22.1800 C.3       1 ADP402      0.0000 
     11 C4'       -31.5820   -9.2110  -22.1120 C.3       1 ADP402      0.0000 
     12 O4'       -32.1040   -8.6100  -23.2890 O.3       1 ADP402      0.0000 
     13 C3'       -32.3480   -8.6220  -20.9160 C.3       1 ADP402      0.0000 
     14 O3'       -31.4480   -7.8230  -20.1260 O.3       1 ADP402      0.0000 
     15 C2'       -33.4910   -7.8230  -21.5050 C.3       1 ADP402      0.0000 
     16 O2'       -33.8690   -6.6270  -20.7620 O.3       1 ADP402      0.0000 
     17 C1'       -32.8330   -7.4680  -22.8490 C.3       1 ADP402      0.0000 
     18 N9        -33.7750   -6.9990  -23.8920 N.pl3     1 ADP402      0.0000 
     19 C8        -34.9970   -7.4770  -24.1920 C.2       1 ADP402      0.0000 
     20 N7        -35.5010   -6.7410  -25.2100 N.2       1 ADP402      0.0000 
     21 C5        -34.6320   -5.7990  -25.5700 C.ar      1 ADP402      0.0000 
     22 C6        -34.5600   -4.6990  -26.5560 C.ar      1 ADP402      0.0000 
     23 N6        -35.5390   -4.4440  -27.4370 N.pl3     1 ADP402      0.0000 
     24 N1        -33.4530   -3.9660  -26.5880 N.ar      1 ADP402      0.0000 
     25 C2        -32.4110   -4.1860  -25.7440 C.ar      1 ADP402      0.0000 
     26 N3        -32.4350   -5.1490  -24.8050 N.ar      1 ADP402      0.0000 
     27 C4        -33.4870   -5.9780  -24.6900 C.ar      1 ADP402      0.0000 
@<TRIPOS>BOND
     1    1    2 ar   
     2    1    3 ar   
     3    1    4 ar   
     4    1    8 1    
     5    5    6 ar   
     6    5    7 ar   
     7    5    8 1    
     8    5    9 1    
     9    9   10 1    
    10   10   11 1    
    11   11   12 1    
    12   11   13 1    
    13   12   17 1    
    14   13   14 1    
    15   13   15 1    
    16   15   16 1    
    17   15   17 1    
    18   17   18 1    
    19   18   19 1    
    20   18   27 1    
    21   19   20 2    
    22   20   21 1    
    23   21   22 ar   
    24   21   27 ar   
    25   22   23 1    
    26   22   24 ar   
    27   24   25 ar   
    28   25   26 ar   
    29   26   27 ar   
@<TRIPOS>SUBSTRUCTURE
     1 ADP402      1 GROUP   
@<TRIPOS>SET
ATOM$ORANGE STATIC     ATOMS   COLORGROUP SYSTEM 
20 10 10 11 11 13 13 15 15 17 17 19 19 21 21 22 22 25 \
25 27 27 

