#    Name: 6ang_1_AMP
#    Modification time : Fri May 22 19:34:30 2020

@<TRIPOS>MOLECULE
6ang_1_AMP
   23    25     1     0     1
SMALL
NO_CHARGES


@<TRIPOS>ATOM
      1 P          41.0580    6.2720   27.7790 P.3       1 AMP401      0.0000 
      2 O1P        41.1840    6.7480   26.3350 O.co2     1 AMP401      0.0000 
      3 O2P        41.8420    7.0630   28.8010 O.co2     1 AMP401      0.0000 
      4 O3P        39.6510    5.8240   28.1780 O.co2     1 AMP401      0.0000 
      5 O5'        41.9300    4.9200   27.7180 O.3       1 AMP401      0.0000 
      6 C5'        41.4550    3.6860   28.2680 C.3       1 AMP401      0.0000 
      7 C4'        41.3630    2.6150   27.1870 C.3       1 AMP401      0.0000 
      8 O4'        42.0840    1.4490   27.6010 O.3       1 AMP401      0.0000 
      9 C3'        39.9290    2.2000   26.8910 C.3       1 AMP401      0.0000 
     10 O3'        39.7320    1.9750   25.5110 O.3       1 AMP401      0.0000 
     11 C2'        39.8520    0.8270   27.4960 C.3       1 AMP401      0.0000 
     12 O2'        38.8410   -0.0360   26.9620 O.3       1 AMP401      0.0000 
     13 C1'        41.3190    0.3090   27.3730 C.3       1 AMP401      0.0000 
     14 N9         41.5910   -0.7310   28.3950 N.pl3     1 AMP401      0.0000 
     15 C8         41.3770   -0.6460   29.7150 C.2       1 AMP401      0.0000 
     16 N7         41.6370   -1.8370   30.3080 N.2       1 AMP401      0.0000 
     17 C5         41.9980   -2.6950   29.3490 C.ar      1 AMP401      0.0000 
     18 C6         42.4410   -4.0840   29.3110 C.ar      1 AMP401      0.0000 
     19 N6         42.5110   -4.8200   30.4500 N.pl3     1 AMP401      0.0000 
     20 N1         42.8130   -4.6080   28.1400 N.ar      1 AMP401      0.0000 
     21 C2         42.7380   -3.9020   26.9780 C.ar      1 AMP401      0.0000 
     22 N3         42.3390   -2.6100   26.9540 N.ar      1 AMP401      0.0000 
     23 C4         41.9740   -1.9680   28.1090 C.ar      1 AMP401      0.0000 
@<TRIPOS>BOND
     1    1    2 ar   
     2    1    3 ar   
     3    1    4 ar   
     4    1    5 1    
     5    5    6 1    
     6    6    7 1    
     7    7    8 1    
     8    7    9 1    
     9    8   13 1    
    10    9   10 1    
    11    9   11 1    
    12   11   12 1    
    13   11   13 1    
    14   13   14 1    
    15   14   15 1    
    16   14   23 1    
    17   15   16 2    
    18   16   17 1    
    19   17   18 ar   
    20   17   23 ar   
    21   18   19 1    
    22   18   20 ar   
    23   20   21 ar   
    24   21   22 ar   
    25   22   23 ar   
@<TRIPOS>SUBSTRUCTURE
     1 AMP401      1 GROUP   
@<TRIPOS>SET
ATOM$ORANGE STATIC     ATOMS   COLORGROUP SYSTEM 
20 6 6 7 7 9 9 11 11 13 13 15 15 17 17 18 18 21 \
21 23 23 

