#    Name: 5yfv_3_AMP
#    Modification time : Fri May 22 19:13:35 2020

@<TRIPOS>MOLECULE
5yfv_3_AMP
   23    25     1     0     1
SMALL
NO_CHARGES


@<TRIPOS>ATOM
      1 P          33.1680  -28.2940  -38.9100 P.3       1 AMP402      0.0000 
      2 O1P        34.2350  -28.3400  -40.0060 O.co2     1 AMP402      0.0000 
      3 O2P        31.6670  -27.8880  -38.9860 O.co2     1 AMP402      0.0000 
      4 O3P        33.7440  -27.6860  -37.6620 O.co2     1 AMP402      0.0000 
      5 O5'        33.0480  -29.8480  -38.6190 O.3       1 AMP402      0.0000 
      6 C5'        31.7530  -30.3590  -38.3910 C.3       1 AMP402      0.0000 
      7 C4'        31.8430  -31.8490  -38.4700 C.3       1 AMP402      0.0000 
      8 O4'        30.7890  -32.3910  -37.7070 O.3       1 AMP402      0.0000 
      9 C3'        31.5920  -32.3310  -39.8580 C.3       1 AMP402      0.0000 
     10 O3'        32.1750  -33.6360  -39.9000 O.3       1 AMP402      0.0000 
     11 C2'        30.0830  -32.3850  -39.9620 C.3       1 AMP402      0.0000 
     12 O2'        29.6640  -33.4860  -40.7460 O.3       1 AMP402      0.0000 
     13 C1'        29.6490  -32.6520  -38.5360 C.3       1 AMP402      0.0000 
     14 N9         28.5380  -31.8790  -37.9080 N.pl3     1 AMP402      0.0000 
     15 C8         28.4690  -30.5610  -37.5670 C.2       1 AMP402      0.0000 
     16 N7         27.2960  -30.2560  -36.9460 N.2       1 AMP402      0.0000 
     17 C5         26.6240  -31.4150  -36.8470 C.ar      1 AMP402      0.0000 
     18 C6         25.3410  -31.8310  -36.2920 C.ar      1 AMP402      0.0000 
     19 N6         24.5290  -30.9420  -35.7080 N.pl3     1 AMP402      0.0000 
     20 N1         25.0020  -33.1190  -36.4050 N.ar      1 AMP402      0.0000 
     21 C2         25.7880  -34.0520  -36.9990 C.ar      1 AMP402      0.0000 
     22 N3         26.9780  -33.7540  -37.5240 N.ar      1 AMP402      0.0000 
     23 C4         27.4330  -32.4790  -37.4700 C.ar      1 AMP402      0.0000 
@<TRIPOS>BOND
     1    1    2 ar   
     2    1    3 ar   
     3    1    4 ar   
     4    1    5 1    
     5    5    6 1    
     6    6    7 1    
     7    7    8 1    
     8    7    9 1    
     9    8   13 1    
    10    9   10 1    
    11    9   11 1    
    12   11   12 1    
    13   11   13 1    
    14   13   14 1    
    15   14   15 1    
    16   14   23 1    
    17   15   16 2    
    18   16   17 1    
    19   17   18 ar   
    20   17   23 ar   
    21   18   19 1    
    22   18   20 ar   
    23   20   21 ar   
    24   21   22 ar   
    25   22   23 ar   
@<TRIPOS>SUBSTRUCTURE
     1 AMP402      1 GROUP   
@<TRIPOS>SET
ATOM$ORANGE STATIC     ATOMS   COLORGROUP SYSTEM 
20 6 6 7 7 9 9 11 11 13 13 15 15 17 17 18 18 21 \
21 23 23 

