#    Name: 5yfv_1_AMP
#    Modification time : Fri May 22 19:13:14 2020

@<TRIPOS>MOLECULE
5yfv_1_AMP
   23    25     1     0     1
SMALL
NO_CHARGES


@<TRIPOS>ATOM
      1 P          51.2250  -38.7560  -34.1990 P.3       1 AMP402      0.0000 
      2 O1P        50.9340  -37.7480  -35.3130 O.co2     1 AMP402      0.0000 
      3 O2P        52.6170  -39.3320  -33.8860 O.co2     1 AMP402      0.0000 
      4 O3P        50.3580  -38.3690  -33.0120 O.co2     1 AMP402      0.0000 
      5 O5'        50.6420  -40.0860  -34.8690 O.3       1 AMP402      0.0000 
      6 C5'        50.8310  -41.3480  -34.2830 C.3       1 AMP402      0.0000 
      7 C4'        49.8210  -42.2310  -34.9400 C.3       1 AMP402      0.0000 
      8 O4'        50.2310  -43.5430  -34.6830 O.3       1 AMP402      0.0000 
      9 C3'        48.4560  -42.0910  -34.2990 C.3       1 AMP402      0.0000 
     10 O3'        47.4380  -42.4750  -35.2370 O.3       1 AMP402      0.0000 
     11 C2'        48.4910  -43.0290  -33.0990 C.3       1 AMP402      0.0000 
     12 O2'        47.1970  -43.5510  -32.7980 O.3       1 AMP402      0.0000 
     13 C1'        49.4170  -44.0950  -33.6160 C.3       1 AMP402      0.0000 
     14 N9         50.4630  -44.6580  -32.7720 N.pl3     1 AMP402      0.0000 
     15 C8         51.6050  -44.0700  -32.3880 C.2       1 AMP402      0.0000 
     16 N7         52.3890  -44.9250  -31.7300 N.2       1 AMP402      0.0000 
     17 C5         51.7580  -46.0970  -31.7370 C.ar      1 AMP402      0.0000 
     18 C6         52.0320  -47.4310  -31.2320 C.ar      1 AMP402      0.0000 
     19 N6         53.1530  -47.6730  -30.5790 N.pl3     1 AMP402      0.0000 
     20 N1         51.1320  -48.4090  -31.4700 N.ar      1 AMP402      0.0000 
     21 C2         49.9760  -48.2000  -32.1410 C.ar      1 AMP402      0.0000 
     22 N3         49.6490  -46.9840  -32.6380 N.ar      1 AMP402      0.0000 
     23 C4         50.4970  -45.9300  -32.4600 C.ar      1 AMP402      0.0000 
@<TRIPOS>BOND
     1    1    2 ar   
     2    1    3 ar   
     3    1    4 ar   
     4    1    5 1    
     5    5    6 1    
     6    6    7 1    
     7    7    8 1    
     8    7    9 1    
     9    8   13 1    
    10    9   10 1    
    11    9   11 1    
    12   11   12 1    
    13   11   13 1    
    14   13   14 1    
    15   14   15 1    
    16   14   23 1    
    17   15   16 2    
    18   16   17 1    
    19   17   18 ar   
    20   17   23 ar   
    21   18   19 1    
    22   18   20 ar   
    23   20   21 ar   
    24   21   22 ar   
    25   22   23 ar   
@<TRIPOS>SUBSTRUCTURE
     1 AMP402      1 GROUP   
@<TRIPOS>SET
ATOM$ORANGE STATIC     ATOMS   COLORGROUP SYSTEM 
20 6 6 7 7 9 9 11 11 13 13 15 15 17 17 18 18 21 \
21 23 23 

