#    Name: 5yfv_2_AMP
#    Modification time : Fri May 22 19:13:25 2020

@<TRIPOS>MOLECULE
5yfv_2_AMP
   23    25     1     0     1
SMALL
NO_CHARGES


@<TRIPOS>ATOM
      1 P          46.0460  -35.7100  -54.6690 P.3       1 AMP402      0.0000 
      2 O1P        46.0560  -35.8830  -56.1830 O.co2     1 AMP402      0.0000 
      3 O2P        47.2510  -36.1070  -53.8070 O.co2     1 AMP402      0.0000 
      4 O3P        45.4370  -34.4250  -54.1820 O.co2     1 AMP402      0.0000 
      5 O5'        44.9450  -36.8120  -54.3030 O.3       1 AMP402      0.0000 
      6 C5'        44.3000  -37.5870  -55.2720 C.3       1 AMP402      0.0000 
      7 C4'        43.4510  -38.5640  -54.5220 C.3       1 AMP402      0.0000 
      8 O4'        42.6100  -39.2400  -55.4440 O.3       1 AMP402      0.0000 
      9 C3'        44.2710  -39.6610  -53.8860 C.3       1 AMP402      0.0000 
     10 O3'        43.4490  -40.2250  -52.8540 O.3       1 AMP402      0.0000 
     11 C2'        44.4780  -40.6940  -54.9740 C.3       1 AMP402      0.0000 
     12 O2'        44.5390  -42.0300  -54.4890 O.3       1 AMP402      0.0000 
     13 C1'        43.2250  -40.5070  -55.8110 C.3       1 AMP402      0.0000 
     14 N9         43.3850  -40.4160  -57.2900 N.pl3     1 AMP402      0.0000 
     15 C8         43.9750  -39.4510  -58.0480 C.2       1 AMP402      0.0000 
     16 N7         43.8600  -39.6980  -59.3640 N.2       1 AMP402      0.0000 
     17 C5         43.1560  -40.8390  -59.4680 C.ar      1 AMP402      0.0000 
     18 C6         42.6530  -41.6660  -60.5700 C.ar      1 AMP402      0.0000 
     19 N6         42.8640  -41.3420  -61.8480 N.pl3     1 AMP402      0.0000 
     20 N1         41.9610  -42.7650  -60.2530 N.ar      1 AMP402      0.0000 
     21 C2         41.7230  -43.1240  -58.9730 C.ar      1 AMP402      0.0000 
     22 N3         42.1350  -42.4280  -57.8970 N.ar      1 AMP402      0.0000 
     23 C4         42.8390  -41.2990  -58.1040 C.ar      1 AMP402      0.0000 
@<TRIPOS>BOND
     1    1    2 ar   
     2    1    3 ar   
     3    1    4 ar   
     4    1    5 1    
     5    5    6 1    
     6    6    7 1    
     7    7    8 1    
     8    7    9 1    
     9    8   13 1    
    10    9   10 1    
    11    9   11 1    
    12   11   12 1    
    13   11   13 1    
    14   13   14 1    
    15   14   15 1    
    16   14   23 1    
    17   15   16 2    
    18   16   17 1    
    19   17   18 ar   
    20   17   23 ar   
    21   18   19 1    
    22   18   20 ar   
    23   20   21 ar   
    24   21   22 ar   
    25   22   23 ar   
@<TRIPOS>SUBSTRUCTURE
     1 AMP402      1 GROUP   
@<TRIPOS>SET
ATOM$ORANGE STATIC     ATOMS   COLORGROUP SYSTEM 
20 6 6 7 7 9 9 11 11 13 13 15 15 17 17 18 18 21 \
21 23 23 

