#    Name: 6ale_1_1KP
#    Modification time : Fri May 22 19:32:58 2020

@<TRIPOS>MOLECULE
6ale_1_1KP
   14    15     1     0     0
SMALL
NO_CHARGES


@<TRIPOS>ATOM
      1 CL1        -0.5780   -3.6940   14.4440 Cl        1 1KP504      0.0000 
      2 C4         -1.4530   -2.3140   15.1990 C.ar      1 1KP504      0.0000 
      3 C3         -0.8990   -1.0300   15.2290 C.ar      1 1KP504      0.0000 
      4 C2         -1.5470    0.0640   15.8140 C.ar      1 1KP504      0.0000 
      5 C5         -2.7860   -2.5540   15.8070 C.ar      1 1KP504      0.0000 
      6 CL         -3.4760   -4.2050   15.7680 Cl        1 1KP504      0.0000 
      7 C6         -3.5080   -1.4130   16.4370 C.ar      1 1KP504      0.0000 
      8 C1         -2.8000   -0.0940   16.3980 C.ar      1 1KP504      0.0000 
      9 N1         -4.7140   -1.2960   17.0680 N.am      1 1KP504      0.0000 
     10 C7         -4.8880   -0.0170   17.4560 C.2       1 1KP504      0.0000 
     11 O1         -5.9300    0.4140   18.0750 O.2       1 1KP504      0.0000 
     12 C          -3.7370    0.8180   17.0820 C.2       1 1KP504      0.0000 
     13 N          -3.5790    2.1550   17.3240 N.2       1 1KP504      0.0000 
     14 O          -4.5670    2.8830   17.9820 O.3       1 1KP504      0.0000 
@<TRIPOS>BOND
     1    1    2 1    
     2    2    3 ar   
     3    2    5 ar   
     4    3    4 ar   
     5    4    8 ar   
     6    5    6 1    
     7    5    7 ar   
     8    7    8 ar   
     9    7    9 1    
    10    8   12 1    
    11    9   10 am   
    12   10   11 2    
    13   10   12 1    
    14   12   13 2    
    15   13   14 1    
@<TRIPOS>SUBSTRUCTURE
     1 1KP504      1 GROUP   
@<TRIPOS>SET

