#    Name: 5ux7_2_UDX
#    Modification time : Fri May 22 19:12:44 2020

@<TRIPOS>MOLECULE
5ux7_2_UDX
   34    36     1     0     0
SMALL
NO_CHARGES


@<TRIPOS>ATOM
      1 C1'       -73.0650  -45.6170  -33.7400 C.3       1 UDX801      0.0000 
      2 C2'       -73.9100  -45.4700  -35.0050 C.3       1 UDX801      0.0000 
      3 O2'       -74.0320  -46.7220  -35.6950 O.3       1 UDX801      0.0000 
      4 C3'       -73.3020  -44.3810  -35.9000 C.3       1 UDX801      0.0000 
      5 O3'       -74.1890  -44.0530  -36.9750 O.3       1 UDX801      0.0000 
      6 C4'       -72.9780  -43.0880  -35.1330 C.3       1 UDX801      0.0000 
      7 O4'       -71.8180  -42.4790  -35.7270 O.3       1 UDX801      0.0000 
      8 C5'       -72.7060  -43.2470  -33.6300 C.3       1 UDX801      0.0000 
      9 O5'       -73.2900  -44.4020  -33.0190 O.3       1 UDX801      0.0000 
     10 PB        -70.4670  -46.1360  -33.0180 P.3       1 UDX801      0.0000 
     11 O1B       -69.4280  -46.9890  -33.7210 O.co2     1 UDX801      0.0000 
     12 O2B       -70.0190  -44.8630  -32.3170 O.co2     1 UDX801      0.0000 
     13 O3B       -71.6710  -45.8160  -34.0610 O.3       1 UDX801      0.0000 
     14 O3A       -71.1690  -47.1030  -31.9480 O.3       1 UDX801      0.0000 
     15 PA        -71.4670  -46.6320  -30.4350 P.3       1 UDX801      0.0000 
     16 O1A       -72.1390  -45.2720  -30.4190 O.co2     1 UDX801      0.0000 
     17 O2A       -72.1920  -47.8120  -29.8400 O.co2     1 UDX801      0.0000 
     18 O5D       -70.0140  -46.4330  -29.7450 O.3       1 UDX801      0.0000 
     19 C5D       -68.8480  -47.2360  -29.9690 C.3       1 UDX801      0.0000 
     20 C4D       -67.6530  -46.4290  -29.4730 C.3       1 UDX801      0.0000 
     21 O4D       -67.7470  -46.2800  -28.0550 O.3       1 UDX801      0.0000 
     22 C3D       -66.2880  -47.0560  -29.7500 C.3       1 UDX801      0.0000 
     23 O3D       -65.5130  -46.1330  -30.5190 O.3       1 UDX801      0.0000 
     24 C2D       -65.6620  -47.3060  -28.3810 C.3       1 UDX801      0.0000 
     25 O2D       -64.2690  -46.9790  -28.2990 O.3       1 UDX801      0.0000 
     26 C1D       -66.4340  -46.3590  -27.4910 C.3       1 UDX801      0.0000 
     27 N1        -66.4830  -46.7610  -26.0770 N.am      1 UDX801      0.0000 
     28 C6        -67.1530  -47.8740  -25.7300 C.2       1 UDX801      0.0000 
     29 C2        -65.8550  -45.9750  -25.0640 C.2       1 UDX801      0.0000 
     30 O2        -65.2260  -44.9280  -25.3440 O.2       1 UDX801      0.0000 
     31 N3        -65.9220  -46.3520  -23.7720 N.am      1 UDX801      0.0000 
     32 C4        -66.5810  -47.4730  -23.4110 C.2       1 UDX801      0.0000 
     33 O4        -66.6410  -47.8150  -22.2000 O.2       1 UDX801      0.0000 
     34 C5        -67.2190  -48.2510  -24.3880 C.2       1 UDX801      0.0000 
@<TRIPOS>BOND
     1    1    2 1    
     2    1    9 1    
     3    1   13 1    
     4    2    3 1    
     5    2    4 1    
     6    4    5 1    
     7    4    6 1    
     8    6    7 1    
     9    6    8 1    
    10    8    9 1    
    11   10   11 ar   
    12   10   12 ar   
    13   10   13 1    
    14   10   14 1    
    15   14   15 1    
    16   15   16 ar   
    17   15   17 ar   
    18   15   18 1    
    19   18   19 1    
    20   19   20 1    
    21   20   21 1    
    22   20   22 1    
    23   21   26 1    
    24   22   23 1    
    25   22   24 1    
    26   24   25 1    
    27   24   26 1    
    28   26   27 1    
    29   27   28 1    
    30   27   29 1    
    31   28   34 2    
    32   29   30 2    
    33   29   31 1    
    34   31   32 1    
    35   32   33 2    
    36   32   34 1    
@<TRIPOS>SUBSTRUCTURE
     1 UDX801      1 GROUP   
@<TRIPOS>SET

