#    Name: 5ux7_1_UDX
#    Modification time : Fri May 22 19:12:33 2020

@<TRIPOS>MOLECULE
5ux7_1_UDX
   34    36     1     0     0
SMALL
NO_CHARGES


@<TRIPOS>ATOM
      1 C1'       -18.3180  -82.9720  -24.2650 C.3       1 UDX801      0.0000 
      2 C2'       -17.8210  -83.9210  -25.3640 C.3       1 UDX801      0.0000 
      3 O2'       -17.6660  -83.2450  -26.6130 O.3       1 UDX801      0.0000 
      4 C3'       -18.8000  -85.0800  -25.4800 C.3       1 UDX801      0.0000 
      5 O3'       -18.4600  -85.8980  -26.6090 O.3       1 UDX801      0.0000 
      6 C4'       -18.7750  -85.8490  -24.1530 C.3       1 UDX801      0.0000 
      7 O4'       -19.7400  -86.9100  -24.1570 O.3       1 UDX801      0.0000 
      8 C5'       -19.0700  -84.9120  -22.9760 C.3       1 UDX801      0.0000 
      9 O5'       -18.2740  -83.7160  -23.0280 O.3       1 UDX801      0.0000 
     10 PB        -20.1410  -80.9570  -24.1670 P.3       1 UDX801      0.0000 
     11 O1B       -19.0100  -80.0010  -23.8470 O.co2     1 UDX801      0.0000 
     12 O2B       -21.1540  -80.5360  -25.2160 O.co2     1 UDX801      0.0000 
     13 O3B       -19.6290  -82.4540  -24.5370 O.3       1 UDX801      0.0000 
     14 O3A       -20.9110  -81.2800  -22.7900 O.3       1 UDX801      0.0000 
     15 PA        -20.1780  -81.3130  -21.3470 P.3       1 UDX801      0.0000 
     16 O1A       -20.9310  -82.2990  -20.4790 O.co2     1 UDX801      0.0000 
     17 O2A       -18.6840  -81.4680  -21.4900 O.co2     1 UDX801      0.0000 
     18 O5D       -20.3950  -79.8180  -20.7750 O.3       1 UDX801      0.0000 
     19 C5D       -21.4770  -78.9740  -21.1680 C.3       1 UDX801      0.0000 
     20 C4D       -22.7220  -79.3630  -20.3920 C.3       1 UDX801      0.0000 
     21 O4D       -22.5310  -78.9340  -19.0420 O.3       1 UDX801      0.0000 
     22 C3D       -23.9870  -78.7100  -20.9410 C.3       1 UDX801      0.0000 
     23 O3D       -24.8530  -79.6830  -21.5450 O.3       1 UDX801      0.0000 
     24 C2D       -24.6250  -78.0180  -19.7450 C.3       1 UDX801      0.0000 
     25 O2D       -25.9510  -78.4950  -19.4670 O.3       1 UDX801      0.0000 
     26 C1D       -23.6980  -78.2760  -18.5550 C.3       1 UDX801      0.0000 
     27 N1        -23.3260  -77.0230  -17.8780 N.am      1 UDX801      0.0000 
     28 C6        -22.5360  -76.1170  -18.4930 C.2       1 UDX801      0.0000 
     29 C2        -23.7960  -76.7480  -16.5630 C.2       1 UDX801      0.0000 
     30 O2        -24.5260  -77.5640  -15.9590 O.2       1 UDX801      0.0000 
     31 N3        -23.4650  -75.6000  -15.9350 N.am      1 UDX801      0.0000 
     32 C4        -22.6880  -74.6810  -16.5400 C.2       1 UDX801      0.0000 
     33 O4        -22.3890  -73.6250  -15.9320 O.2       1 UDX801      0.0000 
     34 C5        -22.1980  -74.9260  -17.8350 C.2       1 UDX801      0.0000 
@<TRIPOS>BOND
     1    1    2 1    
     2    1    9 1    
     3    1   13 1    
     4    2    3 1    
     5    2    4 1    
     6    4    5 1    
     7    4    6 1    
     8    6    7 1    
     9    6    8 1    
    10    8    9 1    
    11   10   11 ar   
    12   10   12 ar   
    13   10   13 1    
    14   10   14 1    
    15   14   15 1    
    16   15   16 ar   
    17   15   17 ar   
    18   15   18 1    
    19   18   19 1    
    20   19   20 1    
    21   20   21 1    
    22   20   22 1    
    23   21   26 1    
    24   22   23 1    
    25   22   24 1    
    26   24   25 1    
    27   24   26 1    
    28   26   27 1    
    29   27   28 1    
    30   27   29 1    
    31   28   34 2    
    32   29   30 2    
    33   29   31 1    
    34   31   32 1    
    35   32   33 2    
    36   32   34 1    
@<TRIPOS>SUBSTRUCTURE
     1 UDX801      1 GROUP   
@<TRIPOS>SET

