#    Name: 5ux7_1_UDX_CAVITY_N1_12
#    Modification time : Fri May 22 19:12:35 2020

@<TRIPOS>MOLECULE
5ux7_1_UDX_CAVITY_N1_12
   98     0     7     0     0
SMALL
NO_CHARGES


@<TRIPOS>ATOM
      1 OG        -20.4000  -88.1800  -25.4500 O.3       1 SER1        0.0000 
      2 OG        -20.8700  -80.7500  -23.6800 O.3       1 SER1        0.0000 
      3 OG        -20.0500  -80.1400  -24.7800 O.3       1 SER1        0.0000 
      4 OG        -20.0400  -80.0400  -22.6600 O.3       1 SER1        0.0000 
      5 OG        -19.2200  -79.4200  -23.7500 O.3       1 SER1        0.0000 
      6 N         -19.5800  -87.5600  -26.5500 N.am      2 ALA2        0.0000 
      7 O         -20.6400  -84.6200  -27.7500 O.2       2 ALA2        0.0000 
      8 O         -19.7000  -85.7800  -27.6900 O.2       2 ALA2        0.0000 
      9 O         -20.2700  -89.8600  -22.1900 O.2       2 ALA2        0.0000 
     10 O         -20.3900  -88.0800  -23.3400 O.2       2 ALA2        0.0000 
     11 O         -19.4500  -89.2400  -23.2800 O.2       2 ALA2        0.0000 
     12 O         -20.7600  -82.7400  -26.7700 O.2       2 ALA2        0.0000 
     13 O         -19.8100  -83.9000  -26.7200 O.2       2 ALA2        0.0000 
     14 O         -20.5100  -86.2000  -22.3600 O.2       2 ALA2        0.0000 
     15 O         -19.5600  -87.3600  -22.3100 O.2       2 ALA2        0.0000 
     16 O         -18.6200  -88.5300  -22.2600 O.2       2 ALA2        0.0000 
     17 O         -20.8700  -80.8500  -25.8000 O.2       2 ALA2        0.0000 
     18 O         -21.4400  -84.9300  -20.3000 O.2       2 ALA2        0.0000 
     19 O         -20.5000  -86.1000  -20.2400 O.2       2 ALA2        0.0000 
     20 O         -19.5600  -87.2600  -20.1900 O.2       2 ALA2        0.0000 
     21 O         -19.6800  -85.4800  -21.3400 O.2       2 ALA2        0.0000 
     22 O         -18.7400  -86.6500  -21.2800 O.2       2 ALA2        0.0000 
     23 O         -20.0300  -79.9400  -20.5400 O.2       2 ALA2        0.0000 
     24 O         -19.2100  -79.3200  -21.6300 O.2       2 ALA2        0.0000 
     25 O         -18.2700  -80.4900  -21.5800 O.2       2 ALA2        0.0000 
     26 O         -17.4500  -79.8700  -22.6700 O.2       2 ALA2        0.0000 
     27 OD1       -19.5700  -87.4600  -24.4300 O.co2     3 ASP3        0.0000 
     28 OD1       -18.6300  -88.6300  -24.3800 O.co2     3 ASP3        0.0000 
     29 OD1       -17.6800  -89.7900  -24.3200 O.co2     3 ASP3        0.0000 
     30 OD1       -18.7500  -86.8500  -25.5200 O.co2     3 ASP3        0.0000 
     31 OD1       -18.7400  -86.7500  -23.4000 O.co2     3 ASP3        0.0000 
     32 OD1       -17.8000  -87.9100  -23.3500 O.co2     3 ASP3        0.0000 
     33 OD1       -16.8600  -89.0800  -23.3000 O.co2     3 ASP3        0.0000 
     34 OD1       -15.9100  -90.2400  -23.2500 O.co2     3 ASP3        0.0000 
     35 OD1       -18.8600  -84.9700  -24.5500 O.co2     3 ASP3        0.0000 
     36 OD1       -17.9200  -86.1300  -24.5000 O.co2     3 ASP3        0.0000 
     37 OD1       -19.9300  -82.0200  -25.7500 O.co2     3 ASP3        0.0000 
     38 OD1       -18.9900  -83.1800  -25.7000 O.co2     3 ASP3        0.0000 
     39 OD1       -18.0400  -84.3500  -25.6400 O.co2     3 ASP3        0.0000 
     40 OD1       -18.8600  -84.8600  -22.4300 O.co2     3 ASP3        0.0000 
     41 OD1       -17.9100  -86.0300  -22.3800 O.co2     3 ASP3        0.0000 
     42 OD1       -18.9800  -83.0800  -23.5800 O.co2     3 ASP3        0.0000 
     43 OD1       -18.0400  -84.2500  -23.5200 O.co2     3 ASP3        0.0000 
     44 OD1       -17.0900  -85.4100  -23.4700 O.co2     3 ASP3        0.0000 
     45 OD1       -15.2100  -87.7400  -23.3700 O.co2     3 ASP3        0.0000 
     46 OD1       -19.1000  -81.3000  -24.7200 O.co2     3 ASP3        0.0000 
     47 OD1       -18.1600  -82.4700  -24.6700 O.co2     3 ASP3        0.0000 
     48 OD1       -18.8500  -84.7600  -20.3100 O.co2     3 ASP3        0.0000 
     49 OD1       -18.9700  -82.9800  -21.4600 O.co2     3 ASP3        0.0000 
     50 OD1       -18.0300  -84.1500  -21.4100 O.co2     3 ASP3        0.0000 
     51 OD1       -18.1500  -82.3700  -22.5500 O.co2     3 ASP3        0.0000 
     52 OD1       -18.9700  -82.8800  -19.3400 O.co2     3 ASP3        0.0000 
     53 OD1       -18.1500  -82.2700  -20.4300 O.co2     3 ASP3        0.0000 
     54 NZ        -17.5600  -91.5700  -23.1800 N.4       4 LYS4        0.0000 
     55 NZ        -16.7400  -90.9600  -24.2700 N.4       4 LYS4        0.0000 
     56 NZ        -18.3800  -92.0900  -19.9700 N.4       4 LYS4        0.0000 
     57 CZ        -20.5200  -86.4000  -26.6000 C.ar      5 PHE5        0.0000 
     58 CZ        -21.3400  -86.9100  -23.3900 C.ar      5 PHE5        0.0000 
     59 CZ        -20.5100  -86.3000  -24.4800 C.ar      5 PHE5        0.0000 
     60 CZ        -20.6400  -84.5200  -25.6300 C.ar      5 PHE5        0.0000 
     61 CZ        -19.6900  -85.6800  -25.5800 C.ar      5 PHE5        0.0000 
     62 CZ        -21.4500  -85.0300  -22.4100 C.ar      5 PHE5        0.0000 
     63 CZ        -20.6300  -84.4200  -23.5100 C.ar      5 PHE5        0.0000 
     64 CZ        -19.6900  -85.5800  -23.4600 C.ar      5 PHE5        0.0000 
     65 CZ        -21.6900  -81.4700  -24.7100 C.ar      5 PHE5        0.0000 
     66 CZ        -20.7500  -82.6400  -24.6500 C.ar      5 PHE5        0.0000 
     67 CZ        -19.8100  -83.8000  -24.6000 C.ar      5 PHE5        0.0000 
     68 CZ        -20.7400  -82.5300  -22.5400 C.ar      5 PHE5        0.0000 
     69 CA        -20.2800  -89.9600  -24.3100 C.3       6 GLY6        0.0000 
     70 CA        -19.3300  -91.1300  -24.2600 C.3       6 GLY6        0.0000 
     71 CA        -19.4500  -89.3400  -25.4000 C.3       6 GLY6        0.0000 
     72 CA        -19.3300  -91.0200  -22.1400 C.3       6 GLY6        0.0000 
     73 CA        -18.3800  -92.1900  -22.0800 C.3       6 GLY6        0.0000 
     74 CA        -18.8700  -85.0700  -26.6700 C.3       6 GLY6        0.0000 
     75 CA        -18.9900  -83.2800  -27.8100 C.3       6 GLY6        0.0000 
     76 CA        -18.0500  -84.4500  -27.7600 C.3       6 GLY6        0.0000 
     77 CA        -19.3200  -90.9200  -20.0200 C.3       6 GLY6        0.0000 
     78 CA        -19.4400  -89.1400  -21.1600 C.3       6 GLY6        0.0000 
     79 CA        -18.5000  -90.3100  -21.1100 C.3       6 GLY6        0.0000 
     80 CA        -18.4900  -90.2100  -18.9900 C.3       6 GLY6        0.0000 
     81 CA        -21.6900  -81.3700  -22.5900 C.3       6 GLY6        0.0000 
     82 CA        -18.2700  -80.5900  -23.7000 C.3       6 GLY6        0.0000 
     83 CA        -19.0900  -81.1000  -20.4800 C.3       6 GLY6        0.0000 
     84 CA        -20.1500  -78.1600  -21.6800 C.3       6 GLY6        0.0000 
     85 CA        -18.3900  -78.7000  -22.7200 C.3       6 GLY6        0.0000 
     86 CA        -18.2600  -80.3900  -19.4600 C.3       6 GLY6        0.0000 
     87 DU        -18.5000  -90.4100  -23.2300 H         7 CUB7        0.0000 
     88 DU        -17.5500  -91.4700  -21.0600 H         7 CUB7        0.0000 
     89 DU        -17.6800  -89.6900  -22.2100 H         7 CUB7        0.0000 
     90 DU        -16.7300  -90.8600  -22.1500 H         7 CUB7        0.0000 
     91 DU        -21.5700  -83.1500  -21.4400 H         7 CUB7        0.0000 
     92 DU        -20.6200  -84.3200  -21.3900 H         7 CUB7        0.0000 
     93 DU        -19.8000  -83.7000  -22.4800 H         7 CUB7        0.0000 
     94 DU        -19.9200  -81.9200  -23.6300 H         7 CUB7        0.0000 
     95 DU        -19.8000  -83.6000  -20.3600 H         7 CUB7        0.0000 
     96 DU        -20.8600  -80.6500  -21.5600 H         7 CUB7        0.0000 
     97 DU        -19.9200  -81.8200  -21.5100 H         7 CUB7        0.0000 
     98 DU        -19.1000  -81.2000  -22.6000 H         7 CUB7        0.0000 
@<TRIPOS>BOND
@<TRIPOS>SUBSTRUCTURE
     1 SER1        1 GROUP   
     2 ALA2        6 GROUP   
     3 ASP3       27 GROUP   
     4 LYS4       54 GROUP   
     5 PHE5       57 GROUP   
     6 GLY6       69 GROUP   
     7 CUB7       87 GROUP   
@<TRIPOS>SET

