#    Name: 6do5_2_ILE_GLY_LEU_LEU_GLY_GLY_CAVITY_N1_8
#    Modification time : Fri May 22 19:24:21 2020

@<TRIPOS>MOLECULE
6do5_2_ILE_GLY_LEU_LEU_GLY_GLY_CAVITY_N1_8
   89     0     7     0     0
SMALL
NO_CHARGES


@<TRIPOS>ATOM
      1 OG        223.8900   -0.0400   92.9900 O.3       1 SER1        0.0000 
      2 OG        224.2800   -1.2200   94.7000 O.3       1 SER1        0.0000 
      3 OG        224.0800    0.2400   94.4500 O.3       1 SER1        0.0000 
      4 OG        223.0000   -1.1000   96.3900 O.3       1 SER1        0.0000 
      5 OG        222.8100    0.3700   96.1400 O.3       1 SER1        0.0000 
      6 OG        224.2800    0.5200   95.9100 O.3       1 SER1        0.0000 
      7 OG        223.2000   -0.8200   97.8500 O.3       1 SER1        0.0000 
      8 OG        223.0000    0.6500   97.6000 O.3       1 SER1        0.0000 
      9 OG        222.8100    2.1100   97.3400 O.3       1 SER1        0.0000 
     10 OG        226.3400   -0.2200   98.8600 O.3       1 SER1        0.0000 
     11 OG        225.7600    7.6600  100.5000 O.3       1 SER1        0.0000 
     12 O         222.1200    6.5700  105.8200 O.2       2 ALA2        0.0000 
     13 OD1       224.2800    4.0200   98.3200 O.co2     3 ASP3        0.0000 
     14 OD1       223.2000    2.6700  100.2600 O.co2     3 ASP3        0.0000 
     15 OD1       223.0100    4.1400  100.0100 O.co2     3 ASP3        0.0000 
     16 OD1       222.8100    5.6100   99.7500 O.co2     3 ASP3        0.0000 
     17 OD1       224.2800    5.7600   99.5200 O.co2     3 ASP3        0.0000 
     18 OD1       225.7600    5.9200   99.3000 O.co2     3 ASP3        0.0000 
     19 OD1       225.5600    7.3800   99.0400 O.co2     3 ASP3        0.0000 
     20 OD1       223.4000    2.9600  101.7200 O.co2     3 ASP3        0.0000 
     21 OD1       223.2000    4.4200  101.4700 O.co2     3 ASP3        0.0000 
     22 OD1       223.0100    5.8900  101.2100 O.co2     3 ASP3        0.0000 
     23 OD1       223.2000    6.1700  102.6700 O.co2     3 ASP3        0.0000 
     24 OD1       224.8700    6.6000  103.9000 O.co2     3 ASP3        0.0000 
     25 OD1       223.7900    5.2600  105.8500 O.co2     3 ASP3        0.0000 
     26 OD1       225.2700    5.4200  105.6200 O.co2     3 ASP3        0.0000 
     27 OD1       223.6000    6.7300  105.5900 O.co2     3 ASP3        0.0000 
     28 NZ        222.8100    3.8600   98.5500 N.4       4 LYS4        0.0000 
     29 NZ        227.4300    8.1000  101.7300 N.4       4 LYS4        0.0000 
     30 CZ        224.0800   -1.5000   93.2400 C.ar      5 PHE5        0.0000 
     31 CZ        224.4800   -2.6900   94.9600 C.ar      5 PHE5        0.0000 
     32 CZ        225.9500   -2.5300   94.7300 C.ar      5 PHE5        0.0000 
     33 CZ        222.8100   -1.3800   94.9300 C.ar      5 PHE5        0.0000 
     34 CZ        226.1500   -2.2500   96.1900 C.ar      5 PHE5        0.0000 
     35 CZ        224.4800   -0.9400   96.1600 C.ar      5 PHE5        0.0000 
     36 CZ        224.0900    1.9900   95.6500 C.ar      5 PHE5        0.0000 
     37 CZ        224.6700   -0.6600   97.6200 C.ar      5 PHE5        0.0000 
     38 CZ        226.1500   -0.5000   97.4000 C.ar      5 PHE5        0.0000 
     39 CZ        224.8700   -0.3800   99.0900 C.ar      5 PHE5        0.0000 
     40 CZ        223.2000    0.9300   99.0600 C.ar      5 PHE5        0.0000 
     41 CZ        224.8700    1.3700  100.2900 C.ar      5 PHE5        0.0000 
     42 CZ        223.5900    1.4900  101.9800 C.ar      5 PHE5        0.0000 
     43 CZ        225.0700    1.6500  101.7500 C.ar      5 PHE5        0.0000 
     44 CZ        224.8700    3.1100  101.4900 C.ar      5 PHE5        0.0000 
     45 CZ        224.4800    6.0400  100.9800 C.ar      5 PHE5        0.0000 
     46 CZ        223.5900    3.2400  103.1800 C.ar      5 PHE5        0.0000 
     47 CZ        225.0700    3.3900  102.9600 C.ar      5 PHE5        0.0000 
     48 CZ        224.6800    6.3200  102.4400 C.ar      5 PHE5        0.0000 
     49 CZ        224.4800    7.7900  102.1900 C.ar      5 PHE5        0.0000 
     50 CZ        226.7400    3.8300  104.1900 C.ar      5 PHE5        0.0000 
     51 CZ        225.0700    5.1400  104.1600 C.ar      5 PHE5        0.0000 
     52 CZ        223.9900    3.8000  106.1000 C.ar      5 PHE5        0.0000 
     53 CA        224.2800   -2.9700   93.5000 C.3       6 GLY6        0.0000 
     54 CA        225.7500   -2.8100   93.2700 C.3       6 GLY6        0.0000 
     55 CA        226.5400    0.0600  100.3200 C.3       6 GLY6        0.0000 
     56 CA        228.0100    0.2200  100.0900 C.3       6 GLY6        0.0000 
     57 CA        226.5400    1.8000  101.5200 C.3       6 GLY6        0.0000 
     58 CA        228.0200    1.9600  101.2900 C.3       6 GLY6        0.0000 
     59 CA        226.3500    3.2700  101.2700 C.3       6 GLY6        0.0000 
     60 CA        227.8200    3.4300  101.0400 C.3       6 GLY6        0.0000 
     61 CA        226.5400    3.5500  102.7300 C.3       6 GLY6        0.0000 
     62 CA        223.4000    4.7000  102.9300 C.3       6 GLY6        0.0000 
     63 CA        223.6000    4.9800  104.3900 C.3       6 GLY6        0.0000 
     64 CA        223.4000    6.4500  104.1300 C.3       6 GLY6        0.0000 
     65 CA        222.5100    3.6400  106.3300 C.3       6 GLY6        0.0000 
     66 CA        222.3200    5.1100  106.0800 C.3       6 GLY6        0.0000 
     67 DU        227.4200   -2.3700   94.5000 H         7 CUB7        0.0000 
     68 DU        225.7500   -1.0600   94.4800 H         7 CUB7        0.0000 
     69 DU        225.9500   -0.7800   95.9400 H         7 CUB7        0.0000 
     70 DU        227.6200   -0.3500   97.1700 H         7 CUB7        0.0000 
     71 DU        224.4800    0.8100   97.3700 H         7 CUB7        0.0000 
     72 DU        224.2800    2.2700   97.1100 H         7 CUB7        0.0000 
     73 DU        227.8200   -0.0700   98.6300 H         7 CUB7        0.0000 
     74 DU        224.6700    1.0900   98.8300 H         7 CUB7        0.0000 
     75 DU        226.1500    1.2400   98.6000 H         7 CUB7        0.0000 
     76 DU        223.0000    2.3900   98.8000 H         7 CUB7        0.0000 
     77 DU        224.4800    2.5500   98.5700 H         7 CUB7        0.0000 
     78 DU        226.3400    1.5200  100.0600 H         7 CUB7        0.0000 
     79 DU        227.8200    1.6800   99.8300 H         7 CUB7        0.0000 
     80 DU        224.6800    2.8300  100.0300 H         7 CUB7        0.0000 
     81 DU        226.1500    2.9900   99.8100 H         7 CUB7        0.0000 
     82 DU        224.4800    4.3000   99.7800 H         7 CUB7        0.0000 
     83 DU        225.9500    4.4500   99.5500 H         7 CUB7        0.0000 
     84 DU        224.6800    4.5800  101.2400 H         7 CUB7        0.0000 
     85 DU        226.1500    4.7300  101.0100 H         7 CUB7        0.0000 
     86 DU        225.9500    6.2000  100.7600 H         7 CUB7        0.0000 
     87 DU        224.8700    4.8600  102.7000 H         7 CUB7        0.0000 
     88 DU        226.3500    5.0200  102.4700 H         7 CUB7        0.0000 
     89 DU        226.1500    6.4800  102.2200 H         7 CUB7        0.0000 
@<TRIPOS>BOND
@<TRIPOS>SUBSTRUCTURE
     1 SER1        1 GROUP   
     2 ALA2       12 GROUP   
     3 ASP3       13 GROUP   
     4 LYS4       28 GROUP   
     5 PHE5       30 GROUP   
     6 GLY6       53 GROUP   
     7 CUB7       67 GROUP   
@<TRIPOS>SET

