#    Name: 6do5_2_ILE_GLY_LEU_LEU_GLY_GLY
#    Modification time : Fri May 22 19:24:19 2020

@<TRIPOS>MOLECULE
6do5_2_ILE_GLY_LEU_LEU_GLY_GLY
   34    33     6     0     0
SMALL
NO_CHARGES


@<TRIPOS>ATOM
      1 N         226.9250    3.7250   96.2310 N.4       1 ILE666      0.0000 
      2 CA        225.6480    3.6190   95.5670 C.3       1 ILE666      0.0000 
      3 C         224.4740    3.8690   96.5160 C.2       1 ILE666      0.0000 
      4 O         224.2050    5.0050   96.8910 O.2       1 ILE666      0.0000 
      5 CB        225.4730    2.2670   94.8080 C.3       1 ILE666      0.0000 
      6 N         223.7850    2.7950   96.8850 N.am      2 GLY667      0.0000 
      7 CA        222.7240    2.8340   97.8660 C.3       2 GLY667      0.0000 
      8 C         223.2640    2.7790   99.2730 C.2       2 GLY667      0.0000 
      9 O         222.5420    2.8870  100.2140 O.2       2 GLY667      0.0000 
     10 N         224.5720    2.6170   99.3610 N.am      3 LEU668      0.0000 
     11 CA        225.3200    2.5050  100.5980 C.3       3 LEU668      0.0000 
     12 C         225.3320    3.7570  101.4190 C.2       3 LEU668      0.0000 
     13 O         225.3550    3.7110  102.6130 O.2       3 LEU668      0.0000 
     14 CB        226.7510    2.1500  100.2890 C.3       3 LEU668      0.0000 
     15 CG        227.0820    1.1030   99.2720 C.3       3 LEU668      0.0000 
     16 CD1       228.5500    0.7880   99.2550 C.3       3 LEU668      0.0000 
     17 CD2       226.2660   -0.1160   99.5320 C.3       3 LEU668      0.0000 
     18 N         225.3570    4.8770  100.7410 N.am      4 LEU669      0.0000 
     19 CA        225.3960    6.1750  101.3420 C.3       4 LEU669      0.0000 
     20 C         224.2500    6.5170  102.3020 C.2       4 LEU669      0.0000 
     21 O         223.1400    6.1810  102.0650 O.2       4 LEU669      0.0000 
     22 CB        225.4330    7.1950  100.2200 C.3       4 LEU669      0.0000 
     23 CG        226.3960    8.3410  100.4090 C.3       4 LEU669      0.0000 
     24 CD1       227.8190    7.8550  100.4780 C.3       4 LEU669      0.0000 
     25 CD2       226.2100    9.3730   99.3300 C.3       4 LEU669      0.0000 
     26 N         224.5560    7.2190  103.3830 N.am      5 GLY670      0.0000 
     27 CA        223.5400    7.7080  104.2840 C.3       5 GLY670      0.0000 
     28 C         223.0870    6.7840  105.3850 C.2       5 GLY670      0.0000 
     29 O         222.3430    7.1600  106.1980 O.2       5 GLY670      0.0000 
     30 N         223.5950    5.5780  105.3650 N.am      6 GLY671      0.0000 
     31 CA        223.5440    4.6740  106.4620 C.3       6 GLY671      0.0000 
     32 C         224.7980    4.6650  107.3180 C.2       6 GLY671      0.0000 
     33 O         225.8270    5.3030  106.9370 O.2       6 GLY671      0.0000 
     34 OXT       224.6820    3.9720  108.3580 O.3       6 GLY671      0.0000 
@<TRIPOS>BOND
     1    1    2 1    
     2    2    3 1    
     3    2    5 1    
     4    3    4 2    
     5    3    6 am   
     6    6    7 1    
     7    7    8 1    
     8    8    9 2    
     9    8   10 am   
    10   10   11 1    
    11   11   12 1    
    12   11   14 1    
    13   12   13 2    
    14   12   18 am   
    15   14   15 1    
    16   15   16 1    
    17   15   17 1    
    18   18   19 1    
    19   19   20 1    
    20   19   22 1    
    21   20   21 2    
    22   20   26 am   
    23   22   23 1    
    24   23   24 1    
    25   23   25 1    
    26   26   27 1    
    27   27   28 1    
    28   28   29 2    
    29   28   30 am   
    30   30   31 1    
    31   31   32 1    
    32   32   33 2    
    33   32   34 1    
@<TRIPOS>SUBSTRUCTURE
     1 ILE666      1 RESIDUE 
     2 GLY667      6 RESIDUE 
     3 LEU668     10 RESIDUE 
     4 LEU669     18 RESIDUE 
     5 GLY670     26 RESIDUE 
     6 GLY671     30 RESIDUE 
@<TRIPOS>SET

