#    Name: 6do5_1_ILE_GLY_LEU_LEU_GLY_GLY_CAVITY_N1_8
#    Modification time : Fri May 22 19:24:16 2020

@<TRIPOS>MOLECULE
6do5_1_ILE_GLY_LEU_LEU_GLY_GLY_CAVITY_N1_8
   79     0     7     0     0
SMALL
NO_CHARGES


@<TRIPOS>ATOM
      1 OG        225.7500  -10.2000   68.5000 O.3       1 SER1        0.0000 
      2 OG        222.4100   -4.0900   70.8600 O.3       1 SER1        0.0000 
      3 OG        225.1700   -2.3100   70.1400 O.3       1 SER1        0.0000 
      4 OG        226.6400   -2.1600   69.9100 O.3       1 SER1        0.0000 
      5 OG        222.8100   -5.2800   72.5700 O.3       1 SER1        0.0000 
      6 OG        222.6100   -3.8100   72.3200 O.3       1 SER1        0.0000 
      7 OG        223.8900   -2.1900   71.8300 O.3       1 SER1        0.0000 
      8 OG        226.8400   -1.8800   71.3700 O.3       1 SER1        0.0000 
      9 OG        224.4800   -3.0900   75.0100 O.3       1 SER1        0.0000 
     10 N         229.7900   -3.3100   69.7100 N.am      2 ALA2        0.0000 
     11 N         228.1200   -2.0000   69.6900 N.am      2 ALA2        0.0000 
     12 OD1       224.7700   -8.1100   63.6100 O.co2     3 ASP3        0.0000 
     13 OD1       223.6900   -7.7100   66.7600 O.co2     3 ASP3        0.0000 
     14 OD1       223.8900   -7.4300   68.2200 O.co2     3 ASP3        0.0000 
     15 OD1       223.6900   -5.9600   67.9600 O.co2     3 ASP3        0.0000 
     16 OD1       224.6700  -11.5400   70.4400 O.co2     3 ASP3        0.0000 
     17 OD1       225.9500   -9.9200   69.9600 O.co2     3 ASP3        0.0000 
     18 OD1       224.2800   -8.6100   69.9300 O.co2     3 ASP3        0.0000 
     19 OD1       225.7500   -8.4600   69.7000 O.co2     3 ASP3        0.0000 
     20 OD1       222.6100   -7.3000   69.9100 O.co2     3 ASP3        0.0000 
     21 OD1       224.0800   -7.1500   69.6800 O.co2     3 ASP3        0.0000 
     22 OD1       222.4100   -5.8400   69.6500 O.co2     3 ASP3        0.0000 
     23 OD1       223.8900   -5.6800   69.4200 O.co2     3 ASP3        0.0000 
     24 OD1       222.8100   -7.0200   71.3700 O.co2     3 ASP3        0.0000 
     25 OD1       224.2800   -6.8700   71.1400 O.co2     3 ASP3        0.0000 
     26 NZ        221.1400   -5.7200   71.3400 N.4       4 LYS4        0.0000 
     27 CZ        224.5800   -6.6500   63.3500 C.ar      5 PHE5        0.0000 
     28 CZ        223.8900   -9.1700   67.0100 C.ar      5 PHE5        0.0000 
     29 CZ        224.9700   -6.0900   66.2700 C.ar      5 PHE5        0.0000 
     30 CZ        224.2800  -10.3600   68.7300 C.ar      5 PHE5        0.0000 
     31 CZ        224.0800   -8.8900   68.4700 C.ar      5 PHE5        0.0000 
     32 CZ        223.5000   -4.5000   67.7100 C.ar      5 PHE5        0.0000 
     33 CZ        224.9700   -4.3400   67.4800 C.ar      5 PHE5        0.0000 
     34 CZ        222.2200   -4.3700   69.3900 C.ar      5 PHE5        0.0000 
     35 CZ        223.6900   -4.2200   69.1700 C.ar      5 PHE5        0.0000 
     36 CZ        224.9700   -2.6000   68.6800 C.ar      5 PHE5        0.0000 
     37 CZ        223.6900   -2.4700   70.3700 C.ar      5 PHE5        0.0000 
     38 CZ        223.0000   -6.7400   72.8300 C.ar      5 PHE5        0.0000 
     39 CZ        225.3600   -2.0300   71.6000 C.ar      5 PHE5        0.0000 
     40 CZ        224.4800   -4.8400   73.8000 C.ar      5 PHE5        0.0000 
     41 CZ        225.5600   -1.7500   73.0600 C.ar      5 PHE5        0.0000 
     42 CZ        227.0300   -1.6000   72.8300 C.ar      5 PHE5        0.0000 
     43 CA        221.6300   -8.7100   62.6000 C.3       6 GLY6        0.0000 
     44 CA        222.9100   -7.0900   62.1200 C.3       6 GLY6        0.0000 
     45 CA        224.3800   -6.9300   61.8900 C.3       6 GLY6        0.0000 
     46 CA        221.8200   -8.4300   64.0600 C.3       6 GLY6        0.0000 
     47 CA        223.3000   -8.2700   63.8400 C.3       6 GLY6        0.0000 
     48 CA        223.1000   -6.8100   63.5800 C.3       6 GLY6        0.0000 
     49 CA        223.4900   -7.9900   65.3000 C.3       6 GLY6        0.0000 
     50 CA        223.3000   -6.5300   65.0400 C.3       6 GLY6        0.0000 
     51 CA        223.4900   -6.2400   66.5000 C.3       6 GLY6        0.0000 
     52 CA        226.6400   -5.6500   67.5000 C.3       6 GLY6        0.0000 
     53 CA        226.4400   -4.1800   67.2500 C.3       6 GLY6        0.0000 
     54 CA        226.8400   -5.3700   68.9600 C.3       6 GLY6        0.0000 
     55 CA        228.3100   -5.2100   68.7400 C.3       6 GLY6        0.0000 
     56 CA        226.6400   -3.9000   68.7100 C.3       6 GLY6        0.0000 
     57 CA        228.1100   -3.7500   68.4800 C.3       6 GLY6        0.0000 
     58 CA        226.4500   -2.4400   68.4500 C.3       6 GLY6        0.0000 
     59 DU        225.3600   -9.0200   66.7800 H         7 CUB7        0.0000 
     60 DU        227.2300  -10.0400   68.2700 H         7 CUB7        0.0000 
     61 DU        225.5600   -8.7400   68.2400 H         7 CUB7        0.0000 
     62 DU        227.0300   -8.5800   68.0200 H         7 CUB7        0.0000 
     63 DU        225.3600   -7.2700   67.9900 H         7 CUB7        0.0000 
     64 DU        225.1700   -5.8100   67.7300 H         7 CUB7        0.0000 
     65 DU        225.5600   -6.9900   69.4500 H         7 CUB7        0.0000 
     66 DU        225.3600   -5.5300   69.1900 H         7 CUB7        0.0000 
     67 DU        225.1700   -4.0600   68.9400 H         7 CUB7        0.0000 
     68 DU        222.6100   -5.5600   71.1100 H         7 CUB7        0.0000 
     69 DU        224.0800   -5.4000   70.8800 H         7 CUB7        0.0000 
     70 DU        227.0300   -5.0900   70.4300 H         7 CUB7        0.0000 
     71 DU        223.8900   -3.9400   70.6300 H         7 CUB7        0.0000 
     72 DU        225.3600   -3.7800   70.4000 H         7 CUB7        0.0000 
     73 DU        226.8400   -3.6200   70.1700 H         7 CUB7        0.0000 
     74 DU        228.3100   -3.4700   69.9400 H         7 CUB7        0.0000 
     75 DU        224.2800   -5.1200   72.3400 H         7 CUB7        0.0000 
     76 DU        224.0900   -3.6600   72.0900 H         7 CUB7        0.0000 
     77 DU        227.0300   -3.3400   71.6300 H         7 CUB7        0.0000 
     78 DU        224.2800   -3.3700   73.5500 H         7 CUB7        0.0000 
     79 DU        224.0900   -1.9100   73.2900 H         7 CUB7        0.0000 
@<TRIPOS>BOND
@<TRIPOS>SUBSTRUCTURE
     1 SER1        1 GROUP   
     2 ALA2       10 GROUP   
     3 ASP3       12 GROUP   
     4 LYS4       26 GROUP   
     5 PHE5       27 GROUP   
     6 GLY6       43 GROUP   
     7 CUB7       59 GROUP   
@<TRIPOS>SET

