#    Name: 6do5_1_ILE_GLY_LEU_LEU_GLY_GLY
#    Modification time : Fri May 22 19:24:14 2020

@<TRIPOS>MOLECULE
6do5_1_ILE_GLY_LEU_LEU_GLY_GLY
   34    33     6     0     0
SMALL
NO_CHARGES


@<TRIPOS>ATOM
      1 N         226.3510   -6.2600   73.7270 N.4       1 ILE666      0.0000 
      2 CA        225.5860   -7.4360   73.4150 C.3       1 ILE666      0.0000 
      3 C         224.3560   -7.1210   72.5190 C.2       1 ILE666      0.0000 
      4 O         223.9550   -7.9200   71.7030 O.2       1 ILE666      0.0000 
      5 CB        225.3140   -8.2180   74.7300 C.3       1 ILE666      0.0000 
      6 N         223.8080   -5.9200   72.6740 N.am      2 GLY667      0.0000 
      7 CA        222.7930   -5.3830   71.7900 C.3       2 GLY667      0.0000 
      8 C         223.2840   -5.1890   70.3650 C.2       2 GLY667      0.0000 
      9 O         222.5120   -5.1160   69.4520 O.2       2 GLY667      0.0000 
     10 N         224.5910   -5.1330   70.2100 N.am      3 LEU668      0.0000 
     11 CA        225.2250   -4.9680   68.9390 C.3       3 LEU668      0.0000 
     12 C         225.3220   -6.2390   68.1270 C.2       3 LEU668      0.0000 
     13 O         225.4350   -6.1980   66.9360 O.2       3 LEU668      0.0000 
     14 CB        226.5820   -4.3140   69.1320 C.3       3 LEU668      0.0000 
     15 CG        226.4520   -2.8220   69.3530 C.3       3 LEU668      0.0000 
     16 CD1       225.6190   -2.5120   70.5520 C.3       3 LEU668      0.0000 
     17 CD2       227.7140   -2.0420   69.3780 C.3       3 LEU668      0.0000 
     18 N         225.2080   -7.3780   68.7870 N.am      4 LEU669      0.0000 
     19 CA        225.1720   -8.6670   68.1300 C.3       4 LEU669      0.0000 
     20 C         224.0060   -8.8810   67.1640 C.2       4 LEU669      0.0000 
     21 O         222.9510   -8.4210   67.3830 O.2       4 LEU669      0.0000 
     22 CB        225.1620   -9.7700   69.1740 C.3       4 LEU669      0.0000 
     23 CG        226.4440  -10.5350   69.2090 C.3       4 LEU669      0.0000 
     24 CD1       227.5780   -9.5780   69.4420 C.3       4 LEU669      0.0000 
     25 CD2       226.3930  -11.6060   70.2670 C.3       4 LEU669      0.0000 
     26 N         224.2600   -9.6110   66.1000 N.am      5 GLY670      0.0000 
     27 CA        223.2640  -10.0100   65.1650 C.3       5 GLY670      0.0000 
     28 C         222.9130   -9.0160   64.1010 C.2       5 GLY670      0.0000 
     29 O         222.1120   -9.2960   63.3000 O.2       5 GLY670      0.0000 
     30 N         223.5310   -7.8540   64.1460 N.am      6 GLY671      0.0000 
     31 CA        223.4710   -6.8360   63.1340 C.3       6 GLY671      0.0000 
     32 C         224.6910   -6.7250   62.2420 C.2       6 GLY671      0.0000 
     33 O         225.6640   -7.5200   62.3970 O.2       6 GLY671      0.0000 
     34 OXT       224.6050   -5.7940   61.3980 O.3       6 GLY671      0.0000 
@<TRIPOS>BOND
     1    1    2 1    
     2    2    3 1    
     3    2    5 1    
     4    3    4 2    
     5    3    6 am   
     6    6    7 1    
     7    7    8 1    
     8    8    9 2    
     9    8   10 am   
    10   10   11 1    
    11   11   12 1    
    12   11   14 1    
    13   12   13 2    
    14   12   18 am   
    15   14   15 1    
    16   15   16 1    
    17   15   17 1    
    18   18   19 1    
    19   19   20 1    
    20   19   22 1    
    21   20   21 2    
    22   20   26 am   
    23   22   23 1    
    24   23   24 1    
    25   23   25 1    
    26   26   27 1    
    27   27   28 1    
    28   28   29 2    
    29   28   30 am   
    30   30   31 1    
    31   31   32 1    
    32   32   33 2    
    33   32   34 1    
@<TRIPOS>SUBSTRUCTURE
     1 ILE666      1 RESIDUE 
     2 GLY667      6 RESIDUE 
     3 LEU668     10 RESIDUE 
     4 LEU669     18 RESIDUE 
     5 GLY670     26 RESIDUE 
     6 GLY671     30 RESIDUE 
@<TRIPOS>SET

