#    Name: 6oo4_1_6EU
#    Modification time : Fri May 22 19:43:50 2020

@<TRIPOS>MOLECULE
6oo4_1_6EU
   46    52     1     0     0
SMALL
NO_CHARGES


@<TRIPOS>ATOM
      1 CBT       153.3740  157.2410  149.4610           1 6EU1001     0.0000 
      2 OAH       153.2680  158.5040  150.0620           1 6EU1001     0.0000 
      3 CBQ       153.1220  158.4760  151.4520           1 6EU1001     0.0000 
      4 CBO       152.3530  157.4630  152.0610           1 6EU1001     0.0000 
      5 CBS       153.7180  159.4700  152.2360           1 6EU1001     0.0000 
      6 OAI       154.4800  160.4830  151.6670           1 6EU1001     0.0000 
      7 CBR       153.5780  159.4580  153.5870           1 6EU1001     0.0000 
      8 CBP       152.8240  158.4500  154.1980           1 6EU1001     0.0000 
      9 CBN       152.2200  157.4540  153.4160           1 6EU1001     0.0000 
     10 CBM       151.3880  156.3600  154.1310           1 6EU1001     0.0000 
     11 CBK       150.3910  157.0090  155.0820           1 6EU1001     0.0000 
     12 OAG       149.5030  157.6620  154.6620           1 6EU1001     0.0000 
     13 OAF       150.5240  156.8430  156.4940           1 6EU1001     0.0000 
     14 CBC       149.2850  156.5330  157.0790           1 6EU1001     0.0000 
     15 CAX       148.7650  157.8310  157.7670           1 6EU1001     0.0000 
     16 CAS       147.4870  158.5290  157.1350           1 6EU1001     0.0000 
     17 CAK       147.2660  160.1670  157.3580           1 6EU1001     0.0000 
     18 CAU       149.7800  158.7550  158.4740           1 6EU1001     0.0000 
     19 CAR       149.2090  159.5350  159.6410           1 6EU1001     0.0000 
     20 OAD       149.7590  160.7910  159.6430           1 6EU1001     0.0000 
     21 CAZ       149.6780  158.8210  160.9250           1 6EU1001     0.0000 
     22 OAE       150.5610  158.0780  161.0020           1 6EU1001     0.0000 
     23 CBA       148.7690  159.2820  162.0160           1 6EU1001     0.0000 
     24 CBF       149.1790  159.7160  163.4260           1 6EU1001     0.0000 
     25 CAW       147.5170  159.7400  161.3180           1 6EU1001     0.0000 
     26 CAO       147.7200  159.5530  159.7980           1 6EU1001     0.0000 
     27 CAJ       146.8450  160.5310  158.8120           1 6EU1001     0.0000 
     28 OAA       145.1530  160.0470  158.8480           1 6EU1001     0.0000 
     29 CAN       146.8160  161.9950  159.0870           1 6EU1001     0.0000 
     30 CAT       145.7060  162.4380  160.1160           1 6EU1001     0.0000 
     31 CAP       146.4730  162.8690  157.7990           1 6EU1001     0.0000 
     32 CAM       145.5930  161.9690  156.7090           1 6EU1001     0.0000 
     33 CAV       145.2890  162.7200  155.4600           1 6EU1001     0.0000 
     34 CBB       145.9190  163.9290  155.1910           1 6EU1001     0.0000 
     35 CBD       144.2620  162.1550  154.4640           1 6EU1001     0.0000 
     36 OAC       144.5810  161.6070  157.1940           1 6EU1001     0.0000 
     37 CAL       146.3210  160.5240  156.4110           1 6EU1001     0.0000 
     38 OAB       145.3270  159.6920  156.5790           1 6EU1001     0.0000 
     39 CAQ       144.5160  160.2530  157.4930           1 6EU1001     0.0000 
     40 CAY       143.0990  159.6620  157.4240           1 6EU1001     0.0000 
     41 CBE       143.0310  158.5300  158.5100           1 6EU1001     0.0000 
     42 CBG       143.6040  157.3180  158.2470           1 6EU1001     0.0000 
     43 CBI       143.5490  156.3180  159.2080           1 6EU1001     0.0000 
     44 CBL       142.9120  156.5590  160.4280           1 6EU1001     0.0000 
     45 CBJ       142.3340  157.7720  160.6990           1 6EU1001     0.0000 
     46 CBH       142.3860  158.7750  159.7390           1 6EU1001     0.0000 
@<TRIPOS>BOND
     1    1    2 du   
     2    2    3 du   
     3    3    4 du   
     4    3    5 du   
     5    4    9 du   
     6    5    6 du   
     7    5    7 du   
     8    7    8 du   
     9    8    9 du   
    10    9   10 du   
    11   10   11 du   
    12   11   12 du   
    13   11   13 du   
    14   13   14 du   
    15   14   15 du   
    16   15   16 du   
    17   15   18 du   
    18   16   17 du   
    19   17   27 du   
    20   17   37 du   
    21   18   19 du   
    22   19   20 du   
    23   19   21 du   
    24   19   26 du   
    25   21   22 du   
    26   21   23 du   
    27   23   24 du   
    28   23   25 du   
    29   25   26 du   
    30   26   27 du   
    31   27   28 du   
    32   27   29 du   
    33   28   39 du   
    34   29   30 du   
    35   29   31 du   
    36   31   32 du   
    37   32   33 du   
    38   32   36 du   
    39   32   37 du   
    40   33   34 du   
    41   33   35 du   
    42   36   39 du   
    43   37   38 du   
    44   38   39 du   
    45   39   40 du   
    46   40   41 du   
    47   41   42 du   
    48   41   46 du   
    49   42   43 du   
    50   43   44 du   
    51   44   45 du   
    52   45   46 du   
@<TRIPOS>SUBSTRUCTURE
     1 6EU1001     1 GROUP   
@<TRIPOS>SET

