#    Name: 6oo4_2_6EU
#    Modification time : Fri May 22 19:44:01 2020

@<TRIPOS>MOLECULE
6oo4_2_6EU
   46    52     1     0     0
SMALL
NO_CHARGES


@<TRIPOS>ATOM
      1 CBT       122.9240  119.1430  149.4570           1 6EU1001     0.0000 
      2 OAH       123.0300  117.8790  150.0580           1 6EU1001     0.0000 
      3 CBQ       123.1760  117.9060  151.4480           1 6EU1001     0.0000 
      4 CBO       123.9470  118.9190  152.0560           1 6EU1001     0.0000 
      5 CBS       122.5790  116.9130  152.2320           1 6EU1001     0.0000 
      6 OAI       121.8160  115.9010  151.6630           1 6EU1001     0.0000 
      7 CBR       122.7210  116.9240  153.5820           1 6EU1001     0.0000 
      8 CBP       123.4750  117.9320  154.1940           1 6EU1001     0.0000 
      9 CBN       124.0780  118.9280  153.4110           1 6EU1001     0.0000 
     10 CBM       124.9110  120.0210  154.1260           1 6EU1001     0.0000 
     11 CBK       125.9100  119.3710  155.0760           1 6EU1001     0.0000 
     12 OAG       126.8000  118.7220  154.6520           1 6EU1001     0.0000 
     13 OAF       125.7770  119.5300  156.4880           1 6EU1001     0.0000 
     14 CBC       127.0160  119.8460  157.0710           1 6EU1001     0.0000 
     15 CAX       127.5360  118.5520  157.7640           1 6EU1001     0.0000 
     16 CAS       128.8140  117.8500  157.1350           1 6EU1001     0.0000 
     17 CAK       129.0290  116.2100  157.3570           1 6EU1001     0.0000 
     18 CAU       126.5180  117.6290  158.4710           1 6EU1001     0.0000 
     19 CAR       127.0860  116.8500  159.6400           1 6EU1001     0.0000 
     20 OAD       126.5320  115.5980  159.6440           1 6EU1001     0.0000 
     21 CAZ       126.6200  117.5670  160.9220           1 6EU1001     0.0000 
     22 OAE       125.7390  118.3140  160.9990           1 6EU1001     0.0000 
     23 CBA       127.5280  117.1050  162.0150           1 6EU1001     0.0000 
     24 CBF       127.1160  116.6720  163.4240           1 6EU1001     0.0000 
     25 CAW       128.7780  116.6430  161.3170           1 6EU1001     0.0000 
     26 CAO       128.5760  116.8270  159.7970           1 6EU1001     0.0000 
     27 CAJ       129.4460  115.8450  158.8120           1 6EU1001     0.0000 
     28 OAA       131.1400  116.3210  158.8490           1 6EU1001     0.0000 
     29 CAN       129.4680  114.3810  159.0870           1 6EU1001     0.0000 
     30 CAT       130.5750  113.9330  160.1190           1 6EU1001     0.0000 
     31 CAP       129.8060  113.5050  157.8000           1 6EU1001     0.0000 
     32 CAM       130.6920  114.4000  156.7100           1 6EU1001     0.0000 
     33 CAV       130.9930  113.6490  155.4610           1 6EU1001     0.0000 
     34 CBB       130.3710  112.4340  155.1980           1 6EU1001     0.0000 
     35 CBD       132.0110  114.2180  154.4570           1 6EU1001     0.0000 
     36 OAC       131.7060  114.7550  157.1960           1 6EU1001     0.0000 
     37 CAL       129.9730  115.8510  156.4110           1 6EU1001     0.0000 
     38 OAB       130.9720  116.6770  156.5800           1 6EU1001     0.0000 
     39 CAQ       131.7780  116.1090  157.4950           1 6EU1001     0.0000 
     40 CAY       133.2000  116.6880  157.4280           1 6EU1001     0.0000 
     41 CBE       133.2630  117.8370  158.4970           1 6EU1001     0.0000 
     42 CBG       132.6960  119.0450  158.2060           1 6EU1001     0.0000 
     43 CBI       132.7440  120.0630  159.1490           1 6EU1001     0.0000 
     44 CBL       133.3670  119.8420  160.3790           1 6EU1001     0.0000 
     45 CBJ       133.9380  118.6320  160.6780           1 6EU1001     0.0000 
     46 CBH       133.8930  117.6120  159.7370           1 6EU1001     0.0000 
@<TRIPOS>BOND
     1    1    2 du   
     2    2    3 du   
     3    3    4 du   
     4    3    5 du   
     5    4    9 du   
     6    5    6 du   
     7    5    7 du   
     8    7    8 du   
     9    8    9 du   
    10    9   10 du   
    11   10   11 du   
    12   11   12 du   
    13   11   13 du   
    14   13   14 du   
    15   14   15 du   
    16   15   16 du   
    17   15   18 du   
    18   16   17 du   
    19   17   27 du   
    20   17   37 du   
    21   18   19 du   
    22   19   20 du   
    23   19   21 du   
    24   19   26 du   
    25   21   22 du   
    26   21   23 du   
    27   23   24 du   
    28   23   25 du   
    29   25   26 du   
    30   26   27 du   
    31   27   28 du   
    32   27   29 du   
    33   28   39 du   
    34   29   30 du   
    35   29   31 du   
    36   31   32 du   
    37   32   33 du   
    38   32   36 du   
    39   32   37 du   
    40   33   34 du   
    41   33   35 du   
    42   36   39 du   
    43   37   38 du   
    44   38   39 du   
    45   39   40 du   
    46   40   41 du   
    47   41   42 du   
    48   41   46 du   
    49   42   43 du   
    50   43   44 du   
    51   44   45 du   
    52   45   46 du   
@<TRIPOS>SUBSTRUCTURE
     1 6EU1001     1 GROUP   
@<TRIPOS>SET

