#    Name: 6h7o_2_P32
#    Modification time : Fri May 22 19:27:04 2020

@<TRIPOS>MOLECULE
6h7o_2_P32
   21    22     1     0     0
SMALL
NO_CHARGES


@<TRIPOS>ATOM
      1 O2        -20.6310  -26.0960   48.7680 O.3       1 P32401      0.0000 
      2 C10       -20.9370  -26.8630   49.9440 C.3       1 P32401      0.0000 
      3 N3        -23.2380  -31.6780   56.3370 N.1       1 P32401      0.0000 
      4 C11       -22.3720  -27.3720   49.9090 C.3       1 P32401      0.0000 
      5 N2        -23.2920  -26.3200   49.5150 N.4       1 P32401      0.0000 
      6 C12       -24.7320  -26.5090   49.4820 C.3       1 P32401      0.0000 
      7 C15       -25.1870  -27.1490   50.7790 C.3       1 P32401      0.0000 
      8 C13       -25.1510  -27.3810   48.2970 C.3       1 P32401      0.0000 
      9 C9        -20.0140  -28.0710   50.0870 C.3       1 P32401      0.0000 
     10 O1        -20.3050  -28.7390   51.3200 O.3       1 P32401      0.0000 
     11 C4        -19.8970  -30.0070   51.6440 C.ar      1 P32401      0.0000 
     12 C5        -18.8910  -30.6870   50.9590 C.ar      1 P32401      0.0000 
     13 C6        -18.4820  -31.9760   51.3240 C.ar      1 P32401      0.0000 
     14 C7        -19.0550  -32.6780   52.3870 C.ar      1 P32401      0.0000 
     15 C8        -20.0610  -32.0950   53.1360 C.ar      1 P32401      0.0000 
     16 C3        -20.5160  -30.7180   52.7850 C.ar      1 P32401      0.0000 
     17 N1        -20.7860  -32.5070   54.2080 N.2       1 P32401      0.0000 
     18 C1        -21.5940  -31.4620   54.4640 C.2       1 P32401      0.0000 
     19 C2        -21.5670  -30.2150   53.6310 C.3       1 P32401      0.0000 
     20 C16       -22.4670  -31.5960   55.4730 C.1       1 P32401      0.0000 
     21 C14       -25.3770  -25.1330   49.3620 C.3       1 P32401      0.0000 
@<TRIPOS>BOND
     1    1    2 1    
     2    2    4 1    
     3    2    9 1    
     4    3   20 3    
     5    4    5 1    
     6    5    6 1    
     7    6    7 1    
     8    6    8 1    
     9    6   21 1    
    10    9   10 1    
    11   10   11 1    
    12   11   12 ar   
    13   11   16 ar   
    14   12   13 ar   
    15   13   14 ar   
    16   14   15 ar   
    17   15   16 ar   
    18   15   17 1    
    19   16   19 1    
    20   17   18 2    
    21   18   19 1    
    22   18   20 1    
@<TRIPOS>SUBSTRUCTURE
     1 P32401      1 GROUP   
@<TRIPOS>SET

