#    Name: 6h7o_1_P32_CAVITY_N1_4
#    Modification time : Fri May 22 19:27:00 2020

@<TRIPOS>MOLECULE
6h7o_1_P32_CAVITY_N1_4
   74     0     6     0     0
SMALL
NO_CHARGES


@<TRIPOS>ATOM
      1 OG        -16.9700  -32.2900    5.9200 O.3       1 SER1        0.0000 
      2 OG        -16.7600  -32.2700   19.0800 O.3       1 SER1        0.0000 
      3 OG        -16.6900  -31.0400   18.2200 O.3       1 SER1        0.0000 
      4 N         -17.0400  -33.5100    6.7700 N.am      2 ALA2        0.0000 
      5 N         -15.7500  -33.1300    7.4400 N.am      2 ALA2        0.0000 
      6 N         -16.5200  -32.3600    8.4700 N.am      2 ALA2        0.0000 
      7 N         -14.5400  -33.9700    8.9600 N.am      2 ALA2        0.0000 
      8 N         -15.3000  -33.2000    9.9900 N.am      2 ALA2        0.0000 
      9 N         -15.2300  -31.9700    9.1400 N.am      2 ALA2        0.0000 
     10 N         -16.0700  -32.4300   11.0300 N.am      2 ALA2        0.0000 
     11 O         -12.4800  -34.3500    8.5800 O.2       2 ALA2        0.0000 
     12 N         -12.4100  -33.1200    7.7300 N.am      2 ALA2        0.0000 
     13 O         -16.0000  -33.0400   18.0400 O.2       2 ALA2        0.0000 
     14 N         -13.1800  -34.1900   16.6300 N.am      2 ALA2        0.0000 
     15 O         -13.9500  -33.4200   17.6700 O.2       2 ALA2        0.0000 
     16 NZ        -18.1200  -32.0500   11.4000 N.4       3 LYS4        0.0000 
     17 NZ        -15.9900  -31.2000   10.1700 N.4       3 LYS4        0.0000 
     18 NZ        -15.9200  -29.9800    9.3200 N.4       3 LYS4        0.0000 
     19 NZ        -16.8300  -31.6600   12.0700 N.4       3 LYS4        0.0000 
     20 NZ        -16.7600  -30.4400   11.2100 N.4       3 LYS4        0.0000 
     21 NZ        -17.6000  -30.9000   13.1000 N.4       3 LYS4        0.0000 
     22 CZ        -14.9200  -32.6700    5.5400 C.ar      4 PHE5        0.0000 
     23 CZ        -18.1900  -33.2800   12.2600 C.ar      4 PHE5        0.0000 
     24 CZ        -18.9600  -32.5100   13.3000 C.ar      4 PHE5        0.0000 
     25 CZ        -19.7900  -32.9700   15.1900 C.ar      4 PHE5        0.0000 
     26 CZ        -14.4600  -32.7400    8.1000 C.ar      4 PHE5        0.0000 
     27 CZ        -16.1400  -33.6600   11.8900 C.ar      4 PHE5        0.0000 
     28 CZ        -16.9000  -32.8900   12.9200 C.ar      4 PHE5        0.0000 
     29 CZ        -17.7400  -33.3500   14.8200 C.ar      4 PHE5        0.0000 
     30 CZ        -17.6700  -32.1300   13.9600 C.ar      4 PHE5        0.0000 
     31 CZ        -18.5000  -32.5900   15.8600 C.ar      4 PHE5        0.0000 
     32 CZ        -19.2700  -31.8200   16.8900 C.ar      4 PHE5        0.0000 
     33 CZ        -13.3200  -34.8100   10.4800 C.ar      4 PHE5        0.0000 
     34 CZ        -14.1600  -35.2700   12.3700 C.ar      4 PHE5        0.0000 
     35 CZ        -13.8700  -30.3600    8.9400 C.ar      4 PHE5        0.0000 
     36 CZ        -14.9200  -34.5000   13.4100 C.ar      4 PHE5        0.0000 
     37 CZ        -14.8500  -33.2800   12.5500 C.ar      4 PHE5        0.0000 
     38 CZ        -14.7800  -32.0500   11.6900 C.ar      4 PHE5        0.0000 
     39 CZ        -15.6900  -33.7400   14.4500 C.ar      4 PHE5        0.0000 
     40 CZ        -15.6100  -32.5100   13.5900 C.ar      4 PHE5        0.0000 
     41 CZ        -15.5400  -31.2800   12.7300 C.ar      4 PHE5        0.0000 
     42 CZ        -16.4500  -32.9700   15.4800 C.ar      4 PHE5        0.0000 
     43 CZ        -17.2900  -33.4300   17.3800 C.ar      4 PHE5        0.0000 
     44 CZ        -18.0500  -32.6600   18.4100 C.ar      4 PHE5        0.0000 
     45 CZ        -12.8700  -34.8900   13.0300 C.ar      4 PHE5        0.0000 
     46 CZ        -13.6300  -34.1200   14.0700 C.ar      4 PHE5        0.0000 
     47 CZ        -14.4000  -33.3500   15.1100 C.ar      4 PHE5        0.0000 
     48 CZ        -15.1600  -32.5800   16.1500 C.ar      4 PHE5        0.0000 
     49 CZ        -15.9300  -31.8100   17.1800 C.ar      4 PHE5        0.0000 
     50 CA        -16.2800  -34.2800    5.7400 C.3       5 GLY6        0.0000 
     51 CA        -15.0600  -35.1200    7.2600 C.3       5 GLY6        0.0000 
     52 CA        -19.7200  -31.7400   14.3400 C.3       5 GLY6        0.0000 
     53 CA        -20.5600  -32.2000   16.2300 C.3       5 GLY6        0.0000 
     54 CA        -20.4800  -30.9800   15.3700 C.3       5 GLY6        0.0000 
     55 CA        -13.7700  -34.7400    7.9200 C.3       5 GLY6        0.0000 
     56 CA        -13.6300  -32.2800    6.2100 C.3       5 GLY6        0.0000 
     57 CA        -18.4300  -31.3600   15.0000 C.3       5 GLY6        0.0000 
     58 CA        -18.3600  -30.1300   14.1400 C.3       5 GLY6        0.0000 
     59 CA        -19.2000  -30.5900   16.0400 C.3       5 GLY6        0.0000 
     60 CA        -20.0300  -31.0500   17.9300 C.3       5 GLY6        0.0000 
     61 CA        -13.2500  -33.5800    9.6200 C.3       5 GLY6        0.0000 
     62 CA        -13.1800  -32.3500    8.7600 C.3       5 GLY6        0.0000 
     63 CA        -14.0900  -34.0400   11.5100 C.3       5 GLY6        0.0000 
     64 CA        -14.0100  -32.8100   10.6600 C.3       5 GLY6        0.0000 
     65 CA        -13.9400  -31.5900    9.8000 C.3       5 GLY6        0.0000 
     66 CA        -14.7100  -30.8200   10.8400 C.3       5 GLY6        0.0000 
     67 CA        -16.3800  -31.7400   14.6300 C.3       5 GLY6        0.0000 
     68 CA        -17.1400  -30.9700   15.6600 C.3       5 GLY6        0.0000 
     69 CA        -17.9800  -31.4300   17.5600 C.3       5 GLY6        0.0000 
     70 CA        -12.0300  -34.4200   11.1400 C.3       5 GLY6        0.0000 
     71 CA        -15.8500  -30.5800   16.3300 C.3       5 GLY6        0.0000 
     72 DU        -14.9900  -33.9000    6.4000 H         6 CUB7        0.0000 
     73 DU        -13.7000  -33.5100    7.0600 H         6 CUB7        0.0000 
     74 DU        -17.2200  -32.2000   16.5200 H         6 CUB7        0.0000 
@<TRIPOS>BOND
@<TRIPOS>SUBSTRUCTURE
     1 SER1        1 GROUP   
     2 ALA2        4 GROUP   
     3 LYS4       16 GROUP   
     4 PHE5       22 GROUP   
     5 GLY6       50 GROUP   
     6 CUB7       72 GROUP   
@<TRIPOS>SET

