#    Name: 6h7o_1_P32
#    Modification time : Fri May 22 19:26:58 2020

@<TRIPOS>MOLECULE
6h7o_1_P32
   21    22     1     0     0
SMALL
NO_CHARGES


@<TRIPOS>ATOM
      1 O2        -19.7330  -32.2460   11.1690 O.3       1 P32401      0.0000 
      2 C10       -18.7990  -32.5390   12.2170 C.3       1 P32401      0.0000 
      3 N3        -12.9560  -33.5470   18.1000 N.1       1 P32401      0.0000 
      4 C11       -17.4620  -31.8500   11.9620 C.3       1 P32401      0.0000 
      5 N2        -17.0350  -32.0250   10.5890 N.4       1 P32401      0.0000 
      6 C12       -15.7480  -31.5410   10.1200 C.3       1 P32401      0.0000 
      7 C15       -14.6240  -31.9170   11.0960 C.3       1 P32401      0.0000 
      8 C13       -15.7580  -30.0200    9.9620 C.3       1 P32401      0.0000 
      9 C9        -19.2960  -32.0740   13.5830 C.3       1 P32401      0.0000 
     10 O1        -18.3480  -32.4670   14.5850 O.3       1 P32401      0.0000 
     11 C4        -18.3180  -31.9950   15.8720 C.ar      1 P32401      0.0000 
     12 C5        -19.3780  -31.3050   16.4540 C.ar      1 P32401      0.0000 
     13 C6        -19.3230  -30.8480   17.7770 C.ar      1 P32401      0.0000 
     14 C7        -18.2100  -31.0400   18.6000 C.ar      1 P32401      0.0000 
     15 C8        -17.1060  -31.7160   18.1220 C.ar      1 P32401      0.0000 
     16 C3        -17.1260  -32.2210   16.7190 C.ar      1 P32401      0.0000 
     17 N1        -15.9080  -32.0420   18.6690 N.2       1 P32401      0.0000 
     18 C1        -15.2800  -32.6990   17.6700 C.2       1 P32401      0.0000 
     19 C2        -15.9140  -32.9000   16.3170 C.3       1 P32401      0.0000 
     20 C16       -14.0360  -33.1440   17.9240 C.1       1 P32401      0.0000 
     21 C14       -15.5020  -32.2010    8.7570 C.3       1 P32401      0.0000 
@<TRIPOS>BOND
     1    1    2 1    
     2    2    4 1    
     3    2    9 1    
     4    3   20 3    
     5    4    5 1    
     6    5    6 1    
     7    6    7 1    
     8    6    8 1    
     9    6   21 1    
    10    9   10 1    
    11   10   11 1    
    12   11   12 ar   
    13   11   16 ar   
    14   12   13 ar   
    15   13   14 ar   
    16   14   15 ar   
    17   15   16 ar   
    18   15   17 1    
    19   16   19 1    
    20   17   18 2    
    21   18   19 1    
    22   18   20 1    
@<TRIPOS>SUBSTRUCTURE
     1 P32401      1 GROUP   
@<TRIPOS>SET

