#    Name: 6h7o_2_P32_CAVITY_N1_4
#    Modification time : Fri May 22 19:27:05 2020

@<TRIPOS>MOLECULE
6h7o_2_P32_CAVITY_N1_4
   75     0     6     0     0
SMALL
NO_CHARGES


@<TRIPOS>ATOM
      1 OG        -25.2800  -23.1100   47.2400 O.3       1 SER1        0.0000 
      2 OG        -20.3900  -32.0900   53.1500 O.3       1 SER1        0.0000 
      3 O         -28.3200  -25.6500   51.2200 O.2       2 ALA2        0.0000 
      4 N         -28.2400  -24.4200   50.3600 N.am      2 ALA2        0.0000 
      5 N         -26.1900  -24.8000   49.9900 N.am      2 ALA2        0.0000 
      6 N         -24.2100  -26.4100   50.4700 N.am      2 ALA2        0.0000 
      7 N         -24.9700  -25.6400   51.5100 N.am      2 ALA2        0.0000 
      8 N         -24.9000  -24.4200   50.6500 N.am      2 ALA2        0.0000 
      9 N         -24.8300  -23.1900   49.8000 N.am      2 ALA2        0.0000 
     10 N         -24.7600  -21.9600   48.9400 N.am      2 ALA2        0.0000 
     11 N         -25.6700  -23.6500   51.6900 N.am      2 ALA2        0.0000 
     12 N         -25.5900  -22.4200   50.8300 N.am      2 ALA2        0.0000 
     13 N         -22.1600  -26.7900   50.1000 N.am      2 ALA2        0.0000 
     14 N         -23.6900  -25.2600   52.1700 N.am      2 ALA2        0.0000 
     15 N         -24.3800  -23.2600   52.3500 N.am      2 ALA2        0.0000 
     16 O         -21.1600  -31.3200   54.1900 O.2       2 ALA2        0.0000 
     17 O         -21.0900  -30.0900   53.3300 O.2       2 ALA2        0.0000 
     18 O         -21.8500  -29.3300   54.3700 O.2       2 ALA2        0.0000 
     19 O         -19.8000  -29.7100   54.0000 O.2       2 ALA2        0.0000 
     20 NZ        -24.7300  -27.5700   48.7700 N.4       3 LYS4        0.0000 
     21 NZ        -23.4500  -27.1800   49.4400 N.4       3 LYS4        0.0000 
     22 NZ        -20.7000  -29.5600   48.8800 N.4       3 LYS4        0.0000 
     23 NZ        -21.4700  -28.7900   49.9200 N.4       3 LYS4        0.0000 
     24 NZ        -20.1000  -27.1800   49.7300 N.4       3 LYS4        0.0000 
     25 CZ        -27.4800  -25.1900   49.3300 C.ar      4 PHE5        0.0000 
     26 CZ        -27.4100  -23.9600   48.4700 C.ar      4 PHE5        0.0000 
     27 CZ        -27.3300  -22.7300   47.6100 C.ar      4 PHE5        0.0000 
     28 CZ        -25.4300  -25.5700   48.9500 C.ar      4 PHE5        0.0000 
     29 CZ        -25.3500  -24.3400   48.1000 C.ar      4 PHE5        0.0000 
     30 CZ        -26.1200  -23.5700   49.1300 C.ar      4 PHE5        0.0000 
     31 CZ        -26.0500  -22.3400   48.2700 C.ar      4 PHE5        0.0000 
     32 CZ        -23.5900  -29.6400   51.1500 C.ar      4 PHE5        0.0000 
     33 CZ        -24.2800  -27.6400   51.3300 C.ar      4 PHE5        0.0000 
     34 CZ        -25.8100  -26.1000   53.4000 C.ar      4 PHE5        0.0000 
     35 CZ        -25.7400  -24.8800   52.5500 C.ar      4 PHE5        0.0000 
     36 CZ        -22.4500  -31.7100   53.5300 C.ar      4 PHE5        0.0000 
     37 CZ        -22.3700  -30.4800   52.6700 C.ar      4 PHE5        0.0000 
     38 CZ        -22.2300  -28.0200   50.9600 C.ar      4 PHE5        0.0000 
     39 CZ        -23.1400  -29.7100   53.7100 C.ar      4 PHE5        0.0000 
     40 CZ        -23.0700  -28.4800   52.8500 C.ar      4 PHE5        0.0000 
     41 CZ        -22.9900  -27.2500   51.9900 C.ar      4 PHE5        0.0000 
     42 CZ        -23.8300  -27.7100   53.8900 C.ar      4 PHE5        0.0000 
     43 CZ        -23.7600  -26.4900   53.0300 C.ar      4 PHE5        0.0000 
     44 CZ        -24.4500  -24.4900   53.2100 C.ar      4 PHE5        0.0000 
     45 CZ        -20.1800  -28.4000   50.5800 C.ar      4 PHE5        0.0000 
     46 CZ        -21.0100  -28.8600   52.4800 C.ar      4 PHE5        0.0000 
     47 CZ        -18.2700  -31.2400   51.9200 C.ar      4 PHE5        0.0000 
     48 CZ        -18.2000  -30.0100   51.0700 C.ar      4 PHE5        0.0000 
     49 CZ        -19.1100  -31.7000   53.8200 C.ar      4 PHE5        0.0000 
     50 CZ        -19.0300  -30.4800   52.9600 C.ar      4 PHE5        0.0000 
     51 CZ        -18.9600  -29.2500   52.1000 C.ar      4 PHE5        0.0000 
     52 CZ        -18.8900  -28.0200   51.2500 C.ar      4 PHE5        0.0000 
     53 CA        -27.5500  -26.4200   50.1800 C.3       5 GLY6        0.0000 
     54 CA        -28.1700  -23.1900   49.5100 C.3       5 GLY6        0.0000 
     55 CA        -24.8100  -28.8000   49.6300 C.3       5 GLY6        0.0000 
     56 CA        -25.5700  -28.0300   50.6700 C.3       5 GLY6        0.0000 
     57 CA        -26.2600  -26.0300   50.8500 C.3       5 GLY6        0.0000 
     58 CA        -27.0300  -25.2600   51.8800 C.3       5 GLY6        0.0000 
     59 CA        -26.8100  -21.5800   49.3100 C.3       5 GLY6        0.0000 
     60 CA        -22.7500  -29.1800   49.2600 C.3       5 GLY6        0.0000 
     61 CA        -23.5200  -28.4100   50.2900 C.3       5 GLY6        0.0000 
     62 CA        -25.0500  -26.8700   52.3700 C.3       5 GLY6        0.0000 
     63 CA        -25.5200  -21.1900   49.9800 C.3       5 GLY6        0.0000 
     64 CA        -21.6800  -32.4800   52.4900 C.3       5 GLY6        0.0000 
     65 CA        -21.5400  -30.0200   50.7800 C.3       5 GLY6        0.0000 
     66 CA        -22.3000  -29.2500   51.8100 C.3       5 GLY6        0.0000 
     67 CA        -19.6300  -32.8600   52.1200 C.3       5 GLY6        0.0000 
     68 CA        -19.5600  -31.6300   51.2600 C.3       5 GLY6        0.0000 
     69 CA        -19.4800  -30.4000   50.4000 C.3       5 GLY6        0.0000 
     70 CA        -19.4100  -29.1700   49.5500 C.3       5 GLY6        0.0000 
     71 CA        -20.3200  -30.8600   52.3000 C.3       5 GLY6        0.0000 
     72 CA        -20.2500  -29.6300   51.4400 C.3       5 GLY6        0.0000 
     73 DU        -25.5000  -26.8000   49.8100 H         6 CUB7        0.0000 
     74 DU        -26.9600  -24.0300   51.0300 H         6 CUB7        0.0000 
     75 DU        -26.8800  -22.8000   50.1700 H         6 CUB7        0.0000 
@<TRIPOS>BOND
@<TRIPOS>SUBSTRUCTURE
     1 SER1        1 GROUP   
     2 ALA2        3 GROUP   
     3 LYS4       20 GROUP   
     4 PHE5       25 GROUP   
     5 GLY6       53 GROUP   
     6 CUB7       73 GROUP   
@<TRIPOS>SET

