#    Name: 6o1y_1_ATP
#    Modification time : Fri May 22 19:36:08 2020

@<TRIPOS>MOLECULE
6o1y_1_ATP
   43    45     1     0     1
SMALL
NO_CHARGES


@<TRIPOS>ATOM
      1 PG        -17.5580   18.5470  -28.1320 P.3       1 ATP501      0.0000 
      2 O1G       -16.4420   19.5330  -27.9120 O.co2     1 ATP501      0.0000 
      3 O2G       -17.8700   18.3410  -29.6390 O.co2     1 ATP501      0.0000 
      4 O3G       -18.8640   18.9860  -27.4350 O.co2     1 ATP501      0.0000 
      5 PB        -17.0970   16.4150  -26.1180 P.3       1 ATP501      0.0000 
      6 O1B       -17.8150   15.1210  -26.1470 O.co2     1 ATP501      0.0000 
      7 O2B       -17.7620   17.3520  -25.1050 O.co2     1 ATP501      0.0000 
      8 O3B       -17.1760   17.1040  -27.5570 O.3       1 ATP501      0.0000 
      9 PA        -14.2060   16.9310  -25.7950 P.3       1 ATP501      0.0000 
     10 O1A       -14.4330   18.3570  -26.1370 O.co2     1 ATP501      0.0000 
     11 O2A       -13.5140   16.2200  -26.9620 O.co2     1 ATP501      0.0000 
     12 O3A       -15.6010   16.1760  -25.6220 O.3       1 ATP501      0.0000 
     13 O5'       -13.2260   16.8390  -24.5060 O.3       1 ATP501      0.0000 
     14 C5'       -13.6130   16.2030  -23.2710 C.3       1 ATP501      0.0000 
     15 C4'       -12.4560   16.1130  -22.3040 C.3       1 ATP501      0.0000 
     16 O4'       -12.4130   14.7860  -21.7260 O.3       1 ATP501      0.0000 
     17 C3'       -11.0490   16.3550  -22.8500 C.3       1 ATP501      0.0000 
     18 O3'       -10.7210   17.7380  -22.9290 O.3       1 ATP501      0.0000 
     19 C2'       -10.1960   15.5800  -21.8440 C.3       1 ATP501      0.0000 
     20 O2'        -9.9900   16.2720  -20.6140 O.3       1 ATP501      0.0000 
     21 C1'       -11.0690   14.3410  -21.6500 C.3       1 ATP501      0.0000 
     22 N9        -10.8430   13.3050  -22.6600 N.pl3     1 ATP501      0.0000 
     23 C8        -11.3210   13.2550  -23.9440 C.2       1 ATP501      0.0000 
     24 N7        -10.8140   12.2840  -24.6670 N.2       1 ATP501      0.0000 
     25 C5         -9.9500   11.6420  -23.7940 C.ar      1 ATP501      0.0000 
     26 C6         -9.0570   10.5620  -23.9630 C.ar      1 ATP501      0.0000 
     27 N6         -8.9010    9.9070  -25.1130 N.pl3     1 ATP501      0.0000 
     28 N1         -8.2990   10.1970  -22.9030 N.ar      1 ATP501      0.0000 
     29 C2         -8.4430   10.8630  -21.7500 C.ar      1 ATP501      0.0000 
     30 N3         -9.2480   11.8960  -21.4730 N.ar      1 ATP501      0.0000 
     31 C4         -9.9720   12.2480  -22.5480 C.ar      1 ATP501      0.0000 
     32 H5'1      -13.9540   15.1920  -23.4900 H         1 ATP501      0.0000 
     33 H5'2      -14.4510   16.7560  -22.8510 H         1 ATP501      0.0000 
     34 H4'       -12.6460   16.7500  -21.4410 H         1 ATP501      0.0000 
     35 H3'       -10.9240   15.9190  -23.8390 H         1 ATP501      0.0000 
     36 HO3'      -10.0640   17.8160  -23.6700 H         1 ATP501      0.0000 
     37 H2'        -9.2310   15.2980  -22.2580 H         1 ATP501      0.0000 
     38 HO2'       -9.3540   17.0090  -20.8120 H         1 ATP501      0.0000 
     39 H1'       -10.9080   13.8960  -20.6700 H         1 ATP501      0.0000 
     40 H8        -12.0530   13.9640  -24.3250 H         1 ATP501      0.0000 
     41 HN61       -9.4300   10.1570  -25.9430 H         1 ATP501      0.0000 
     42 HN62       -8.2460    9.1350  -25.1880 H         1 ATP501      0.0000 
     43 H2         -7.8300   10.4930  -20.9310 H         1 ATP501      0.0000 
@<TRIPOS>BOND
     1    1    2 ar   
     2    1    3 ar   
     3    1    4 ar   
     4    1    8 1    
     5    5    6 ar   
     6    5    7 ar   
     7    5    8 1    
     8    5   12 1    
     9    9   10 ar   
    10    9   11 ar   
    11    9   12 1    
    12    9   13 1    
    13   13   14 1    
    14   14   15 1    
    15   14   32 1    
    16   14   33 1    
    17   15   16 1    
    18   15   17 1    
    19   15   34 1    
    20   16   21 1    
    21   17   18 1    
    22   17   19 1    
    23   17   35 1    
    24   18   36 1    
    25   19   20 1    
    26   19   21 1    
    27   19   37 1    
    28   20   38 1    
    29   21   22 1    
    30   21   39 1    
    31   22   23 1    
    32   22   31 1    
    33   23   24 2    
    34   23   40 1    
    35   24   25 1    
    36   25   26 ar   
    37   25   31 ar   
    38   26   27 1    
    39   26   28 ar   
    40   27   41 1    
    41   27   42 1    
    42   28   29 ar   
    43   29   30 ar   
    44   29   43 1    
    45   30   31 ar   
@<TRIPOS>SUBSTRUCTURE
     1 ATP501      1 GROUP   
@<TRIPOS>SET
ATOM$ORANGE STATIC     ATOMS   COLORGROUP SYSTEM 
20 14 14 15 15 17 17 19 19 21 21 23 23 25 25 26 26 29 \
29 31 31 

