#    Name: 6b3t_1_COA
#    Modification time : Fri May 22 19:34:28 2020

@<TRIPOS>MOLECULE
6b3t_1_COA
   39    39     1     0     1
SMALL
NO_CHARGES


@<TRIPOS>ATOM
      1 N9A        20.7740  -26.2140   50.4690 N.pl3     1 COA501      0.0000 
      2 C1B        21.7920  -27.2270   50.8500 C.3       1 COA501      0.0000 
      3 C2B        21.1360  -28.4870   51.3920 C.3       1 COA501      0.0000 
      4 O2B        21.0730  -28.4420   52.8230 O.3       1 COA501      0.0000 
      5 C3B        21.9940  -29.6210   50.8570 C.3       1 COA501      0.0000 
      6 O3B        22.9780  -30.0450   51.8060 O.3       1 COA501      0.0000 
      7 P3B        22.7760  -31.2940   52.8100 P.3       1 COA501      0.0000 
      8 O7A        22.2700  -32.4250   51.9450 O.co2     1 COA501      0.0000 
      9 O8A        21.7790  -30.8010   53.8320 O.co2     1 COA501      0.0000 
     10 O9A        24.1610  -31.5230   53.3670 O.co2     1 COA501      0.0000 
     11 C4B        22.6780  -29.0400   49.6190 C.3       1 COA501      0.0000 
     12 O4B        22.5680  -27.6130   49.7110 O.3       1 COA501      0.0000 
     13 C5B        22.1120  -29.5400   48.2830 C.3       1 COA501      0.0000 
     14 O5B        21.3900  -28.4960   47.6110 O.3       1 COA501      0.0000 
     15 P1A        19.9830  -28.7750   46.8680 P.3       1 COA501      0.0000 
     16 O1A        19.1570  -29.6200   47.8060 O.co2     1 COA501      0.0000 
     17 O2A        20.3340  -29.3040   45.4960 O.co2     1 COA501      0.0000 
     18 O3A        19.2750  -27.3190   46.7040 O.3       1 COA501      0.0000 
     19 P2A        17.7840  -26.9910   47.2730 P.3       1 COA501      0.0000 
     20 O4A        17.9120  -26.7440   48.7590 O.co2     1 COA501      0.0000 
     21 O5A        16.8530  -28.0900   46.8180 O.co2     1 COA501      0.0000 
     22 O6A        17.2490  -25.6310   46.5610 O.3       1 COA501      0.0000 
     23 CBP        17.9200  -23.3670   45.9470 C.3       1 COA501      0.0000 
     24 CCP        17.4200  -24.2880   47.0670 C.3       1 COA501      0.0000 
     25 CDP        17.1200  -22.0880   45.6770 C.3       1 COA501      0.0000 
     26 CEP        18.9400  -24.2170   45.1230 C.3       1 COA501      0.0000 
     27 CAP        18.9720  -22.5650   46.8270 C.3       1 COA501      0.0000 
     28 OAP        20.0590  -23.3480   47.3540 O.3       1 COA501      0.0000 
     29 C9P        19.6420  -21.3000   46.3030 C.2       1 COA501      0.0000 
     30 O9P        20.0410  -20.5510   47.1590 O.2       1 COA501      0.0000 
     31 N8P        19.6990  -20.8450   45.0490 N.am      1 COA501      0.0000 
     32 C7P        19.8660  -19.4030   44.9010 C.3       1 COA501      0.0000 
     33 C6P        19.3900  -18.8450   43.5740 C.3       1 COA501      0.0000 
     34 C5P        19.9090  -17.4310   43.3810 C.2       1 COA501      0.0000 
     35 O5P        20.1820  -16.7350   44.3500 O.2       1 COA501      0.0000 
     36 N4P        20.0730  -17.0130   42.1220 N.am      1 COA501      0.0000 
     37 C3P        20.6400  -15.7160   41.7800 C.3       1 COA501      0.0000 
     38 C2P        22.1670  -15.7300   41.7100 C.3       1 COA501      0.0000 
     39 S1P        22.9100  -15.8350   43.3590 S.3       1 COA501      0.0000 
@<TRIPOS>BOND
     1    1    2 1    
     2    2    3 1    
     3    2   12 1    
     4    3    4 1    
     5    3    5 1    
     6    5    6 1    
     7    5   11 1    
     8    6    7 1    
     9    7    8 ar   
    10    7    9 ar   
    11    7   10 ar   
    12   11   12 1    
    13   11   13 1    
    14   13   14 1    
    15   14   15 1    
    16   15   16 ar   
    17   15   17 ar   
    18   15   18 1    
    19   18   19 1    
    20   19   20 ar   
    21   19   21 ar   
    22   19   22 1    
    23   22   24 1    
    24   23   24 1    
    25   23   25 1    
    26   23   26 1    
    27   23   27 1    
    28   27   28 1    
    29   27   29 1    
    30   29   30 2    
    31   29   31 am   
    32   31   32 1    
    33   32   33 1    
    34   33   34 1    
    35   34   35 2    
    36   34   36 am   
    37   36   37 1    
    38   37   38 1    
    39   38   39 1    
@<TRIPOS>SUBSTRUCTURE
     1 COA501      1 GROUP   
@<TRIPOS>SET
ATOM$ORANGE STATIC     ATOMS   COLORGROUP SYSTEM 
32 2 2 3 3 5 5 11 11 13 13 23 23 24 24 25 25 26 \
26 27 27 29 29 32 32 33 33 34 34 37 37 38 38 

