#    Name: 5yke_2_GBM_CAVITY_N1_4
#    Modification time : Fri May 22 19:27:43 2020

@<TRIPOS>MOLECULE
5yke_2_GBM_CAVITY_N1_4
   73     0     6     0     0
SMALL
NO_CHARGES


@<TRIPOS>ATOM
      1 OG        107.0500  199.1600  186.8200 O.3       1 SER1        0.0000 
      2 OG        108.0500  200.5800  185.6000 O.3       1 SER1        0.0000 
      3 OG        109.1000  201.6300  185.8300 O.3       1 SER1        0.0000 
      4 N         105.9500  194.7400  182.6300 N.am      2 ALA2        0.0000 
      5 N         107.0000  195.7900  182.8600 N.am      2 ALA2        0.0000 
      6 N         105.9300  196.8000  183.1600 N.am      2 ALA2        0.0000 
      7 N         106.9300  198.2200  181.9400 N.am      2 ALA2        0.0000 
      8 O         104.8100  201.9200  184.5000 O.2       2 ALA2        0.0000 
      9 O         105.9300  200.5400  185.6600 O.2       2 ALA2        0.0000 
     10 O         104.8600  201.5500  185.9500 O.2       2 ALA2        0.0000 
     11 OD1       106.0100  198.1100  186.5900 O.co2     3 ASP3        0.0000 
     12 OD1       111.1200  198.6700  180.3600 O.co2     3 ASP3        0.0000 
     13 OD1       111.1700  198.3000  181.8100 O.co2     3 ASP3        0.0000 
     14 OD1       110.1000  199.3100  182.1000 O.co2     3 ASP3        0.0000 
     15 OD1       111.0900  200.7200  180.8800 O.co2     3 ASP3        0.0000 
     16 OD1       111.1400  200.3500  182.3300 O.co2     3 ASP3        0.0000 
     17 OD1       112.1900  201.4000  182.5700 O.co2     3 ASP3        0.0000 
     18 OD1       112.2400  201.0300  184.0200 O.co2     3 ASP3        0.0000 
     19 CZ        107.0500  195.4200  184.3200 C.ar      4 PHE5        0.0000 
     20 CZ        108.0500  196.8400  183.0900 C.ar      4 PHE5        0.0000 
     21 CZ        106.9800  197.8500  183.3900 C.ar      4 PHE5        0.0000 
     22 CZ        107.0300  197.4800  184.8400 C.ar      4 PHE5        0.0000 
     23 CZ        107.8700  200.0100  179.2600 C.ar      4 PHE5        0.0000 
     24 CZ        106.8000  201.0100  179.5600 C.ar      4 PHE5        0.0000 
     25 CZ        109.1000  197.8900  183.3300 C.ar      4 PHE5        0.0000 
     26 CZ        108.0300  198.9000  183.6200 C.ar      4 PHE5        0.0000 
     27 CZ        107.0000  199.5300  185.3700 C.ar      4 PHE5        0.0000 
     28 CZ        108.8700  201.4300  178.0400 C.ar      4 PHE5        0.0000 
     29 CZ        108.9200  201.0500  179.4900 C.ar      4 PHE5        0.0000 
     30 CZ        107.8500  202.0600  179.7900 C.ar      4 PHE5        0.0000 
     31 CZ        107.9000  201.6900  181.2400 C.ar      4 PHE5        0.0000 
     32 CZ        106.8300  202.7000  181.5300 C.ar      4 PHE5        0.0000 
     33 CZ        110.1500  198.9400  183.5600 C.ar      4 PHE5        0.0000 
     34 CZ        109.0700  199.9400  183.8500 C.ar      4 PHE5        0.0000 
     35 CZ        111.1900  199.9800  183.7900 C.ar      4 PHE5        0.0000 
     36 CZ        110.1200  200.9900  184.0800 C.ar      4 PHE5        0.0000 
     37 CZ        110.1700  200.6200  185.5300 C.ar      4 PHE5        0.0000 
     38 CA        105.9800  196.4300  184.6100 C.3       5 GLY6        0.0000 
     39 CA        106.8800  198.5900  180.4800 C.3       5 GLY6        0.0000 
     40 CA        108.0000  197.2100  181.6400 C.3       5 GLY6        0.0000 
     41 CA        105.9100  198.8500  183.6800 C.3       5 GLY6        0.0000 
     42 CA        104.8300  199.8600  183.9800 C.3       5 GLY6        0.0000 
     43 CA        105.9600  198.4800  185.1400 C.3       5 GLY6        0.0000 
     44 CA        109.0000  198.6300  180.4200 C.3       5 GLY6        0.0000 
     45 CA        106.8500  200.6400  181.0100 C.3       5 GLY6        0.0000 
     46 CA        110.1200  197.2500  181.5800 C.3       5 GLY6        0.0000 
     47 CA        109.0500  198.2600  181.8700 C.3       5 GLY6        0.0000 
     48 CA        106.9000  200.2700  182.4600 C.3       5 GLY6        0.0000 
     49 CA        105.8300  201.2800  182.7600 C.3       5 GLY6        0.0000 
     50 CA        104.7600  202.2900  183.0500 C.3       5 GLY6        0.0000 
     51 CA        106.9500  199.9000  183.9100 C.3       5 GLY6        0.0000 
     52 CA        105.8800  200.9100  184.2100 C.3       5 GLY6        0.0000 
     53 CA        105.9800  200.1700  187.1100 C.3       5 GLY6        0.0000 
     54 CA        109.9900  200.0500  179.2000 C.3       5 GLY6        0.0000 
     55 CA        110.0500  199.6800  180.6500 C.3       5 GLY6        0.0000 
     56 CA        106.8800  202.3300  182.9900 C.3       5 GLY6        0.0000 
     57 CA        105.8100  203.3400  183.2800 C.3       5 GLY6        0.0000 
     58 CA        106.9300  201.9600  184.4400 C.3       5 GLY6        0.0000 
     59 CA        105.8600  202.9600  184.7300 C.3       5 GLY6        0.0000 
     60 CA        106.9800  201.5900  185.8900 C.3       5 GLY6        0.0000 
     61 CA        107.0300  201.2200  187.3400 C.3       5 GLY6        0.0000 
     62 DU        107.9300  199.6400  180.7100 H         6 CUB7        0.0000 
     63 DU        107.9800  199.2700  182.1700 H         6 CUB7        0.0000 
     64 DU        108.9700  200.6800  180.9500 H         6 CUB7        0.0000 
     65 DU        109.0200  200.3100  182.4000 H         6 CUB7        0.0000 
     66 DU        107.9500  201.3200  182.6900 H         6 CUB7        0.0000 
     67 DU        108.0000  200.9500  184.1400 H         6 CUB7        0.0000 
     68 DU        110.0200  201.7300  181.1800 H         6 CUB7        0.0000 
     69 DU        108.9500  202.7400  181.4700 H         6 CUB7        0.0000 
     70 DU        110.0700  201.3600  182.6300 H         6 CUB7        0.0000 
     71 DU        109.0500  202.0000  184.3800 H         6 CUB7        0.0000 
     72 DU        111.0700  202.7800  181.4100 H         6 CUB7        0.0000 
     73 DU        111.1200  202.4100  182.8600 H         6 CUB7        0.0000 
@<TRIPOS>BOND
@<TRIPOS>SUBSTRUCTURE
     1 SER1        1 GROUP   
     2 ALA2        4 GROUP   
     3 ASP3       11 GROUP   
     4 PHE5       19 GROUP   
     5 GLY6       38 GROUP   
     6 CUB7       62 GROUP   
@<TRIPOS>SET

