#    Name: 5yke_4_GBM
#    Modification time : Fri May 22 19:28:09 2020

@<TRIPOS>MOLECULE
5yke_4_GBM
   33    35     1     0     0
SMALL
NO_CHARGES


@<TRIPOS>ATOM
      1 O3        215.4210  129.5370  178.8090           1 GBM2001     0.0000 
      2 O4        216.1460  127.7490  180.7930           1 GBM2001     0.0000 
      3 O5        217.4710  126.0310  179.9610           1 GBM2001     0.0000 
      4 O6        221.0410  127.9280  183.0400           1 GBM2001     0.0000 
      5 CL1       223.6960  130.1870  188.3210           1 GBM2001     0.0000 
      6 S2        217.1550  127.4280  179.8170           1 GBM2001     0.0000 
      7 O7        219.9300  126.7370  185.2140           1 GBM2001     0.0000 
      8 N8        215.6550  129.0040  176.6860           1 GBM2001     0.0000 
      9 N9        216.6180  127.7050  178.3200           1 GBM2001     0.0000 
     10 N10       222.5020  129.6150  183.2070           1 GBM2001     0.0000 
     11 C11       216.3240  128.2990  175.6170           1 GBM2001     0.0000 
     12 C12       217.6630  128.9720  175.3590           1 GBM2001     0.0000 
     13 C13       215.4480  128.3940  174.3760           1 GBM2001     0.0000 
     14 C14       218.3510  128.3950  174.1320           1 GBM2001     0.0000 
     15 C15       216.1420  127.8480  173.1350           1 GBM2001     0.0000 
     16 C16       217.4650  128.5620  172.9070           1 GBM2001     0.0000 
     17 C17       215.8850  128.7730  177.9760           1 GBM2001     0.0000 
     18 C18       218.4710  128.2910  180.1220           1 GBM2001     0.0000 
     19 C19       220.7410  129.8000  180.6800           1 GBM2001     0.0000 
     20 C20       221.9630  130.6210  181.0100           1 GBM2001     0.0000 
     21 C21       219.6380  128.1030  179.3840           1 GBM2001     0.0000 
     22 C22       218.4500  129.2330  181.1450           1 GBM2001     0.0000 
     23 C23       220.7740  128.8560  179.6620           1 GBM2001     0.0000 
     24 C24       219.5820  129.9850  181.4230           1 GBM2001     0.0000 
     25 C25       222.0060  130.7980  182.5250           1 GBM2001     0.0000 
     26 C26       221.7160  128.6710  183.7300           1 GBM2001     0.0000 
     27 C27       221.7000  128.5070  185.2200           1 GBM2001     0.0000 
     28 C28       220.8010  127.5380  185.9070           1 GBM2001     0.0000 
     29 C29       222.5590  129.2850  185.9810           1 GBM2001     0.0000 
     30 C30       220.8550  127.4480  187.2920           1 GBM2001     0.0000 
     31 C31       222.5740  129.1610  187.3650           1 GBM2001     0.0000 
     32 C32       221.7330  128.2550  188.0100           1 GBM2001     0.0000 
     33 C33       220.2570  125.3750  184.9390           1 GBM2001     0.0000 
@<TRIPOS>BOND
     1    1   17 du   
     2    2    6 du   
     3    3    6 du   
     4    4   26 du   
     5    5   31 du   
     6    6    9 du   
     7    6   18 du   
     8    7   28 du   
     9    7   33 du   
    10    8   11 du   
    11    8   17 du   
    12    9   17 du   
    13   10   25 du   
    14   10   26 du   
    15   11   12 du   
    16   11   13 du   
    17   12   14 du   
    18   13   15 du   
    19   14   16 du   
    20   15   16 du   
    21   18   21 du   
    22   18   22 du   
    23   19   20 du   
    24   19   23 du   
    25   19   24 du   
    26   20   25 du   
    27   21   23 du   
    28   22   24 du   
    29   26   27 du   
    30   27   28 du   
    31   27   29 du   
    32   28   30 du   
    33   29   31 du   
    34   30   32 du   
    35   31   32 du   
@<TRIPOS>SUBSTRUCTURE
     1 GBM2001     1 GROUP   
@<TRIPOS>SET

