#    Name: 5yke_1_GBM
#    Modification time : Fri May 22 19:27:29 2020

@<TRIPOS>MOLECULE
5yke_1_GBM
   33    35     1     0     0
SMALL
NO_CHARGES


@<TRIPOS>ATOM
      1 O3        199.6230  215.4210  178.8090           1 GBM2001     0.0000 
      2 O4        201.4110  216.1460  180.7930           1 GBM2001     0.0000 
      3 O5        203.1290  217.4710  179.9610           1 GBM2001     0.0000 
      4 O6        201.2320  221.0410  183.0400           1 GBM2001     0.0000 
      5 CL1       198.9730  223.6960  188.3210           1 GBM2001     0.0000 
      6 S2        201.7320  217.1550  179.8170           1 GBM2001     0.0000 
      7 O7        202.4230  219.9300  185.2140           1 GBM2001     0.0000 
      8 N8        200.1560  215.6550  176.6860           1 GBM2001     0.0000 
      9 N9        201.4550  216.6180  178.3200           1 GBM2001     0.0000 
     10 N10       199.5450  222.5020  183.2070           1 GBM2001     0.0000 
     11 C11       200.8610  216.3240  175.6170           1 GBM2001     0.0000 
     12 C12       200.1880  217.6630  175.3590           1 GBM2001     0.0000 
     13 C13       200.7660  215.4480  174.3760           1 GBM2001     0.0000 
     14 C14       200.7650  218.3510  174.1320           1 GBM2001     0.0000 
     15 C15       201.3120  216.1420  173.1350           1 GBM2001     0.0000 
     16 C16       200.5980  217.4650  172.9070           1 GBM2001     0.0000 
     17 C17       200.3870  215.8850  177.9760           1 GBM2001     0.0000 
     18 C18       200.8690  218.4710  180.1220           1 GBM2001     0.0000 
     19 C19       199.3600  220.7410  180.6800           1 GBM2001     0.0000 
     20 C20       198.5390  221.9630  181.0100           1 GBM2001     0.0000 
     21 C21       201.0570  219.6380  179.3840           1 GBM2001     0.0000 
     22 C22       199.9270  218.4500  181.1450           1 GBM2001     0.0000 
     23 C23       200.3040  220.7740  179.6620           1 GBM2001     0.0000 
     24 C24       199.1750  219.5820  181.4230           1 GBM2001     0.0000 
     25 C25       198.3620  222.0060  182.5250           1 GBM2001     0.0000 
     26 C26       200.4890  221.7160  183.7300           1 GBM2001     0.0000 
     27 C27       200.6530  221.7000  185.2200           1 GBM2001     0.0000 
     28 C28       201.6220  220.8010  185.9070           1 GBM2001     0.0000 
     29 C29       199.8750  222.5590  185.9810           1 GBM2001     0.0000 
     30 C30       201.7120  220.8550  187.2920           1 GBM2001     0.0000 
     31 C31       199.9990  222.5740  187.3650           1 GBM2001     0.0000 
     32 C32       200.9050  221.7330  188.0100           1 GBM2001     0.0000 
     33 C33       203.7850  220.2570  184.9390           1 GBM2001     0.0000 
@<TRIPOS>BOND
     1    1   17 du   
     2    2    6 du   
     3    3    6 du   
     4    4   26 du   
     5    5   31 du   
     6    6    9 du   
     7    6   18 du   
     8    7   28 du   
     9    7   33 du   
    10    8   11 du   
    11    8   17 du   
    12    9   17 du   
    13   10   25 du   
    14   10   26 du   
    15   11   12 du   
    16   11   13 du   
    17   12   14 du   
    18   13   15 du   
    19   14   16 du   
    20   15   16 du   
    21   18   21 du   
    22   18   22 du   
    23   19   20 du   
    24   19   23 du   
    25   19   24 du   
    26   20   25 du   
    27   21   23 du   
    28   22   24 du   
    29   26   27 du   
    30   27   28 du   
    31   27   29 du   
    32   28   30 du   
    33   29   31 du   
    34   30   32 du   
    35   31   32 du   
@<TRIPOS>SUBSTRUCTURE
     1 GBM2001     1 GROUP   
@<TRIPOS>SET

