#    Name: 5yke_2_GBM
#    Modification time : Fri May 22 19:27:42 2020

@<TRIPOS>MOLECULE
5yke_2_GBM
   33    35     1     0     0
SMALL
NO_CHARGES


@<TRIPOS>ATOM
      1 O3        113.7390  199.6230  178.8090           1 GBM2001     0.0000 
      2 O4        113.0140  201.4110  180.7930           1 GBM2001     0.0000 
      3 O5        111.6890  203.1290  179.9610           1 GBM2001     0.0000 
      4 O6        108.1190  201.2320  183.0400           1 GBM2001     0.0000 
      5 CL1       105.4640  198.9730  188.3210           1 GBM2001     0.0000 
      6 S2        112.0050  201.7320  179.8170           1 GBM2001     0.0000 
      7 O7        109.2300  202.4230  185.2140           1 GBM2001     0.0000 
      8 N8        113.5050  200.1560  176.6860           1 GBM2001     0.0000 
      9 N9        112.5420  201.4550  178.3200           1 GBM2001     0.0000 
     10 N10       106.6580  199.5450  183.2070           1 GBM2001     0.0000 
     11 C11       112.8360  200.8610  175.6170           1 GBM2001     0.0000 
     12 C12       111.4970  200.1880  175.3590           1 GBM2001     0.0000 
     13 C13       113.7120  200.7660  174.3760           1 GBM2001     0.0000 
     14 C14       110.8090  200.7650  174.1320           1 GBM2001     0.0000 
     15 C15       113.0180  201.3120  173.1350           1 GBM2001     0.0000 
     16 C16       111.6950  200.5980  172.9070           1 GBM2001     0.0000 
     17 C17       113.2750  200.3870  177.9760           1 GBM2001     0.0000 
     18 C18       110.6890  200.8690  180.1220           1 GBM2001     0.0000 
     19 C19       108.4190  199.3600  180.6800           1 GBM2001     0.0000 
     20 C20       107.1970  198.5390  181.0100           1 GBM2001     0.0000 
     21 C21       109.5220  201.0570  179.3840           1 GBM2001     0.0000 
     22 C22       110.7100  199.9270  181.1450           1 GBM2001     0.0000 
     23 C23       108.3860  200.3040  179.6620           1 GBM2001     0.0000 
     24 C24       109.5780  199.1750  181.4230           1 GBM2001     0.0000 
     25 C25       107.1540  198.3620  182.5250           1 GBM2001     0.0000 
     26 C26       107.4440  200.4890  183.7300           1 GBM2001     0.0000 
     27 C27       107.4600  200.6530  185.2200           1 GBM2001     0.0000 
     28 C28       108.3590  201.6220  185.9070           1 GBM2001     0.0000 
     29 C29       106.6010  199.8750  185.9810           1 GBM2001     0.0000 
     30 C30       108.3050  201.7120  187.2920           1 GBM2001     0.0000 
     31 C31       106.5860  199.9990  187.3650           1 GBM2001     0.0000 
     32 C32       107.4270  200.9050  188.0100           1 GBM2001     0.0000 
     33 C33       108.9030  203.7850  184.9390           1 GBM2001     0.0000 
@<TRIPOS>BOND
     1    1   17 du   
     2    2    6 du   
     3    3    6 du   
     4    4   26 du   
     5    5   31 du   
     6    6    9 du   
     7    6   18 du   
     8    7   28 du   
     9    7   33 du   
    10    8   11 du   
    11    8   17 du   
    12    9   17 du   
    13   10   25 du   
    14   10   26 du   
    15   11   12 du   
    16   11   13 du   
    17   12   14 du   
    18   13   15 du   
    19   14   16 du   
    20   15   16 du   
    21   18   21 du   
    22   18   22 du   
    23   19   20 du   
    24   19   23 du   
    25   19   24 du   
    26   20   25 du   
    27   21   23 du   
    28   22   24 du   
    29   26   27 du   
    30   27   28 du   
    31   27   29 du   
    32   28   30 du   
    33   29   31 du   
    34   30   32 du   
    35   31   32 du   
@<TRIPOS>SUBSTRUCTURE
     1 GBM2001     1 GROUP   
@<TRIPOS>SET

