#    Name: 5yke_3_GBM
#    Modification time : Fri May 22 19:27:56 2020

@<TRIPOS>MOLECULE
5yke_3_GBM
   33    35     1     0     0
SMALL
NO_CHARGES


@<TRIPOS>ATOM
      1 O3        129.5370  113.7390  178.8090           1 GBM2001     0.0000 
      2 O4        127.7490  113.0140  180.7930           1 GBM2001     0.0000 
      3 O5        126.0310  111.6890  179.9610           1 GBM2001     0.0000 
      4 O6        127.9280  108.1190  183.0400           1 GBM2001     0.0000 
      5 CL1       130.1870  105.4640  188.3210           1 GBM2001     0.0000 
      6 S2        127.4280  112.0050  179.8170           1 GBM2001     0.0000 
      7 O7        126.7370  109.2300  185.2140           1 GBM2001     0.0000 
      8 N8        129.0040  113.5050  176.6860           1 GBM2001     0.0000 
      9 N9        127.7050  112.5420  178.3200           1 GBM2001     0.0000 
     10 N10       129.6150  106.6580  183.2070           1 GBM2001     0.0000 
     11 C11       128.2990  112.8360  175.6170           1 GBM2001     0.0000 
     12 C12       128.9720  111.4970  175.3590           1 GBM2001     0.0000 
     13 C13       128.3940  113.7120  174.3760           1 GBM2001     0.0000 
     14 C14       128.3950  110.8090  174.1320           1 GBM2001     0.0000 
     15 C15       127.8480  113.0180  173.1350           1 GBM2001     0.0000 
     16 C16       128.5620  111.6950  172.9070           1 GBM2001     0.0000 
     17 C17       128.7730  113.2750  177.9760           1 GBM2001     0.0000 
     18 C18       128.2910  110.6890  180.1220           1 GBM2001     0.0000 
     19 C19       129.8000  108.4190  180.6800           1 GBM2001     0.0000 
     20 C20       130.6210  107.1970  181.0100           1 GBM2001     0.0000 
     21 C21       128.1030  109.5220  179.3840           1 GBM2001     0.0000 
     22 C22       129.2330  110.7100  181.1450           1 GBM2001     0.0000 
     23 C23       128.8560  108.3860  179.6620           1 GBM2001     0.0000 
     24 C24       129.9850  109.5780  181.4230           1 GBM2001     0.0000 
     25 C25       130.7980  107.1540  182.5250           1 GBM2001     0.0000 
     26 C26       128.6710  107.4440  183.7300           1 GBM2001     0.0000 
     27 C27       128.5070  107.4600  185.2200           1 GBM2001     0.0000 
     28 C28       127.5380  108.3590  185.9070           1 GBM2001     0.0000 
     29 C29       129.2850  106.6010  185.9810           1 GBM2001     0.0000 
     30 C30       127.4480  108.3050  187.2920           1 GBM2001     0.0000 
     31 C31       129.1610  106.5860  187.3650           1 GBM2001     0.0000 
     32 C32       128.2550  107.4270  188.0100           1 GBM2001     0.0000 
     33 C33       125.3750  108.9030  184.9390           1 GBM2001     0.0000 
@<TRIPOS>BOND
     1    1   17 du   
     2    2    6 du   
     3    3    6 du   
     4    4   26 du   
     5    5   31 du   
     6    6    9 du   
     7    6   18 du   
     8    7   28 du   
     9    7   33 du   
    10    8   11 du   
    11    8   17 du   
    12    9   17 du   
    13   10   25 du   
    14   10   26 du   
    15   11   12 du   
    16   11   13 du   
    17   12   14 du   
    18   13   15 du   
    19   14   16 du   
    20   15   16 du   
    21   18   21 du   
    22   18   22 du   
    23   19   20 du   
    24   19   23 du   
    25   19   24 du   
    26   20   25 du   
    27   21   23 du   
    28   22   24 du   
    29   26   27 du   
    30   27   28 du   
    31   27   29 du   
    32   28   30 du   
    33   29   31 du   
    34   30   32 du   
    35   31   32 du   
@<TRIPOS>SUBSTRUCTURE
     1 GBM2001     1 GROUP   
@<TRIPOS>SET

