#    Name: 6dm0_4_CYZ
#    Modification time : Fri May 22 19:44:11 2020

@<TRIPOS>MOLECULE
6dm0_4_CYZ
   24    31     1     0     0
SMALL
NO_CHARGES


@<TRIPOS>ATOM
      1 C1        171.5190  141.5430  169.3390 C.3       1 CYZ1302     0.0000 
      2 C2        171.7270  140.4370  169.2980 C.3       1 CYZ1302     0.0000 
      3 C3        171.3100  139.5350  168.7690 Du        1 CYZ1302     0.0000 
      4 C4        169.7430  139.7660  168.9220 Du        1 CYZ1302     0.0000 
      5 C5        169.7300  140.6420  169.5550 C.3       1 CYZ1302     0.0000 
      6 C6        170.1330  141.6800  169.4080 C.3       1 CYZ1302     0.0000 
      7 C7        170.6440  140.2530  170.4120 Du        1 CYZ1302     0.0000 
      8 C8        172.0660  142.2510  167.8750 C.3       1 CYZ1302     0.0000 
      9 N1        173.3840  141.8220  167.6310 N.pl3     1 CYZ1302     0.0000 
     10 S1        173.7750  142.3990  166.2070 S.o2      1 CYZ1302     0.0000 
     11 C9        173.2910  143.9160  165.8680 C.ar      1 CYZ1302     0.0000 
     12 C10       172.4500  144.5330  166.7040 C.ar      1 CYZ1302     0.0000 
     13 N2        171.9630  143.7470  167.9620 N.pl3     1 CYZ1302     0.0000 
     14 C11       173.7720  144.5590  164.7110 C.ar      1 CYZ1302     0.0000 
     15 C12       173.3600  145.8290  164.4550 C.ar      1 CYZ1302     0.0000 
     16 C13       172.4810  146.4780  165.3120 C.ar      1 CYZ1302     0.0000 
     17 C14       172.0200  145.8480  166.4420 C.ar      1 CYZ1302     0.0000 
     18 CL        171.9550  148.1600  164.9430 Cl        1 CYZ1302     0.0000 
     19 S2        173.9860  146.6660  162.9510 S.o2      1 CYZ1302     0.0000 
     20 O1        173.1630  141.5510  165.2250 O.2       1 CYZ1302     0.0000 
     21 O2        175.2530  142.4050  166.1070 O.2       1 CYZ1302     0.0000 
     22 O3        175.1550  145.9080  162.3780 O.2       1 CYZ1302     0.0000 
     23 O4        174.6160  147.9580  163.2740 O.2       1 CYZ1302     0.0000 
     24 N3        172.6660  146.8480  161.8200 N.pl3     1 CYZ1302     0.0000 
@<TRIPOS>BOND
     1    1    2 1    
     2    1    6 1    
     3    1    7 du   
     4    1    8 1    
     5    2    3 du   
     6    2    7 du   
     7    3    4 du   
     8    3    7 du   
     9    4    5 du   
    10    4    7 du   
    11    5    6 1    
    12    5    7 du   
    13    6    7 du   
    14    8    9 1    
    15    8   13 1    
    16    9   10 1    
    17   10   11 1    
    18   10   20 2    
    19   10   21 2    
    20   11   12 ar   
    21   11   14 ar   
    22   12   13 1    
    23   12   17 ar   
    24   14   15 ar   
    25   15   16 ar   
    26   15   19 1    
    27   16   17 ar   
    28   16   18 1    
    29   19   22 2    
    30   19   23 2    
    31   19   24 1    
@<TRIPOS>SUBSTRUCTURE
     1 CYZ1302     1 GROUP   
@<TRIPOS>SET

