#    Name: 6dm0_3_CYZ
#    Modification time : Fri May 22 19:43:57 2020

@<TRIPOS>MOLECULE
6dm0_3_CYZ
   24    31     1     0     0
SMALL
NO_CHARGES


@<TRIPOS>ATOM
      1 C1        144.8620  189.3320  165.7890 C.3       1 CYZ1302     0.0000 
      2 C2        144.5540  188.3300  166.2010 C.3       1 CYZ1302     0.0000 
      3 C3        143.9450  187.4440  165.8590 Du        1 CYZ1302     0.0000 
      4 C4        142.6660  188.1640  165.2430 Du        1 CYZ1302     0.0000 
      5 C5        142.8830  189.1990  165.4820 C.3       1 CYZ1302     0.0000 
      6 C6        143.7300  189.8800  165.1940 C.3       1 CYZ1302     0.0000 
      7 C7        143.2550  189.0240  166.7280 Du        1 CYZ1302     0.0000 
      8 C8        146.0280  189.0380  164.5730 C.3       1 CYZ1302     0.0000 
      9 N1        147.2540  188.7410  165.1890 N.pl3     1 CYZ1302     0.0000 
     10 S1        148.1820  188.2370  164.0060 S.o2      1 CYZ1302     0.0000 
     11 C9        148.0970  189.0800  162.6140 C.ar      1 CYZ1302     0.0000 
     12 C10       147.1380  190.0000  162.4620 C.ar      1 CYZ1302     0.0000 
     13 N2        146.1310  190.2100  163.6370 N.pl3     1 CYZ1302     0.0000 
     14 C11       149.0350  188.8240  161.6020 C.ar      1 CYZ1302     0.0000 
     15 C12       148.9530  189.5450  160.4580 C.ar      1 CYZ1302     0.0000 
     16 C13       147.9650  190.4990  160.2820 C.ar      1 CYZ1302     0.0000 
     17 C14       147.0460  190.7380  161.2710 C.ar      1 CYZ1302     0.0000 
     18 CL        147.8770  191.4260  158.7440 Cl        1 CYZ1302     0.0000 
     19 S2        150.1790  189.2150  159.1420 S.o2      1 CYZ1302     0.0000 
     20 O1        147.7720  186.8980  163.6840 O.2       1 CYZ1302     0.0000 
     21 O2        149.5870  188.3160  164.4720 O.2       1 CYZ1302     0.0000 
     22 O3        151.3410  188.4410  159.6990 O.2       1 CYZ1302     0.0000 
     23 O4        150.8330  190.4540  158.6850 O.2       1 CYZ1302     0.0000 
     24 N3        149.3820  188.3730  157.8350 N.pl3     1 CYZ1302     0.0000 
@<TRIPOS>BOND
     1    1    2 1    
     2    1    6 1    
     3    1    7 du   
     4    1    8 1    
     5    2    3 du   
     6    2    7 du   
     7    3    4 du   
     8    3    7 du   
     9    4    5 du   
    10    4    7 du   
    11    5    6 1    
    12    5    7 du   
    13    6    7 du   
    14    8    9 1    
    15    8   13 1    
    16    9   10 1    
    17   10   11 1    
    18   10   20 2    
    19   10   21 2    
    20   11   12 ar   
    21   11   14 ar   
    22   12   13 1    
    23   12   17 ar   
    24   14   15 ar   
    25   15   16 ar   
    26   15   19 1    
    27   16   17 ar   
    28   16   18 1    
    29   19   22 2    
    30   19   23 2    
    31   19   24 1    
@<TRIPOS>SUBSTRUCTURE
     1 CYZ1302     1 GROUP   
@<TRIPOS>SET

