#    Name: 6dm0_1_CYZ
#    Modification time : Fri May 22 19:43:28 2020

@<TRIPOS>MOLECULE
6dm0_1_CYZ
   24    31     1     0     0
SMALL
NO_CHARGES


@<TRIPOS>ATOM
      1 C1        179.1530  134.6980  165.7800 C.3       1 CYZ1302     0.0000 
      2 C2        179.4450  135.6990  166.2070 C.3       1 CYZ1302     0.0000 
      3 C3        180.0450  136.5970  165.8820 Du        1 CYZ1302     0.0000 
      4 C4        181.3370  135.9030  165.2670 Du        1 CYZ1302     0.0000 
      5 C5        181.1330  134.8620  165.4900 C.3       1 CYZ1302     0.0000 
      6 C6        180.2970  134.1740  165.1850 C.3       1 CYZ1302     0.0000 
      7 C7        180.7490  135.0150  166.7350 Du        1 CYZ1302     0.0000 
      8 C8        177.9910  134.9910  164.5610 C.3       1 CYZ1302     0.0000 
      9 N1        176.7660  135.2950  165.1770 N.pl3     1 CYZ1302     0.0000 
     10 S1        175.8390  135.7990  163.9940 S.o2      1 CYZ1302     0.0000 
     11 C9        175.9200  134.9530  162.6040 C.ar      1 CYZ1302     0.0000 
     12 C10       176.8760  134.0300  162.4520 C.ar      1 CYZ1302     0.0000 
     13 N2        177.8830  133.8180  163.6270 N.pl3     1 CYZ1302     0.0000 
     14 C11       174.9820  135.2110  161.5920 C.ar      1 CYZ1302     0.0000 
     15 C12       175.0600  134.4890  160.4500 C.ar      1 CYZ1302     0.0000 
     16 C13       176.0450  133.5320  160.2740 C.ar      1 CYZ1302     0.0000 
     17 C14       176.9630  133.2900  161.2620 C.ar      1 CYZ1302     0.0000 
     18 CL        176.1280  132.6020  158.7360 Cl        1 CYZ1302     0.0000 
     19 S2        173.8330  134.8230  159.1360 S.o2      1 CYZ1302     0.0000 
     20 O1        176.2530  137.1360  163.6690 O.2       1 CYZ1302     0.0000 
     21 O2        174.4340  135.7260  164.4620 O.2       1 CYZ1302     0.0000 
     22 O3        172.6730  135.5980  159.6970 O.2       1 CYZ1302     0.0000 
     23 O4        173.1770  133.5860  158.6770 O.2       1 CYZ1302     0.0000 
     24 N3        174.6290  135.6670  157.8290 N.pl3     1 CYZ1302     0.0000 
@<TRIPOS>BOND
     1    1    2 1    
     2    1    6 1    
     3    1    7 du   
     4    1    8 1    
     5    2    3 du   
     6    2    7 du   
     7    3    4 du   
     8    3    7 du   
     9    4    5 du   
    10    4    7 du   
    11    5    6 1    
    12    5    7 du   
    13    6    7 du   
    14    8    9 1    
    15    8   13 1    
    16    9   10 1    
    17   10   11 1    
    18   10   20 2    
    19   10   21 2    
    20   11   12 ar   
    21   11   14 ar   
    22   12   13 1    
    23   12   17 ar   
    24   14   15 ar   
    25   15   16 ar   
    26   15   19 1    
    27   16   17 ar   
    28   16   18 1    
    29   19   22 2    
    30   19   23 2    
    31   19   24 1    
@<TRIPOS>SUBSTRUCTURE
     1 CYZ1302     1 GROUP   
@<TRIPOS>SET

