#    Name: 6dm0_2_CYZ
#    Modification time : Fri May 22 19:43:42 2020

@<TRIPOS>MOLECULE
6dm0_2_CYZ
   24    31     1     0     0
SMALL
NO_CHARGES


@<TRIPOS>ATOM
      1 C1        152.4690  182.4690  169.3270 C.3       1 CYZ1302     0.0000 
      2 C2        152.2690  183.5760  169.2820 C.3       1 CYZ1302     0.0000 
      3 C3        152.6960  184.4740  168.7530 Du        1 CYZ1302     0.0000 
      4 C4        154.2610  184.2330  168.9210 Du        1 CYZ1302     0.0000 
      5 C5        154.2620  183.3590  169.5560 C.3       1 CYZ1302     0.0000 
      6 C6        153.8530  182.3220  169.4090 C.3       1 CYZ1302     0.0000 
      7 C7        153.3440  183.7560  170.4040 Du        1 CYZ1302     0.0000 
      8 C8        151.9290  181.7630  167.8600 C.3       1 CYZ1302     0.0000 
      9 N1        150.6120  182.1930  167.6090 N.pl3     1 CYZ1302     0.0000 
     10 S1        150.2330  181.6210  166.1800 S.o2      1 CYZ1302     0.0000 
     11 C9        150.7130  180.1020  165.8450 C.ar      1 CYZ1302     0.0000 
     12 C10       151.5460  179.4830  166.6860 C.ar      1 CYZ1302     0.0000 
     13 N2        152.0300  180.2670  167.9460 N.pl3     1 CYZ1302     0.0000 
     14 C11       150.2340  179.4610  164.6860 C.ar      1 CYZ1302     0.0000 
     15 C12       150.6430  178.1900  164.4330 C.ar      1 CYZ1302     0.0000 
     16 C13       151.5150  177.5370  165.2940 C.ar      1 CYZ1302     0.0000 
     17 C14       151.9730  178.1650  166.4260 C.ar      1 CYZ1302     0.0000 
     18 CL        152.0360  175.8530  164.9280 Cl        1 CYZ1302     0.0000 
     19 S2        150.0210  177.3540  162.9260 S.o2      1 CYZ1302     0.0000 
     20 O1        150.8630  182.4650  165.2070 O.2       1 CYZ1302     0.0000 
     21 O2        148.7570  181.6240  166.0600 O.2       1 CYZ1302     0.0000 
     22 O3        148.8600  178.1170  162.3460 O.2       1 CYZ1302     0.0000 
     23 O4        149.3820  176.0670  163.2480 O.2       1 CYZ1302     0.0000 
     24 N3        151.3470  177.1640  161.8030 N.pl3     1 CYZ1302     0.0000 
@<TRIPOS>BOND
     1    1    2 1    
     2    1    6 1    
     3    1    7 du   
     4    1    8 1    
     5    2    3 du   
     6    2    7 du   
     7    3    4 du   
     8    3    7 du   
     9    4    5 du   
    10    4    7 du   
    11    5    6 1    
    12    5    7 du   
    13    6    7 du   
    14    8    9 1    
    15    8   13 1    
    16    9   10 1    
    17   10   11 1    
    18   10   20 2    
    19   10   21 2    
    20   11   12 ar   
    21   11   14 ar   
    22   12   13 1    
    23   12   17 ar   
    24   14   15 ar   
    25   15   16 ar   
    26   15   19 1    
    27   16   17 ar   
    28   16   18 1    
    29   19   22 2    
    30   19   23 2    
    31   19   24 1    
@<TRIPOS>SUBSTRUCTURE
     1 CYZ1302     1 GROUP   
@<TRIPOS>SET

