#    Name: 5na1_1_FAD_CAVITY_N1_4
#    Modification time : Fri May 22 19:12:34 2020

@<TRIPOS>MOLECULE
5na1_1_FAD_CAVITY_N1_4
   67     0     7     0     0
SMALL
NO_CHARGES


@<TRIPOS>ATOM
      1 OG         10.9600    7.2800  -29.4000 O.3       1 SER1        0.0000 
      2 OG         10.7400    9.2100  -30.2500 O.3       1 SER1        0.0000 
      3 OG          9.4300    9.9900  -28.1500 O.3       1 SER1        0.0000 
      4 OG         11.3500    9.8200  -29.0200 O.3       1 SER1        0.0000 
      5 OG         12.2100   10.7000  -29.8900 O.3       1 SER1        0.0000 
      6 OG         10.0400   10.6000  -26.9200 O.3       1 SER1        0.0000 
      7 OG         10.8900   11.4800  -27.7800 O.3       1 SER1        0.0000 
      8 OG         11.9700   10.4300  -27.8000 O.3       1 SER1        0.0000 
      9 OG         11.7500   12.3600  -28.6500 O.3       1 SER1        0.0000 
     10 OG         12.8200   11.3100  -28.6600 O.3       1 SER1        0.0000 
     11 OG         12.6000   13.2400  -29.5100 O.3       1 SER1        0.0000 
     12 OG         12.3600   12.9700  -27.4200 O.3       1 SER1        0.0000 
     13 OG         18.1100   10.2600  -27.1100 O.3       1 SER1        0.0000 
     14 OG         17.8900   12.1900  -27.9600 O.3       1 SER1        0.0000 
     15 OG         18.7400   13.0800  -28.8300 O.3       1 SER1        0.0000 
     16 OG         18.0900    8.0600  -24.1700 O.3       1 SER1        0.0000 
     17 O           9.0400    7.4500  -28.5200 O.2       2 ALA2        0.0000 
     18 N           8.5800    9.1000  -27.2800 N.am      2 ALA2        0.0000 
     19 N           9.6500    8.0600  -27.3000 N.am      2 ALA2        0.0000 
     20 N          10.5000    8.9400  -28.1600 N.am      2 ALA2        0.0000 
     21 N          11.5700    7.8900  -28.1700 N.am      2 ALA2        0.0000 
     22 N           9.1900    9.7100  -26.0600 N.am      2 ALA2        0.0000 
     23 N          11.1100    9.5500  -26.9300 N.am      2 ALA2        0.0000 
     24 N          12.1400   14.9000  -28.2700 N.am      2 ALA2        0.0000 
     25 N          13.2100   13.8500  -28.2800 N.am      2 ALA2        0.0000 
     26 O          16.5800   12.9700  -25.8600 O.2       2 ALA2        0.0000 
     27 O          17.6500   11.9200  -25.8700 O.2       2 ALA2        0.0000 
     28 O          19.3400   11.4800  -24.6600 O.2       2 ALA2        0.0000 
     29 OD1        16.6500    8.7700  -27.4800 O.co2     3 ASP3        0.0000 
     30 OD1        17.7200    7.7200  -27.4900 O.co2     3 ASP3        0.0000 
     31 NZ         12.4300    8.7700  -29.0400 N.4       4 LYS4        0.0000 
     32 CZ         13.2800    9.6500  -29.9000 C.ar      5 PHE5        0.0000 
     33 CZ         13.8900   10.2600  -28.6700 C.ar      5 PHE5        0.0000 
     34 CZ         13.6700   12.1900  -29.5200 C.ar      5 PHE5        0.0000 
     35 CZ         10.6500   11.2000  -25.6900 C.ar      5 PHE5        0.0000 
     36 CZ         14.2800   12.8000  -28.3000 C.ar      5 PHE5        0.0000 
     37 CZ         15.3500   11.7500  -28.3100 C.ar      5 PHE5        0.0000 
     38 CZ         16.4300   10.7000  -28.3300 C.ar      5 PHE5        0.0000 
     39 CZ         17.5000    9.6500  -28.3400 C.ar      5 PHE5        0.0000 
     40 CZ         15.1300   13.6800  -29.1600 C.ar      5 PHE5        0.0000 
     41 CZ         16.2100   12.6300  -29.1800 C.ar      5 PHE5        0.0000 
     42 CZ         17.2800   11.5900  -29.1900 C.ar      5 PHE5        0.0000 
     43 CA          9.8900    8.3300  -29.3900 C.3       6 GLY6        0.0000 
     44 CA         13.0400    9.3800  -27.8100 C.3       6 GLY6        0.0000 
     45 CA         12.5800   11.0400  -26.5700 C.3       6 GLY6        0.0000 
     46 CA         13.6500    9.9900  -26.5900 C.3       6 GLY6        0.0000 
     47 CA         14.5000   10.8700  -27.4500 C.3       6 GLY6        0.0000 
     48 CA         15.5700    9.8200  -27.4600 C.3       6 GLY6        0.0000 
     49 CA         15.1100   11.4800  -26.2200 C.3       6 GLY6        0.0000 
     50 CA         16.1900   10.4300  -26.2400 C.3       6 GLY6        0.0000 
     51 CA         17.2600    9.3800  -26.2500 C.3       6 GLY6        0.0000 
     52 CA         14.8900   13.4100  -27.0700 C.3       6 GLY6        0.0000 
     53 CA         15.9700   12.3600  -27.0900 C.3       6 GLY6        0.0000 
     54 CA         15.7500   14.2900  -27.9300 C.3       6 GLY6        0.0000 
     55 CA         16.8200   13.2400  -27.9500 C.3       6 GLY6        0.0000 
     56 CA         17.6700   14.1300  -28.8100 C.3       6 GLY6        0.0000 
     57 CA         16.8000   11.0400  -25.0100 C.3       6 GLY6        0.0000 
     58 CA         17.8700    9.9900  -25.0200 C.3       6 GLY6        0.0000 
     59 CA         18.9400    8.9400  -25.0400 C.3       6 GLY6        0.0000 
     60 CA         18.5000   12.8000  -26.7400 C.3       6 GLY6        0.0000 
     61 CA         18.4800   10.6000  -23.8000 C.3       6 GLY6        0.0000 
     62 CA         19.5500    9.5500  -23.8100 C.3       6 GLY6        0.0000 
     63 CA         21.0200   11.0400  -23.4500 C.3       6 GLY6        0.0000 
     64 DU         11.5100   12.0900  -26.5600 H         7 CUB7        0.0000 
     65 DU         13.4300   11.9200  -27.4300 H         7 CUB7        0.0000 
     66 DU         18.3300    8.3300  -26.2600 H         7 CUB7        0.0000 
     67 DU         17.0400   11.3100  -27.1000 H         7 CUB7        0.0000 
@<TRIPOS>BOND
@<TRIPOS>SUBSTRUCTURE
     1 SER1        1 GROUP   
     2 ALA2       17 GROUP   
     3 ASP3       29 GROUP   
     4 LYS4       31 GROUP   
     5 PHE5       32 GROUP   
     6 GLY6       43 GROUP   
     7 CUB7       64 GROUP   
@<TRIPOS>SET

