#    Name: 5na1_1_FAD
#    Modification time : Fri May 22 19:12:32 2020

@<TRIPOS>MOLECULE
5na1_1_FAD
   53    58     1     0     1
SMALL
NO_CHARGES


@<TRIPOS>ATOM
      1 PA          9.6330   12.6150  -18.4400 P.3       1 FAD1001     0.0000 
      2 O1A        10.4940   11.5520  -18.9970 O.co2     1 FAD1001     0.0000 
      3 O2A         8.3830   12.8760  -19.2890 O.co2     1 FAD1001     0.0000 
      4 O5B         9.2550   12.2350  -16.9220 O.3       1 FAD1001     0.0000 
      5 C5B         8.3460   13.0400  -16.1570 C.3       1 FAD1001     0.0000 
      6 C4B         7.9050   12.2230  -14.9700 C.3       1 FAD1001     0.0000 
      7 O4B         6.9880   13.0110  -14.1780 O.3       1 FAD1001     0.0000 
      8 C3B         7.1790   10.9110  -15.2930 C.3       1 FAD1001     0.0000 
      9 O3B         7.5510    9.8680  -14.3970 O.3       1 FAD1001     0.0000 
     10 C2B         5.7060   11.3000  -15.1310 C.3       1 FAD1001     0.0000 
     11 O2B         4.8160   10.2360  -14.8180 O.3       1 FAD1001     0.0000 
     12 C1B         5.8040   12.2660  -13.9560 C.3       1 FAD1001     0.0000 
     13 N9A         4.6870   13.1940  -13.8510 N.pl3     1 FAD1001     0.0000 
     14 C8A         4.2260   14.0250  -14.8380 C.2       1 FAD1001     0.0000 
     15 N7A         3.2660   14.8270  -14.4550 N.2       1 FAD1001     0.0000 
     16 C5A         3.0740   14.4970  -13.1230 C.ar      1 FAD1001     0.0000 
     17 C6A         2.2180   15.0150  -12.1320 C.ar      1 FAD1001     0.0000 
     18 N6A         1.3820   16.0380  -12.3360 N.pl3     1 FAD1001     0.0000 
     19 N1A         2.2820   14.4640  -10.8980 N.ar      1 FAD1001     0.0000 
     20 C2A         3.1600   13.4840  -10.6740 C.ar      1 FAD1001     0.0000 
     21 N3A         4.0280   12.9270  -11.5220 N.ar      1 FAD1001     0.0000 
     22 C4A         3.9370   13.4860  -12.7390 C.ar      1 FAD1001     0.0000 
     23 N1         15.5850   12.1940  -25.9790 N.2       1 FAD1001     0.0000 
     24 C2         16.9270   11.8400  -26.0900 C.2       1 FAD1001     0.0000 
     25 O2         17.8170   12.3870  -25.4300 O.2       1 FAD1001     0.0000 
     26 N3         17.2910   10.7770  -26.8840 N.am      1 FAD1001     0.0000 
     27 C4         16.4330    9.9780  -27.6120 C.2       1 FAD1001     0.0000 
     28 O4         16.8830    9.0640  -28.2920 O.2       1 FAD1001     0.0000 
     29 C4X        15.0280   10.3140  -27.4830 C.2       1 FAD1001     0.0000 
     30 N5         14.1520    9.5420  -28.0750 N.2       1 FAD1001     0.0000 
     31 C5X        12.8080    9.7770  -27.8350 C.ar      1 FAD1001     0.0000 
     32 C6         11.8720    8.8730  -28.3530 C.ar      1 FAD1001     0.0000 
     33 C7         10.5220    8.9730  -28.0420 C.ar      1 FAD1001     0.0000 
     34 C7M         9.5760    7.8980  -28.5050 C.3       1 FAD1001     0.0000 
     35 C8         10.0780   10.0360  -27.2240 C.ar      1 FAD1001     0.0000 
     36 C8M         8.6280   10.1770  -26.8480 C.3       1 FAD1001     0.0000 
     37 C9         11.0040   10.9460  -26.7260 C.ar      1 FAD1001     0.0000 
     38 C9A        12.3660   10.8310  -27.0100 C.ar      1 FAD1001     0.0000 
     39 N10        13.3460   11.6730  -26.4230 N.pl3     1 FAD1001     0.0000 
     40 C10        14.6820   11.4420  -26.6310 C.2       1 FAD1001     0.0000 
     41 C1'        12.9320   12.7900  -25.5490 C.3       1 FAD1001     0.0000 
     42 C2'        12.8890   12.3770  -24.0850 C.3       1 FAD1001     0.0000 
     43 O2'        12.1020   11.1980  -23.9130 O.3       1 FAD1001     0.0000 
     44 C3'        12.3820   13.5020  -23.1820 C.3       1 FAD1001     0.0000 
     45 O3'        13.0130   14.7370  -23.5130 O.3       1 FAD1001     0.0000 
     46 C4'        12.5240   13.1560  -21.7000 C.3       1 FAD1001     0.0000 
     47 O4'        11.5160   12.1960  -21.3830 O.3       1 FAD1001     0.0000 
     48 C5'        12.4630   14.3390  -20.7610 C.3       1 FAD1001     0.0000 
     49 O5'        12.7780   13.8430  -19.4530 O.3       1 FAD1001     0.0000 
     50 P          11.8980   14.4650  -18.2300 P.3       1 FAD1001     0.0000 
     51 O1P        12.3850   13.9600  -16.9170 O.co2     1 FAD1001     0.0000 
     52 O2P        11.8730   15.9700  -18.3420 O.co2     1 FAD1001     0.0000 
     53 O3P        10.3920   14.0100  -18.4590 O.3       1 FAD1001     0.0000 
@<TRIPOS>BOND
     1    1    2 ar   
     2    1    3 ar   
     3    1    4 1    
     4    1   53 1    
     5    4    5 1    
     6    5    6 1    
     7    6    7 1    
     8    6    8 1    
     9    7   12 1    
    10    8    9 1    
    11    8   10 1    
    12   10   11 1    
    13   10   12 1    
    14   12   13 1    
    15   13   14 1    
    16   13   22 1    
    17   14   15 2    
    18   15   16 1    
    19   16   17 ar   
    20   16   22 ar   
    21   17   18 1    
    22   17   19 ar   
    23   19   20 ar   
    24   20   21 ar   
    25   21   22 ar   
    26   23   24 1    
    27   23   40 2    
    28   24   25 2    
    29   24   26 am   
    30   26   27 am   
    31   27   28 2    
    32   27   29 1    
    33   29   30 2    
    34   29   40 1    
    35   30   31 1    
    36   31   32 ar   
    37   31   38 ar   
    38   32   33 ar   
    39   33   34 1    
    40   33   35 ar   
    41   35   36 1    
    42   35   37 ar   
    43   37   38 ar   
    44   38   39 1    
    45   39   40 1    
    46   39   41 1    
    47   41   42 1    
    48   42   43 1    
    49   42   44 1    
    50   44   45 1    
    51   44   46 1    
    52   46   47 1    
    53   46   48 1    
    54   48   49 1    
    55   49   50 1    
    56   50   51 ar   
    57   50   52 ar   
    58   50   53 1    
@<TRIPOS>SUBSTRUCTURE
     1 FAD1001     1 GROUP   
@<TRIPOS>SET
ATOM$ORANGE STATIC     ATOMS   COLORGROUP SYSTEM 
54 5 5 6 6 8 8 10 10 12 12 14 14 16 16 17 17 20 \
20 22 22 24 24 27 27 29 29 31 31 32 32 33 33 34 34 35 \
35 36 36 37 37 38 38 40 40 41 41 42 42 44 44 46 46 48 \
48 

