#    Name: 6bnq_3_ADP
#    Modification time : Fri May 22 19:26:09 2020

@<TRIPOS>MOLECULE
6bnq_3_ADP
   27    29     1     0     1
SMALL
NO_CHARGES


@<TRIPOS>ATOM
      1 PB          1.3170  -17.3660  -35.0070 P.3       1 ADP402      0.0000 
      2 O1B         1.6450  -16.2770  -35.9960 O.co2     1 ADP402      0.0000 
      3 O2B         2.0580  -17.2630  -33.6930 O.co2     1 ADP402      0.0000 
      4 O3B         1.2680  -18.7540  -35.6010 O.co2     1 ADP402      0.0000 
      5 PA         -1.0980  -18.2600  -33.9800 P.3       1 ADP402      0.0000 
      6 O1A        -1.8320  -18.9610  -35.0990 O.co2     1 ADP402      0.0000 
      7 O2A        -0.2100  -19.0330  -33.0280 O.co2     1 ADP402      0.0000 
      8 O3A        -0.2130  -17.0780  -34.6130 O.3       1 ADP402      0.0000 
      9 O5'        -2.1510  -17.4150  -33.1070 O.3       1 ADP402      0.0000 
     10 C5'        -2.2060  -17.5640  -31.6910 C.3       1 ADP402      0.0000 
     11 C4'        -3.0240  -16.4040  -31.1440 C.3       1 ADP402      0.0000 
     12 O4'        -4.4000  -16.6160  -31.4570 O.3       1 ADP402      0.0000 
     13 C3'        -2.9160  -16.2620  -29.6350 C.3       1 ADP402      0.0000 
     14 O3'        -2.1190  -15.1160  -29.3250 O.3       1 ADP402      0.0000 
     15 C2'        -4.3400  -16.0830  -29.1330 C.3       1 ADP402      0.0000 
     16 O2'        -4.5170  -14.7830  -28.5690 O.3       1 ADP402      0.0000 
     17 C1'        -5.2280  -16.2310  -30.3610 C.3       1 ADP402      0.0000 
     18 N9         -6.2790  -17.2620  -30.1430 N.pl3     1 ADP402      0.0000 
     19 C8         -6.0750  -18.5690  -29.8900 C.2       1 ADP402      0.0000 
     20 N7         -7.2580  -19.2190  -29.7470 N.2       1 ADP402      0.0000 
     21 C5         -8.2480  -18.3230  -29.9190 C.ar      1 ADP402      0.0000 
     22 C6         -9.7320  -18.3410  -29.8940 C.ar      1 ADP402      0.0000 
     23 N6        -10.4250  -19.4810  -29.6620 N.pl3     1 ADP402      0.0000 
     24 N1        -10.3710  -17.1730  -30.1220 N.ar      1 ADP402      0.0000 
     25 C2         -9.6990  -16.0320  -30.3560 C.ar      1 ADP402      0.0000 
     26 N3         -8.3610  -15.9410  -30.3890 N.ar      1 ADP402      0.0000 
     27 C4         -7.5940  -17.0310  -30.1700 C.ar      1 ADP402      0.0000 
@<TRIPOS>BOND
     1    1    2 ar   
     2    1    3 ar   
     3    1    4 ar   
     4    1    8 1    
     5    5    6 ar   
     6    5    7 ar   
     7    5    8 1    
     8    5    9 1    
     9    9   10 1    
    10   10   11 1    
    11   11   12 1    
    12   11   13 1    
    13   12   17 1    
    14   13   14 1    
    15   13   15 1    
    16   15   16 1    
    17   15   17 1    
    18   17   18 1    
    19   18   19 1    
    20   18   27 1    
    21   19   20 2    
    22   20   21 1    
    23   21   22 ar   
    24   21   27 ar   
    25   22   23 1    
    26   22   24 ar   
    27   24   25 ar   
    28   25   26 ar   
    29   26   27 ar   
@<TRIPOS>SUBSTRUCTURE
     1 ADP402      1 GROUP   
@<TRIPOS>SET
ATOM$ORANGE STATIC     ATOMS   COLORGROUP SYSTEM 
20 10 10 11 11 13 13 15 15 17 17 19 19 21 21 22 22 25 \
25 27 27 

