#    Name: 6bnq_5_ADP
#    Modification time : Fri May 22 19:26:29 2020

@<TRIPOS>MOLECULE
6bnq_5_ADP
   27    29     1     0     1
SMALL
NO_CHARGES


@<TRIPOS>ATOM
      1 PB          8.9970  -14.9170   21.0980 P.3       1 ADP402      0.0000 
      2 O1B         8.8000  -13.7980   20.1090 O.co2     1 ADP402      0.0000 
      3 O2B         9.6110  -14.4940   22.4120 O.co2     1 ADP402      0.0000 
      4 O3B         9.5740  -16.1820   20.5050 O.co2     1 ADP402      0.0000 
      5 PA          7.2360  -16.7990   22.1260 P.3       1 ADP402      0.0000 
      6 O1A         6.8950  -17.7530   21.0060 O.co2     1 ADP402      0.0000 
      7 O2A         8.3760  -17.0920   23.0780 O.co2     1 ADP402      0.0000 
      8 O3A         7.4980  -15.3460   21.4920 O.3       1 ADP402      0.0000 
      9 O5'         5.9170  -16.5150   22.9990 O.3       1 ADP402      0.0000 
     10 C5'         5.9330  -16.6730   24.4140 C.3       1 ADP402      0.0000 
     11 C4'         4.6830  -16.0040   24.9610 C.3       1 ADP402      0.0000 
     12 O4'         3.5480  -16.8100   24.6470 O.3       1 ADP402      0.0000 
     13 C3'         4.7140  -15.8270   26.4700 C.3       1 ADP402      0.0000 
     14 O3'         4.9160  -14.4460   26.7790 O.3       1 ADP402      0.0000 
     15 C2'         3.3620  -16.3070   26.9710 C.3       1 ADP402      0.0000 
     16 O2'         2.6220  -15.2230   27.5370 O.3       1 ADP402      0.0000 
     17 C1'         2.6340  -16.8350   25.7450 C.3       1 ADP402      0.0000 
     18 N9          2.1570  -18.2280   25.9600 N.pl3     1 ADP402      0.0000 
     19 C8          2.9260  -19.3050   26.2150 C.2       1 ADP402      0.0000 
     20 N7          2.1600  -20.4170   26.3580 N.2       1 ADP402      0.0000 
     21 C5          0.8730  -20.0590   26.1860 C.ar      1 ADP402      0.0000 
     22 C6         -0.4460  -20.7410   26.2120 C.ar      1 ADP402      0.0000 
     23 N6         -0.5540  -22.0720   26.4420 N.pl3     1 ADP402      0.0000 
     24 N1         -1.5420  -19.9840   25.9820 N.ar      1 ADP402      0.0000 
     25 C2         -1.4520  -18.6630   25.7470 C.ar      1 ADP402      0.0000 
     26 N3         -0.2950  -17.9810   25.7170 N.ar      1 ADP402      0.0000 
     27 C4          0.8790  -18.6120   25.9350 C.ar      1 ADP402      0.0000 
@<TRIPOS>BOND
     1    1    2 ar   
     2    1    3 ar   
     3    1    4 ar   
     4    1    8 1    
     5    5    6 ar   
     6    5    7 ar   
     7    5    8 1    
     8    5    9 1    
     9    9   10 1    
    10   10   11 1    
    11   11   12 1    
    12   11   13 1    
    13   12   17 1    
    14   13   14 1    
    15   13   15 1    
    16   15   16 1    
    17   15   17 1    
    18   17   18 1    
    19   18   19 1    
    20   18   27 1    
    21   19   20 2    
    22   20   21 1    
    23   21   22 ar   
    24   21   27 ar   
    25   22   23 1    
    26   22   24 ar   
    27   24   25 ar   
    28   25   26 ar   
    29   26   27 ar   
@<TRIPOS>SUBSTRUCTURE
     1 ADP402      1 GROUP   
@<TRIPOS>SET
ATOM$ORANGE STATIC     ATOMS   COLORGROUP SYSTEM 
20 10 10 11 11 13 13 15 15 17 17 19 19 21 21 22 22 25 \
25 27 27 

