#    Name: 6bnq_7_ADP
#    Modification time : Fri May 22 19:26:49 2020

@<TRIPOS>MOLECULE
6bnq_7_ADP
   27    29     1     0     1
SMALL
NO_CHARGES


@<TRIPOS>ATOM
      1 PB         14.7520   -9.3260   77.2020 P.3       1 ADP402      0.0000 
      2 O1B        14.0750   -8.4110   76.2130 O.co2     1 ADP402      0.0000 
      3 O2B        15.1120   -8.6730   78.5150 O.co2     1 ADP402      0.0000 
      4 O3B        15.8340  -10.1980   76.6070 O.co2     1 ADP402      0.0000 
      5 PA         14.0200  -11.7960   78.2280 P.3       1 ADP402      0.0000 
      6 O1A        14.1430  -12.8020   77.1090 O.co2     1 ADP402      0.0000 
      7 O2A        15.1710  -11.5460   79.1800 O.co2     1 ADP402      0.0000 
      8 O3A        13.6050  -10.3800   77.5930 O.3       1 ADP402      0.0000 
      9 O5'        12.7130  -12.1330   79.1010 O.3       1 ADP402      0.0000 
     10 C5'        12.7990  -12.2650   80.5160 C.3       1 ADP402      0.0000 
     11 C4'        11.3800  -12.2290   81.0620 C.3       1 ADP402      0.0000 
     12 O4'        10.7260  -13.4570   80.7490 O.3       1 ADP402      0.0000 
     13 C3'        11.3310  -12.0570   82.5720 C.3       1 ADP402      0.0000 
     14 O3'        10.8900  -10.7320   82.8810 O.3       1 ADP402      0.0000 
     15 C2'        10.3350  -13.0900   83.0740 C.3       1 ADP402      0.0000 
     16 O2'         9.1880  -12.4520   83.6390 O.3       1 ADP402      0.0000 
     17 C1'         9.9220  -13.8900   81.8440 C.3       1 ADP402      0.0000 
     18 N9         10.1170  -15.3470   82.0630 N.pl3     1 ADP402      0.0000 
     19 C8         11.2860  -15.9670   82.3180 C.2       1 ADP402      0.0000 
     20 N7         11.0980  -17.3060   82.4600 N.2       1 ADP402      0.0000 
     21 C5          9.7880  -17.5610   82.2870 C.ar      1 ADP402      0.0000 
     22 C6          8.9140  -18.7600   82.3120 C.ar      1 ADP402      0.0000 
     23 N6          9.4130  -19.9980   82.5440 N.pl3     1 ADP402      0.0000 
     24 N1          7.5950  -18.5740   82.0810 N.ar      1 ADP402      0.0000 
     25 C2          7.0850  -17.3510   81.8490 C.ar      1 ADP402      0.0000 
     26 N3          7.8130  -16.2260   81.8170 N.ar      1 ADP402      0.0000 
     27 C4          9.1470  -16.2620   82.0350 C.ar      1 ADP402      0.0000 
@<TRIPOS>BOND
     1    1    2 ar   
     2    1    3 ar   
     3    1    4 ar   
     4    1    8 1    
     5    5    6 ar   
     6    5    7 ar   
     7    5    8 1    
     8    5    9 1    
     9    9   10 1    
    10   10   11 1    
    11   11   12 1    
    12   11   13 1    
    13   12   17 1    
    14   13   14 1    
    15   13   15 1    
    16   15   16 1    
    17   15   17 1    
    18   17   18 1    
    19   18   19 1    
    20   18   27 1    
    21   19   20 2    
    22   20   21 1    
    23   21   22 ar   
    24   21   27 ar   
    25   22   23 1    
    26   22   24 ar   
    27   24   25 ar   
    28   25   26 ar   
    29   26   27 ar   
@<TRIPOS>SUBSTRUCTURE
     1 ADP402      1 GROUP   
@<TRIPOS>SET
ATOM$ORANGE STATIC     ATOMS   COLORGROUP SYSTEM 
20 10 10 11 11 13 13 15 15 17 17 19 19 21 21 22 22 25 \
25 27 27 

