#    Name: 6bnq_8_ADP
#    Modification time : Fri May 22 19:26:59 2020

@<TRIPOS>MOLECULE
6bnq_8_ADP
   27    29     1     0     1
SMALL
NO_CHARGES


@<TRIPOS>ATOM
      1 PB        -16.4830    5.7110  105.2660 P.3       1 ADP402      0.0000 
      2 O1B       -15.6140    4.9790  104.2760 O.co2     1 ADP402      0.0000 
      3 O2B       -16.6830    4.9920  106.5800 O.co2     1 ADP402      0.0000 
      4 O3B       -17.7370    6.3090  104.6720 O.co2     1 ADP402      0.0000 
      5 PA        -16.3390    8.2830  106.2940 P.3       1 ADP402      0.0000 
      6 O1A       -16.6910    9.2340  105.1750 O.co2     1 ADP402      0.0000 
      7 O2A       -17.4030    7.7760  107.2450 O.co2     1 ADP402      0.0000 
      8 O3A       -15.6090    7.0000  105.6600 O.3       1 ADP402      0.0000 
      9 O5'       -15.1450    8.9120  107.1660 O.3       1 ADP402      0.0000 
     10 C5'       -15.2590    9.0220  108.5820 C.3       1 ADP402      0.0000 
     11 C4'       -13.8710    9.3110  109.1290 C.3       1 ADP402      0.0000 
     12 O4'       -13.5170   10.6580  108.8150 O.3       1 ADP402      0.0000 
     13 C3'       -13.7810    9.1550  110.6380 C.3       1 ADP402      0.0000 
     14 O3'       -13.0490    7.9660  110.9480 O.3       1 ADP402      0.0000 
     15 C2'       -13.0510   10.3900  111.1380 C.3       1 ADP402      0.0000 
     16 O2'       -11.7880   10.0340  111.7050 O.3       1 ADP402      0.0000 
     17 C1'       -12.8320   11.2640  109.9110 C.3       1 ADP402      0.0000 
     18 N9        -13.3610   12.6370  110.1290 N.pl3     1 ADP402      0.0000 
     19 C8        -14.6400   12.9700  110.3850 C.2       1 ADP402      0.0000 
     20 N7        -14.7650   14.3160  110.5260 N.2       1 ADP402      0.0000 
     21 C5        -13.5490   14.8660  110.3550 C.ar      1 ADP402      0.0000 
     22 C6        -12.9740   16.2340  110.3790 C.ar      1 ADP402      0.0000 
     23 N6        -13.7460   17.3250  110.6110 N.pl3     1 ADP402      0.0000 
     24 N1        -11.6490   16.3570  110.1500 N.ar      1 ADP402      0.0000 
     25 C2        -10.8700   15.2860  109.9140 C.ar      1 ADP402      0.0000 
     26 N3        -11.3190   14.0230  109.8840 N.ar      1 ADP402      0.0000 
     27 C4        -12.6260   13.7510  110.1020 C.ar      1 ADP402      0.0000 
@<TRIPOS>BOND
     1    1    2 ar   
     2    1    3 ar   
     3    1    4 ar   
     4    1    8 1    
     5    5    6 ar   
     6    5    7 ar   
     7    5    8 1    
     8    5    9 1    
     9    9   10 1    
    10   10   11 1    
    11   11   12 1    
    12   11   13 1    
    13   12   17 1    
    14   13   14 1    
    15   13   15 1    
    16   15   16 1    
    17   15   17 1    
    18   17   18 1    
    19   18   19 1    
    20   18   27 1    
    21   19   20 2    
    22   20   21 1    
    23   21   22 ar   
    24   21   27 ar   
    25   22   23 1    
    26   22   24 ar   
    27   24   25 ar   
    28   25   26 ar   
    29   26   27 ar   
@<TRIPOS>SUBSTRUCTURE
     1 ADP402      1 GROUP   
@<TRIPOS>SET
ATOM$ORANGE STATIC     ATOMS   COLORGROUP SYSTEM 
20 10 10 11 11 13 13 15 15 17 17 19 19 21 21 22 22 25 \
25 27 27 

