#    Name: 6bnq_1_ADP
#    Modification time : Fri May 22 19:25:49 2020

@<TRIPOS>MOLECULE
6bnq_1_ADP
   27    29     1     0     1
SMALL
NO_CHARGES


@<TRIPOS>ATOM
      1 PB         -6.6200  -16.1420  -91.1170 P.3       1 ADP402      0.0000 
      2 O1B        -5.8390  -15.3120  -92.1060 O.co2     1 ADP402      0.0000 
      3 O2B        -5.9130  -16.3790  -89.8040 O.co2     1 ADP402      0.0000 
      4 O3B        -7.2860  -17.3600  -91.7110 O.co2     1 ADP402      0.0000 
      5 PA         -9.1800  -15.8570  -90.0910 P.3       1 ADP402      0.0000 
      6 O1A       -10.1500  -16.1540  -91.2090 O.co2     1 ADP402      0.0000 
      7 O2A        -8.7320  -16.9450  -89.1380 O.co2     1 ADP402      0.0000 
      8 O3A        -7.8590  -15.1970  -90.7240 O.3       1 ADP402      0.0000 
      9 O5'        -9.7420  -14.6290  -89.2180 O.3       1 ADP402      0.0000 
     10 C5'        -9.8590  -14.7370  -87.8030 C.3       1 ADP402      0.0000 
     11 C4'       -10.0710  -13.3340  -87.2540 C.3       1 ADP402      0.0000 
     12 O4'       -11.3960  -12.9070  -87.5680 O.3       1 ADP402      0.0000 
     13 C3'        -9.9100  -13.2540  -85.7450 C.3       1 ADP402      0.0000 
     14 O3'        -8.6840  -12.5890  -85.4360 O.3       1 ADP402      0.0000 
     15 C2'       -11.1020  -12.4560  -85.2430 C.3       1 ADP402      0.0000 
     16 O2'       -10.6780  -11.2150  -84.6780 O.3       1 ADP402      0.0000 
     17 C1'       -11.9630  -12.1900  -86.4720 C.3       1 ADP402      0.0000 
     18 N9        -13.3640  -12.6400  -86.2540 N.pl3     1 ADP402      0.0000 
     19 C8        -13.7670  -13.9010  -85.9990 C.2       1 ADP402      0.0000 
     20 N7        -15.1180  -13.9520  -85.8570 N.2       1 ADP402      0.0000 
     21 C5        -15.6000  -12.7060  -86.0290 C.ar      1 ADP402      0.0000 
     22 C6        -16.9350  -12.0570  -86.0040 C.ar      1 ADP402      0.0000 
     23 N6        -18.0670  -12.7680  -85.7730 N.pl3     1 ADP402      0.0000 
     24 N1        -16.9830  -10.7280  -86.2340 N.ar      1 ADP402      0.0000 
     25 C2        -15.8720  -10.0090  -86.4680 C.ar      1 ADP402      0.0000 
     26 N3        -14.6350  -10.5280  -86.4990 N.ar      1 ADP402      0.0000 
     27 C4        -14.4370  -11.8460  -86.2820 C.ar      1 ADP402      0.0000 
@<TRIPOS>BOND
     1    1    2 ar   
     2    1    3 ar   
     3    1    4 ar   
     4    1    8 1    
     5    5    6 ar   
     6    5    7 ar   
     7    5    8 1    
     8    5    9 1    
     9    9   10 1    
    10   10   11 1    
    11   11   12 1    
    12   11   13 1    
    13   12   17 1    
    14   13   14 1    
    15   13   15 1    
    16   15   16 1    
    17   15   17 1    
    18   17   18 1    
    19   18   19 1    
    20   18   27 1    
    21   19   20 2    
    22   20   21 1    
    23   21   22 ar   
    24   21   27 ar   
    25   22   23 1    
    26   22   24 ar   
    27   24   25 ar   
    28   25   26 ar   
    29   26   27 ar   
@<TRIPOS>SUBSTRUCTURE
     1 ADP402      1 GROUP   
@<TRIPOS>SET
ATOM$ORANGE STATIC     ATOMS   COLORGROUP SYSTEM 
20 10 10 11 11 13 13 15 15 17 17 19 19 21 21 22 22 25 \
25 27 27 

