#    Name: 6bnq_4_ADP
#    Modification time : Fri May 22 19:26:19 2020

@<TRIPOS>MOLECULE
6bnq_4_ADP
   27    29     1     0     1
SMALL
NO_CHARGES


@<TRIPOS>ATOM
      1 PB         -5.3160   16.6400   -6.9490 P.3       1 ADP402      0.0000 
      2 O1B        -5.3820   15.5040   -7.9390 O.co2     1 ADP402      0.0000 
      3 O2B        -6.0100   16.3690   -5.6360 O.co2     1 ADP402      0.0000 
      4 O3B        -5.5870   18.0020   -7.5450 O.co2     1 ADP402      0.0000 
      5 PA         -3.1690   18.0650   -5.9230 P.3       1 ADP402      0.0000 
      6 O1A        -2.6170   18.9160   -7.0430 O.co2     1 ADP402      0.0000 
      7 O2A        -4.2110   18.6130   -4.9710 O.co2     1 ADP402      0.0000 
      8 O3A        -3.7590   16.7120   -6.5560 O.3       1 ADP402      0.0000 
      9 O5'        -1.9500   17.4850   -5.0500 O.3       1 ADP402      0.0000 
     10 C5'        -1.9300   17.6420   -3.6340 C.3       1 ADP402      0.0000 
     11 C4'        -0.8670   16.7030   -3.0880 C.3       1 ADP402      0.0000 
     12 O4'         0.4230   17.2250   -3.4010 O.3       1 ADP402      0.0000 
     13 C3'        -0.9400   16.5380   -1.5790 C.3       1 ADP402      0.0000 
     14 O3'        -1.4520   15.2400   -1.2700 O.3       1 ADP402      0.0000 
     15 C2'         0.4880   16.6920   -1.0760 C.3       1 ADP402      0.0000 
     16 O2'         0.9590   15.4680   -0.5120 O.3       1 ADP402      0.0000 
     17 C1'         1.3180   17.0400   -2.3050 C.3       1 ADP402      0.0000 
     18 N9          2.1020   18.2840   -2.0880 N.pl3     1 ADP402      0.0000 
     19 C8          1.6040   19.5100   -1.8340 C.2       1 ADP402      0.0000 
     20 N7          2.6060   20.4160   -1.6900 N.2       1 ADP402      0.0000 
     21 C5          3.7750   19.7710   -1.8630 C.ar      1 ADP402      0.0000 
     22 C6          5.2140   20.1300   -1.8370 C.ar      1 ADP402      0.0000 
     23 N6          5.6280   21.4000   -1.6070 N.pl3     1 ADP402      0.0000 
     24 N1          6.1070   19.1420   -2.0680 N.ar      1 ADP402      0.0000 
     25 C2          5.7140   17.8760   -2.3020 C.ar      1 ADP402      0.0000 
     26 N3          4.4330   17.4790   -2.3330 N.ar      1 ADP402      0.0000 
     27 C4          3.4340   18.3640   -2.1160 C.ar      1 ADP402      0.0000 
@<TRIPOS>BOND
     1    1    2 ar   
     2    1    3 ar   
     3    1    4 ar   
     4    1    8 1    
     5    5    6 ar   
     6    5    7 ar   
     7    5    8 1    
     8    5    9 1    
     9    9   10 1    
    10   10   11 1    
    11   11   12 1    
    12   11   13 1    
    13   12   17 1    
    14   13   14 1    
    15   13   15 1    
    16   15   16 1    
    17   15   17 1    
    18   17   18 1    
    19   18   19 1    
    20   18   27 1    
    21   19   20 2    
    22   20   21 1    
    23   21   22 ar   
    24   21   27 ar   
    25   22   23 1    
    26   22   24 ar   
    27   24   25 ar   
    28   25   26 ar   
    29   26   27 ar   
@<TRIPOS>SUBSTRUCTURE
     1 ADP402      1 GROUP   
@<TRIPOS>SET
ATOM$ORANGE STATIC     ATOMS   COLORGROUP SYSTEM 
20 10 10 11 11 13 13 15 15 17 17 19 19 21 21 22 22 25 \
25 27 27 

