#    Name: 6bnq_2_ADP
#    Modification time : Fri May 22 19:25:59 2020

@<TRIPOS>MOLECULE
6bnq_2_ADP
   27    29     1     0     1
SMALL
NO_CHARGES


@<TRIPOS>ATOM
      1 PB          2.6650   17.2500  -63.0520 P.3       1 ADP402      0.0000 
      2 O1B         2.0960   16.2640  -64.0410 O.co2     1 ADP402      0.0000 
      3 O2B         1.9210   17.3180  -61.7380 O.co2     1 ADP402      0.0000 
      4 O3B         3.0310   18.5890  -63.6470 O.co2     1 ADP402      0.0000 
      5 PA          5.2210   17.5630  -62.0270 P.3       1 ADP402      0.0000 
      6 O1A         6.0950   18.0770  -63.1470 O.co2     1 ADP402      0.0000 
      7 O2A         4.5360   18.5180  -61.0750 O.co2     1 ADP402      0.0000 
      8 O3A         4.0880   16.6170  -62.6590 O.3       1 ADP402      0.0000 
      9 O5'         6.0520   16.4990  -61.1540 O.3       1 ADP402      0.0000 
     10 C5'         6.1420   16.6300  -59.7380 C.3       1 ADP402      0.0000 
     11 C4'         6.6720   15.3130  -59.1940 C.3       1 ADP402      0.0000 
     12 O4'         8.0600   15.2050  -59.5070 O.3       1 ADP402      0.0000 
     13 C3'         6.5350   15.1990  -57.6840 C.3       1 ADP402      0.0000 
     14 O3'         5.4960   14.2680  -57.3740 O.3       1 ADP402      0.0000 
     15 C2'         7.8790   14.6980  -57.1830 C.3       1 ADP402      0.0000 
     16 O2'         7.7530   13.3920  -56.6180 O.3       1 ADP402      0.0000 
     17 C1'         8.7780   14.6390  -58.4110 C.3       1 ADP402      0.0000 
     18 N9         10.0360   15.4000  -58.1950 N.pl3     1 ADP402      0.0000 
     19 C8         10.1380   16.7190  -57.9400 C.2       1 ADP402      0.0000 
     20 N7         11.4400   17.0800  -57.7980 N.2       1 ADP402      0.0000 
     21 C5         12.1980   15.9800  -57.9710 C.ar      1 ADP402      0.0000 
     22 C6         13.6460   15.6560  -57.9460 C.ar      1 ADP402      0.0000 
     23 N6         14.5830   16.6090  -57.7160 N.pl3     1 ADP402      0.0000 
     24 N1         14.0000   14.3730  -58.1770 N.ar      1 ADP402      0.0000 
     25 C2         13.0850   13.4180  -58.4100 C.ar      1 ADP402      0.0000 
     26 N3         11.7600   13.6360  -58.4410 N.ar      1 ADP402      0.0000 
     27 C4         11.2630   14.8750  -58.2230 C.ar      1 ADP402      0.0000 
@<TRIPOS>BOND
     1    1    2 ar   
     2    1    3 ar   
     3    1    4 ar   
     4    1    8 1    
     5    5    6 ar   
     6    5    7 ar   
     7    5    8 1    
     8    5    9 1    
     9    9   10 1    
    10   10   11 1    
    11   11   12 1    
    12   11   13 1    
    13   12   17 1    
    14   13   14 1    
    15   13   15 1    
    16   15   16 1    
    17   15   17 1    
    18   17   18 1    
    19   18   19 1    
    20   18   27 1    
    21   19   20 2    
    22   20   21 1    
    23   21   22 ar   
    24   21   27 ar   
    25   22   23 1    
    26   22   24 ar   
    27   24   25 ar   
    28   25   26 ar   
    29   26   27 ar   
@<TRIPOS>SUBSTRUCTURE
     1 ADP402      1 GROUP   
@<TRIPOS>SET
ATOM$ORANGE STATIC     ATOMS   COLORGROUP SYSTEM 
20 10 10 11 11 13 13 15 15 17 17 19 19 21 21 22 22 25 \
25 27 27 

