#    Name: 6bnq_6_ADP
#    Modification time : Fri May 22 19:26:38 2020

@<TRIPOS>MOLECULE
6bnq_6_ADP
   27    29     1     0     1
SMALL
NO_CHARGES


@<TRIPOS>ATOM
      1 PB        -12.1970   12.4950   49.1570 P.3       1 ADP402      0.0000 
      2 O1B       -11.7480   11.4490   48.1670 O.co2     1 ADP402      0.0000 
      3 O2B       -12.6970   11.9410   50.4710 O.co2     1 ADP402      0.0000 
      4 O3B       -13.0500   13.5910   48.5630 O.co2     1 ADP402      0.0000 
      5 PA        -10.9150   14.7300   50.1840 P.3       1 ADP402      0.0000 
      6 O1A       -10.8030   15.7370   49.0650 O.co2     1 ADP402      0.0000 
      7 O2A       -12.0930   14.7520   51.1350 O.co2     1 ADP402      0.0000 
      8 O3A       -10.8380   13.2560   49.5500 O.3       1 ADP402      0.0000 
      9 O5'        -9.5660   14.7560   51.0560 O.3       1 ADP402      0.0000 
     10 C5'        -9.6180   14.9050   52.4710 C.3       1 ADP402      0.0000 
     11 C4'        -8.2460   14.5420   53.0170 C.3       1 ADP402      0.0000 
     12 O4'        -7.3270   15.5880   52.7040 O.3       1 ADP402      0.0000 
     13 C3'        -8.2360   14.3630   54.5270 C.3       1 ADP402      0.0000 
     14 O3'        -8.1140   12.9720   54.8360 O.3       1 ADP402      0.0000 
     15 C2'        -7.0300   15.1390   55.0280 C.3       1 ADP402      0.0000 
     16 O2'        -6.0590   14.2550   55.5940 O.3       1 ADP402      0.0000 
     17 C1'        -6.4440   15.8220   53.8010 C.3       1 ADP402      0.0000 
     18 N9         -6.3000   17.2870   54.0190 N.pl3     1 ADP402      0.0000 
     19 C8         -7.2940   18.1580   54.2720 C.2       1 ADP402      0.0000 
     20 N7         -6.8040   19.4180   54.4160 N.2       1 ADP402      0.0000 
     21 C5         -5.4700   19.3650   54.2430 C.ar      1 ADP402      0.0000 
     22 C6         -4.3440   20.3310   54.2680 C.ar      1 ADP402      0.0000 
     23 N6         -4.5440   21.6500   54.5000 N.pl3     1 ADP402      0.0000 
     24 N1         -3.1020   19.8460   54.0380 N.ar      1 ADP402      0.0000 
     25 C2         -2.8880   18.5380   53.8040 C.ar      1 ADP402      0.0000 
     26 N3         -3.8550   17.6100   53.7730 N.ar      1 ADP402      0.0000 
     27 C4         -5.1440   17.9540   53.9900 C.ar      1 ADP402      0.0000 
@<TRIPOS>BOND
     1    1    2 ar   
     2    1    3 ar   
     3    1    4 ar   
     4    1    8 1    
     5    5    6 ar   
     6    5    7 ar   
     7    5    8 1    
     8    5    9 1    
     9    9   10 1    
    10   10   11 1    
    11   11   12 1    
    12   11   13 1    
    13   12   17 1    
    14   13   14 1    
    15   13   15 1    
    16   15   16 1    
    17   15   17 1    
    18   17   18 1    
    19   18   19 1    
    20   18   27 1    
    21   19   20 2    
    22   20   21 1    
    23   21   22 ar   
    24   21   27 ar   
    25   22   23 1    
    26   22   24 ar   
    27   24   25 ar   
    28   25   26 ar   
    29   26   27 ar   
@<TRIPOS>SUBSTRUCTURE
     1 ADP402      1 GROUP   
@<TRIPOS>SET
ATOM$ORANGE STATIC     ATOMS   COLORGROUP SYSTEM 
20 10 10 11 11 13 13 15 15 17 17 19 19 21 21 22 22 25 \
25 27 27 

