#    Name: 5o6m_4_ATP
#    Modification time : Fri May 22 19:17:36 2020

@<TRIPOS>MOLECULE
5o6m_4_ATP
   47    49     1     0     1
SMALL
NO_CHARGES


@<TRIPOS>ATOM
      1 PG        -13.7830  -36.3800  -31.9650 P.3       1 ATP1001     0.0000 
      2 O1G       -12.6450  -35.6440  -31.3110 O.co2     1 ATP1001     0.0000 
      3 O2G       -14.9110  -35.4520  -32.4070 O.co2     1 ATP1001     0.0000 
      4 O3G       -13.3340  -37.2190  -33.1700 O.co2     1 ATP1001     0.0000 
      5 PB        -14.4120  -38.9520  -30.7130 P.3       1 ATP1001     0.0000 
      6 O1B       -15.7250  -39.5790  -30.9790 O.co2     1 ATP1001     0.0000 
      7 O2B       -13.2310  -39.4820  -31.5280 O.co2     1 ATP1001     0.0000 
      8 O3B       -14.4560  -37.3740  -30.9180 O.3       1 ATP1001     0.0000 
      9 PA        -13.5770  -38.1160  -27.9940 P.3       1 ATP1001     0.0000 
     10 O1A       -12.1470  -37.7710  -28.1320 O.co2     1 ATP1001     0.0000 
     11 O2A       -13.9140  -38.8660  -26.7070 O.co2     1 ATP1001     0.0000 
     12 O3A       -14.0190  -39.0870  -29.1770 O.3       1 ATP1001     0.0000 
     13 O5'       -14.4970  -36.7560  -27.9420 O.3       1 ATP1001     0.0000 
     14 C5'       -15.8390  -36.8140  -27.4160 C.3       1 ATP1001     0.0000 
     15 C4'       -16.3500  -35.4600  -26.9820 C.3       1 ATP1001     0.0000 
     16 O4'       -15.6510  -34.9830  -25.8110 O.3       1 ATP1001     0.0000 
     17 C3'       -16.2760  -34.3240  -28.0150 C.3       1 ATP1001     0.0000 
     18 O3'       -17.5890  -33.9940  -28.4520 O.3       1 ATP1001     0.0000 
     19 C2'       -15.6540  -33.1540  -27.2300 C.3       1 ATP1001     0.0000 
     20 O2'       -16.2970  -31.9080  -27.4720 O.3       1 ATP1001     0.0000 
     21 C1'       -15.9060  -33.5980  -25.7950 C.3       1 ATP1001     0.0000 
     22 N9        -15.0790  -32.9430  -24.7870 N.pl3     1 ATP1001     0.0000 
     23 C8        -13.7250  -32.7390  -24.8070 C.2       1 ATP1001     0.0000 
     24 N7        -13.2770  -32.0160  -23.8080 N.2       1 ATP1001     0.0000 
     25 C5        -14.4180  -31.7280  -23.0750 C.ar      1 ATP1001     0.0000 
     26 C6        -14.6290  -30.9790  -21.9000 C.ar      1 ATP1001     0.0000 
     27 N6        -13.6650  -30.3140  -21.2580 N.pl3     1 ATP1001     0.0000 
     28 N1        -15.8910  -30.9010  -21.4250 N.ar      1 ATP1001     0.0000 
     29 C2        -16.8700  -31.5170  -22.0930 C.ar      1 ATP1001     0.0000 
     30 N3        -16.7950  -32.2340  -23.2160 N.ar      1 ATP1001     0.0000 
     31 C4        -15.5350  -32.3020  -23.6590 C.ar      1 ATP1001     0.0000 
     32 HOG2      -15.7130  -35.1990  -31.8780 H         1 ATP1001     0.0000 
     33 HOG3      -13.8660  -37.8280  -33.7470 H         1 ATP1001     0.0000 
     34 HOB2      -13.2010  -40.1440  -32.2680 H         1 ATP1001     0.0000 
     35 HOA2      -14.3130  -38.5590  -25.8500 H         1 ATP1001     0.0000 
     36 H5'1      -15.8760  -37.4820  -26.5570 H         1 ATP1001     0.0000 
     37 H5'2      -16.4530  -37.2550  -28.2000 H         1 ATP1001     0.0000 
     38 H4'       -17.3680  -35.5750  -26.6130 H         1 ATP1001     0.0000 
     39 H3'       -15.6420  -34.6240  -28.8480 H         1 ATP1001     0.0000 
     40 HO3'      -18.0680  -33.6540  -27.6510 H         1 ATP1001     0.0000 
     41 H2'       -14.5860  -33.0840  -27.4320 H         1 ATP1001     0.0000 
     42 HO2'      -17.1090  -31.9060  -26.9010 H         1 ATP1001     0.0000 
     43 H1'       -16.9500  -33.4680  -25.5130 H         1 ATP1001     0.0000 
     44 H8        -13.0700  -33.1390  -25.5800 H         1 ATP1001     0.0000 
     45 HN61      -13.8620  -29.7860  -20.4140 H         1 ATP1001     0.0000 
     46 HN62      -12.7130  -30.3270  -21.6100 H         1 ATP1001     0.0000 
     47 H2        -17.8540  -31.4040  -21.6380 H         1 ATP1001     0.0000 
@<TRIPOS>BOND
     1    1    2 ar   
     2    1    3 ar   
     3    1    4 ar   
     4    1    8 1    
     5    3   32 1    
     6    4   33 1    
     7    5    6 ar   
     8    5    7 ar   
     9    5    8 1    
    10    5   12 1    
    11    7   34 1    
    12    9   10 ar   
    13    9   11 ar   
    14    9   12 1    
    15    9   13 1    
    16   11   35 1    
    17   13   14 1    
    18   14   15 1    
    19   14   36 1    
    20   14   37 1    
    21   15   16 1    
    22   15   17 1    
    23   15   38 1    
    24   16   21 1    
    25   17   18 1    
    26   17   19 1    
    27   17   39 1    
    28   18   40 1    
    29   19   20 1    
    30   19   21 1    
    31   19   41 1    
    32   20   42 1    
    33   21   22 1    
    34   21   43 1    
    35   22   23 1    
    36   22   31 1    
    37   23   24 2    
    38   23   44 1    
    39   24   25 1    
    40   25   26 ar   
    41   25   31 ar   
    42   26   27 1    
    43   26   28 ar   
    44   27   45 1    
    45   27   46 1    
    46   28   29 ar   
    47   29   30 ar   
    48   29   47 1    
    49   30   31 ar   
@<TRIPOS>SUBSTRUCTURE
     1 ATP1001     1 GROUP   
@<TRIPOS>SET
ATOM$ORANGE STATIC     ATOMS   COLORGROUP SYSTEM 
20 14 14 15 15 17 17 19 19 21 21 23 23 25 25 26 26 29 \
29 31 31 

