#    Name: 5o6m_3_ATP
#    Modification time : Fri May 22 19:17:29 2020

@<TRIPOS>MOLECULE
5o6m_3_ATP
   47    49     1     0     1
SMALL
NO_CHARGES


@<TRIPOS>ATOM
      1 PG         13.6480  -33.2600    3.8630 P.3       1 ATP1001     0.0000 
      2 O1G        14.6820  -32.1990    3.6680 O.co2     1 ATP1001     0.0000 
      3 O2G        12.8540  -33.0870    5.1610 O.co2     1 ATP1001     0.0000 
      4 O3G        12.6590  -33.3370    2.6990 O.co2     1 ATP1001     0.0000 
      5 PB         14.4700  -35.8620    2.8770 P.3       1 ATP1001     0.0000 
      6 O1B        15.7480  -36.5970    3.0030 O.co2     1 ATP1001     0.0000 
      7 O2B        13.1950  -36.7010    2.9570 O.co2     1 ATP1001     0.0000 
      8 O3B        14.3290  -34.6970    3.9530 O.3       1 ATP1001     0.0000 
      9 PA         13.6280  -35.2430    0.1450 P.3       1 ATP1001     0.0000 
     10 O1A        12.1720  -35.0360    0.3130 O.co2     1 ATP1001     0.0000 
     11 O2A        14.0580  -36.5940   -0.4210 O.co2     1 ATP1001     0.0000 
     12 O3A        14.4070  -35.0410    1.5170 O.3       1 ATP1001     0.0000 
     13 O5'        14.3010  -34.0680   -0.7460 O.3       1 ATP1001     0.0000 
     14 C5'        14.2440  -32.7020   -0.2800 C.3       1 ATP1001     0.0000 
     15 C4'        15.4920  -31.9600   -0.6870 C.3       1 ATP1001     0.0000 
     16 O4'        15.4590  -31.6900   -2.1080 O.3       1 ATP1001     0.0000 
     17 C3'        15.6830  -30.6070   -0.0020 C.3       1 ATP1001     0.0000 
     18 O3'        17.0560  -30.3310    0.2490 O.3       1 ATP1001     0.0000 
     19 C2'        15.0800  -29.6330   -1.0140 C.3       1 ATP1001     0.0000 
     20 O2'        15.6580  -28.3370   -0.8980 O.3       1 ATP1001     0.0000 
     21 C1'        15.4730  -30.2930   -2.3370 C.3       1 ATP1001     0.0000 
     22 N9         14.5720  -29.9930   -3.4480 N.pl3     1 ATP1001     0.0000 
     23 C8         13.2030  -29.9640   -3.4140 C.2       1 ATP1001     0.0000 
     24 N7         12.6480  -29.5770   -4.5380 N.2       1 ATP1001     0.0000 
     25 C5         13.7290  -29.3390   -5.3730 C.ar      1 ATP1001     0.0000 
     26 C6         13.8190  -28.8730   -6.7000 C.ar      1 ATP1001     0.0000 
     27 N6         12.7640  -28.4910   -7.4260 N.pl3     1 ATP1001     0.0000 
     28 N1         15.0520  -28.7540   -7.2410 N.ar      1 ATP1001     0.0000 
     29 C2         16.1160  -29.0690   -6.4950 C.ar      1 ATP1001     0.0000 
     30 N3         16.1540  -29.4960   -5.2290 N.ar      1 ATP1001     0.0000 
     31 C4         14.9210  -29.6070   -4.7200 C.ar      1 ATP1001     0.0000 
     32 HOG2       12.7370  -32.2470    5.6770 H         1 ATP1001     0.0000 
     33 HOG3       12.4310  -32.6500    2.0200 H         1 ATP1001     0.0000 
     34 HOB2       12.2750  -36.4540    3.2380 H         1 ATP1001     0.0000 
     35 HOA2       14.8680  -36.8700   -0.9240 H         1 ATP1001     0.0000 
     36 H5'1       13.3800  -32.1900   -0.7010 H         1 ATP1001     0.0000 
     37 H5'2       14.1130  -32.7470    0.8000 H         1 ATP1001     0.0000 
     38 H4'        16.3630  -32.6020   -0.5690 H         1 ATP1001     0.0000 
     39 H3'        15.1130  -30.5950    0.9260 H         1 ATP1001     0.0000 
     40 HO3'       17.0740  -29.6990    1.0140 H         1 ATP1001     0.0000 
     41 H2'        13.9970  -29.5870   -0.9070 H         1 ATP1001     0.0000 
     42 HO2'       15.0240  -27.8070   -0.3470 H         1 ATP1001     0.0000 
     43 H1'        16.4860  -30.0260   -2.6370 H         1 ATP1001     0.0000 
     44 H8         12.6190  -30.2370   -2.5370 H         1 ATP1001     0.0000 
     45 HN61       12.8740  -28.1610   -8.3800 H         1 ATP1001     0.0000 
     46 HN62       11.8300  -28.5260   -7.0300 H         1 ATP1001     0.0000 
     47 H2         17.0670  -28.9520   -7.0110 H         1 ATP1001     0.0000 
@<TRIPOS>BOND
     1    1    2 ar   
     2    1    3 ar   
     3    1    4 ar   
     4    1    8 1    
     5    3   32 1    
     6    4   33 1    
     7    5    6 ar   
     8    5    7 ar   
     9    5    8 1    
    10    5   12 1    
    11    7   34 1    
    12    9   10 ar   
    13    9   11 ar   
    14    9   12 1    
    15    9   13 1    
    16   11   35 1    
    17   13   14 1    
    18   14   15 1    
    19   14   36 1    
    20   14   37 1    
    21   15   16 1    
    22   15   17 1    
    23   15   38 1    
    24   16   21 1    
    25   17   18 1    
    26   17   19 1    
    27   17   39 1    
    28   18   40 1    
    29   19   20 1    
    30   19   21 1    
    31   19   41 1    
    32   20   42 1    
    33   21   22 1    
    34   21   43 1    
    35   22   23 1    
    36   22   31 1    
    37   23   24 2    
    38   23   44 1    
    39   24   25 1    
    40   25   26 ar   
    41   25   31 ar   
    42   26   27 1    
    43   26   28 ar   
    44   27   45 1    
    45   27   46 1    
    46   28   29 ar   
    47   29   30 ar   
    48   29   47 1    
    49   30   31 ar   
@<TRIPOS>SUBSTRUCTURE
     1 ATP1001     1 GROUP   
@<TRIPOS>SET
ATOM$ORANGE STATIC     ATOMS   COLORGROUP SYSTEM 
20 14 14 15 15 17 17 19 19 21 21 23 23 25 25 26 26 29 \
29 31 31 

