#    Name: 5o6m_2_ATP
#    Modification time : Fri May 22 19:17:22 2020

@<TRIPOS>MOLECULE
5o6m_2_ATP
   47    49     1     0     1
SMALL
NO_CHARGES


@<TRIPOS>ATOM
      1 PG         18.6890  -47.6940  -26.7010 P.3       1 ATP301      0.0000 
      2 O1G        17.3420  -48.1490  -26.2020 O.co2     1 ATP301      0.0000 
      3 O2G        18.6350  -47.0950  -28.1170 O.co2     1 ATP301      0.0000 
      4 O3G        19.7370  -48.8120  -26.6670 O.co2     1 ATP301      0.0000 
      5 PB         19.0460  -44.9850  -25.6830 P.3       1 ATP301      0.0000 
      6 O1B        20.2780  -44.2300  -25.9930 O.co2     1 ATP301      0.0000 
      7 O2B        17.8210  -44.6770  -26.5450 O.co2     1 ATP301      0.0000 
      8 O3B        19.2860  -46.5560  -25.7620 O.3       1 ATP301      0.0000 
      9 PA         17.4830  -45.4570  -23.2600 P.3       1 ATP301      0.0000 
     10 O1A        16.4530  -46.1400  -24.0660 O.co2     1 ATP301      0.0000 
     11 O2A        16.9650  -44.3480  -22.3480 O.co2     1 ATP301      0.0000 
     12 O3A        18.6170  -44.8010  -24.1630 O.3       1 ATP301      0.0000 
     13 O5'        18.3010  -46.5160  -22.3530 O.3       1 ATP301      0.0000 
     14 C5'        18.5140  -47.8660  -22.8140 C.3       1 ATP301      0.0000 
     15 C4'        19.3470  -48.6090  -21.7990 C.3       1 ATP301      0.0000 
     16 O4'        18.5430  -48.9440  -20.6440 O.3       1 ATP301      0.0000 
     17 C3'        19.9710  -49.9170  -22.3030 C.3       1 ATP301      0.0000 
     18 O3'        21.3660  -49.9460  -22.0320 O.3       1 ATP301      0.0000 
     19 C2'        19.2130  -50.9980  -21.5220 C.3       1 ATP301      0.0000 
     20 O2'        20.0330  -52.1260  -21.2350 O.3       1 ATP301      0.0000 
     21 C1'        18.8720  -50.2540  -20.2370 C.3       1 ATP301      0.0000 
     22 N9         17.7470  -50.8230  -19.5000 N.pl3     1 ATP301      0.0000 
     23 C8         16.4650  -51.0000  -19.9490 C.2       1 ATP301      0.0000 
     24 N7         15.6880  -51.6420  -19.1090 N.2       1 ATP301      0.0000 
     25 C5         16.5160  -51.9000  -18.0270 C.ar      1 ATP301      0.0000 
     26 C6         16.3030  -52.5680  -16.8040 C.ar      1 ATP301      0.0000 
     27 N6         15.1490  -53.1520  -16.4630 N.pl3     1 ATP301      0.0000 
     28 N1         17.3410  -52.6450  -15.9420 N.ar      1 ATP301      0.0000 
     29 C2         18.5060  -52.0900  -16.2870 C.ar      1 ATP301      0.0000 
     30 N3         18.8260  -51.4450  -17.4120 N.ar      1 ATP301      0.0000 
     31 C4         17.7840  -51.3890  -18.2480 C.ar      1 ATP301      0.0000 
     32 HOG2       18.7440  -46.1390  -28.3610 H         1 ATP301      0.0000 
     33 HOG3       20.4280  -49.0490  -27.3390 H         1 ATP301      0.0000 
     34 HOB2       17.4420  -43.8080  -26.8430 H         1 ATP301      0.0000 
     35 HOA2       16.0980  -43.8640  -22.3260 H         1 ATP301      0.0000 
     36 H5'1       19.0360  -47.8700  -23.7690 H         1 ATP301      0.0000 
     37 H5'2       17.5300  -48.3080  -22.9620 H         1 ATP301      0.0000 
     38 H4'        20.1030  -47.9400  -21.3880 H         1 ATP301      0.0000 
     39 H3'        19.7830  -50.0140  -23.3710 H         1 ATP301      0.0000 
     40 HO3'       21.7730  -49.2460  -22.6070 H         1 ATP301      0.0000 
     41 H2'        18.3110  -51.2970  -22.0530 H         1 ATP301      0.0000 
     42 HO2'       20.9570  -51.7740  -21.1490 H         1 ATP301      0.0000 
     43 H1'        19.7270  -50.1830  -19.5660 H         1 ATP301      0.0000 
     44 H8         16.1140  -50.6430  -20.9160 H         1 ATP301      0.0000 
     45 HN61       15.0410  -53.6230  -15.5710 H         1 ATP301      0.0000 
     46 HN62       14.3580  -53.1330  -17.0990 H         1 ATP301      0.0000 
     47 H2         19.2840  -52.1920  -15.5310 H         1 ATP301      0.0000 
@<TRIPOS>BOND
     1    1    2 ar   
     2    1    3 ar   
     3    1    4 ar   
     4    1    8 1    
     5    3   32 1    
     6    4   33 1    
     7    5    6 ar   
     8    5    7 ar   
     9    5    8 1    
    10    5   12 1    
    11    7   34 1    
    12    9   10 ar   
    13    9   11 ar   
    14    9   12 1    
    15    9   13 1    
    16   11   35 1    
    17   13   14 1    
    18   14   15 1    
    19   14   36 1    
    20   14   37 1    
    21   15   16 1    
    22   15   17 1    
    23   15   38 1    
    24   16   21 1    
    25   17   18 1    
    26   17   19 1    
    27   17   39 1    
    28   18   40 1    
    29   19   20 1    
    30   19   21 1    
    31   19   41 1    
    32   20   42 1    
    33   21   22 1    
    34   21   43 1    
    35   22   23 1    
    36   22   31 1    
    37   23   24 2    
    38   23   44 1    
    39   24   25 1    
    40   25   26 ar   
    41   25   31 ar   
    42   26   27 1    
    43   26   28 ar   
    44   27   45 1    
    45   27   46 1    
    46   28   29 ar   
    47   29   30 ar   
    48   29   47 1    
    49   30   31 ar   
@<TRIPOS>SUBSTRUCTURE
     1 ATP301      1 GROUP   
@<TRIPOS>SET
ATOM$ORANGE STATIC     ATOMS   COLORGROUP SYSTEM 
20 14 14 15 15 17 17 19 19 21 21 23 23 25 25 26 26 29 \
29 31 31 

