#    Name: 6asw_1_D4T_CAVITY_N1_4
#    Modification time : Fri May 22 19:28:13 2020

@<TRIPOS>MOLECULE
6asw_1_D4T_CAVITY_N1_4
   66     0     7     0     0
SMALL
NO_CHARGES


@<TRIPOS>ATOM
      1 OG         35.3200   21.6300   33.9700 O.3       1 SER1        0.0000 
      2 N          33.9200   22.1200   33.7600 N.am      2 ALA2        0.0000 
      3 N          32.5200   22.6100   33.5400 N.am      2 ALA2        0.0000 
      4 O          36.4900   24.1300   32.0700 O.2       2 ALA2        0.0000 
      5 N          35.0900   24.6200   31.8500 N.am      2 ALA2        0.0000 
      6 O          36.6700   27.7300   28.6300 O.2       2 ALA2        0.0000 
      7 O          37.6600   26.6300   30.1600 O.2       2 ALA2        0.0000 
      8 O          38.6400   25.5300   31.6800 O.2       2 ALA2        0.0000 
      9 O          37.2400   26.0200   31.4600 O.2       2 ALA2        0.0000 
     10 O          35.8400   26.5100   31.2500 O.2       2 ALA2        0.0000 
     11 O          39.4000   27.4200   31.0800 O.2       2 ALA2        0.0000 
     12 OD1        34.6700   24.0100   33.1500 O.co2     3 ASP3        0.0000 
     13 OD1        34.2600   23.4000   34.4600 O.co2     3 ASP3        0.0000 
     14 OD1        36.8300   25.4100   32.7700 O.co2     3 ASP3        0.0000 
     15 OD1        35.4300   25.9000   32.5500 O.co2     3 ASP3        0.0000 
     16 OD1        35.0100   25.2900   33.8600 O.co2     3 ASP3        0.0000 
     17 OD1        40.3800   26.3200   32.6100 O.co2     3 ASP3        0.0000 
     18 OD1        38.9800   26.8100   32.3900 O.co2     3 ASP3        0.0000 
     19 OD1        37.5800   27.3000   32.1700 O.co2     3 ASP3        0.0000 
     20 OD1        38.5600   26.2000   33.6900 O.co2     3 ASP3        0.0000 
     21 OD1        37.1600   26.6900   33.4800 O.co2     3 ASP3        0.0000 
     22 OD1        35.7600   27.1800   33.2600 O.co2     3 ASP3        0.0000 
     23 OD1        38.1500   25.5900   35.0000 O.co2     3 ASP3        0.0000 
     24 OD1        35.3500   26.5700   34.5600 O.co2     3 ASP3        0.0000 
     25 OD1        39.7300   28.7000   31.7900 O.co2     3 ASP3        0.0000 
     26 OD1        39.3200   28.0900   33.0900 O.co2     3 ASP3        0.0000 
     27 OD1        38.9000   27.4800   34.4000 O.co2     3 ASP3        0.0000 
     28 OD1        37.5000   27.9700   34.1800 O.co2     3 ASP3        0.0000 
     29 OD1        36.1000   28.4600   33.9600 O.co2     3 ASP3        0.0000 
     30 OD1        38.4800   26.8700   35.7000 O.co2     3 ASP3        0.0000 
     31 OD1        37.0800   27.3600   35.4900 O.co2     3 ASP3        0.0000 
     32 OD1        35.6800   27.8500   35.2700 O.co2     3 ASP3        0.0000 
     33 OD1        40.9000   31.2000   29.8800 O.co2     3 ASP3        0.0000 
     34 OD1        40.4900   30.5900   31.1800 O.co2     3 ASP3        0.0000 
     35 OD1        37.4200   28.6400   36.1900 O.co2     3 ASP3        0.0000 
     36 OD1        36.0200   29.1300   35.9700 O.co2     3 ASP3        0.0000 
     37 OD1        38.4100   27.5500   37.7100 O.co2     3 ASP3        0.0000 
     38 OD1        37.0000   28.0400   37.5000 O.co2     3 ASP3        0.0000 
     39 NZ         37.8100   24.3100   34.3000 N.4       4 LYS4        0.0000 
     40 NZ         38.4100   28.5200   29.5600 N.4       4 LYS4        0.0000 
     41 NZ         40.1500   29.3100   30.4800 N.4       4 LYS4        0.0000 
     42 NZ         38.0700   26.2700   37.0100 N.4       4 LYS4        0.0000 
     43 CZ         35.7400   22.2400   32.6700 C.ar      5 PHE5        0.0000 
     44 CZ         34.3400   22.7300   32.4500 C.ar      5 PHE5        0.0000 
     45 CA         37.8900   23.6400   32.2900 C.3       6 GLY6        0.0000 
     46 CA         37.4700   23.0300   33.5900 C.3       6 GLY6        0.0000 
     47 CA         37.0600   22.4200   34.9000 C.3       6 GLY6        0.0000 
     48 CA         35.6600   22.9100   34.6800 C.3       6 GLY6        0.0000 
     49 CA         39.6300   24.4300   33.2100 C.3       6 GLY6        0.0000 
     50 CA         38.2300   24.9200   32.9900 C.3       6 GLY6        0.0000 
     51 CA         37.4000   23.7000   35.6000 C.3       6 GLY6        0.0000 
     52 CA         35.9900   24.1900   35.3800 C.3       6 GLY6        0.0000 
     53 CA         37.0100   29.0100   29.3400 C.3       6 GLY6        0.0000 
     54 CA         38.0000   27.9100   30.8600 C.3       6 GLY6        0.0000 
     55 CA         36.6000   28.4000   30.6400 C.3       6 GLY6        0.0000 
     56 CA         36.1800   27.7900   31.9500 C.3       6 GLY6        0.0000 
     57 CA         37.7300   24.9900   36.3100 C.3       6 GLY6        0.0000 
     58 CA         36.3300   25.4700   36.0900 C.3       6 GLY6        0.0000 
     59 CA         38.7500   29.8000   30.2600 C.3       6 GLY6        0.0000 
     60 CA         36.6700   26.7500   36.7900 C.3       6 GLY6        0.0000 
     61 CA         39.5000   31.6900   29.6600 C.3       6 GLY6        0.0000 
     62 CA         39.0900   31.0800   30.9700 C.3       6 GLY6        0.0000 
     63 CA         35.6000   28.5200   37.2800 C.3       6 GLY6        0.0000 
     64 DU         36.0700   23.5200   33.3700 H         7 CUB7        0.0000 
     65 DU         36.4100   24.8000   34.0800 H         7 CUB7        0.0000 
     66 DU         36.7500   26.0800   34.7800 H         7 CUB7        0.0000 
@<TRIPOS>BOND
@<TRIPOS>SUBSTRUCTURE
     1 SER1        1 GROUP   
     2 ALA2        2 GROUP   
     3 ASP3       12 GROUP   
     4 LYS4       39 GROUP   
     5 PHE5       43 GROUP   
     6 GLY6       45 GROUP   
     7 CUB7       64 GROUP   
@<TRIPOS>SET

