#    Name: 6asw_1_D4T_CAVITY_N1_12
#    Modification time : Fri May 22 19:28:13 2020

@<TRIPOS>MOLECULE
6asw_1_D4T_CAVITY_N1_12
  100     0     7     0     0
SMALL
NO_CHARGES


@<TRIPOS>ATOM
      1 OG         35.3200   21.6300   33.9700 O.3       1 SER1        0.0000 
      2 N          33.9200   22.1200   33.7600 N.am      2 ALA2        0.0000 
      3 N          32.5200   22.6100   33.5400 N.am      2 ALA2        0.0000 
      4 O          36.4900   24.1300   32.0700 O.2       2 ALA2        0.0000 
      5 N          35.0900   24.6200   31.8500 N.am      2 ALA2        0.0000 
      6 O          34.2900   29.3100   26.8900 O.2       2 ALA2        0.0000 
      7 O          36.6700   27.7300   28.6300 O.2       2 ALA2        0.0000 
      8 O          35.2700   28.2100   28.4100 O.2       2 ALA2        0.0000 
      9 O          37.6600   26.6300   30.1600 O.2       2 ALA2        0.0000 
     10 O          34.8600   27.6100   29.7200 O.2       2 ALA2        0.0000 
     11 O          38.6400   25.5300   31.6800 O.2       2 ALA2        0.0000 
     12 O          37.2400   26.0200   31.4600 O.2       2 ALA2        0.0000 
     13 O          35.8400   26.5100   31.2500 O.2       2 ALA2        0.0000 
     14 N          36.4400   30.7100   26.5100 N.am      2 ALA2        0.0000 
     15 N          36.0300   30.1000   27.8100 N.am      2 ALA2        0.0000 
     16 N          35.6100   29.5000   29.1200 N.am      2 ALA2        0.0000 
     17 O          39.4000   27.4200   31.0800 O.2       2 ALA2        0.0000 
     18 N          35.7900   33.0900   25.6900 N.am      2 ALA2        0.0000 
     19 N          36.7800   31.9900   27.2100 N.am      2 ALA2        0.0000 
     20 N          36.3600   31.3800   28.5200 N.am      2 ALA2        0.0000 
     21 O          36.1300   34.3700   26.3900 O.2       2 ALA2        0.0000 
     22 OD1        34.6700   24.0100   33.1500 O.co2     3 ASP3        0.0000 
     23 OD1        34.2600   23.4000   34.4600 O.co2     3 ASP3        0.0000 
     24 OD1        36.8300   25.4100   32.7700 O.co2     3 ASP3        0.0000 
     25 OD1        35.4300   25.9000   32.5500 O.co2     3 ASP3        0.0000 
     26 OD1        35.0100   25.2900   33.8600 O.co2     3 ASP3        0.0000 
     27 OD1        40.3800   26.3200   32.6100 O.co2     3 ASP3        0.0000 
     28 OD1        38.9800   26.8100   32.3900 O.co2     3 ASP3        0.0000 
     29 OD1        37.5800   27.3000   32.1700 O.co2     3 ASP3        0.0000 
     30 OD1        38.5600   26.2000   33.6900 O.co2     3 ASP3        0.0000 
     31 OD1        37.1600   26.6900   33.4800 O.co2     3 ASP3        0.0000 
     32 OD1        35.7600   27.1800   33.2600 O.co2     3 ASP3        0.0000 
     33 OD1        38.1500   25.5900   35.0000 O.co2     3 ASP3        0.0000 
     34 OD1        35.3500   26.5700   34.5600 O.co2     3 ASP3        0.0000 
     35 OD1        39.7300   28.7000   31.7900 O.co2     3 ASP3        0.0000 
     36 OD1        39.3200   28.0900   33.0900 O.co2     3 ASP3        0.0000 
     37 OD1        38.9000   27.4800   34.4000 O.co2     3 ASP3        0.0000 
     38 OD1        37.5000   27.9700   34.1800 O.co2     3 ASP3        0.0000 
     39 OD1        36.1000   28.4600   33.9600 O.co2     3 ASP3        0.0000 
     40 OD1        38.4800   26.8700   35.7000 O.co2     3 ASP3        0.0000 
     41 OD1        37.0800   27.3600   35.4900 O.co2     3 ASP3        0.0000 
     42 OD1        35.6800   27.8500   35.2700 O.co2     3 ASP3        0.0000 
     43 OD1        40.9000   31.2000   29.8800 O.co2     3 ASP3        0.0000 
     44 OD1        40.4900   30.5900   31.1800 O.co2     3 ASP3        0.0000 
     45 OD1        37.4200   28.6400   36.1900 O.co2     3 ASP3        0.0000 
     46 OD1        36.0200   29.1300   35.9700 O.co2     3 ASP3        0.0000 
     47 OD1        38.4100   27.5500   37.7100 O.co2     3 ASP3        0.0000 
     48 OD1        37.0000   28.0400   37.5000 O.co2     3 ASP3        0.0000 
     49 NZ         37.8100   24.3100   34.3000 N.4       4 LYS4        0.0000 
     50 NZ         39.6600   30.3400   25.6400 N.4       4 LYS4        0.0000 
     51 NZ         37.8400   30.2200   26.7300 N.4       4 LYS4        0.0000 
     52 NZ         37.4300   29.6200   28.0300 N.4       4 LYS4        0.0000 
     53 NZ         38.4100   28.5200   29.5600 N.4       4 LYS4        0.0000 
     54 NZ         40.0000   31.6300   26.3400 N.4       4 LYS4        0.0000 
     55 NZ         39.5800   31.0200   27.6500 N.4       4 LYS4        0.0000 
     56 NZ         39.1700   30.4100   28.9500 N.4       4 LYS4        0.0000 
     57 NZ         40.1500   29.3100   30.4800 N.4       4 LYS4        0.0000 
     58 NZ         38.0700   26.2700   37.0100 N.4       4 LYS4        0.0000 
     59 CZ         35.7400   22.2400   32.6700 C.ar      5 PHE5        0.0000 
     60 CZ         34.3400   22.7300   32.4500 C.ar      5 PHE5        0.0000 
     61 CZ         35.7700   28.1500   25.1000 C.ar      5 PHE5        0.0000 
     62 CZ         37.9200   29.5500   24.7200 C.ar      5 PHE5        0.0000 
     63 CZ         37.5100   28.9400   26.0200 C.ar      5 PHE5        0.0000 
     64 CZ         36.1100   29.4300   25.8000 C.ar      5 PHE5        0.0000 
     65 CZ         37.0900   28.3300   27.3300 C.ar      5 PHE5        0.0000 
     66 CZ         35.6900   28.8200   27.1100 C.ar      5 PHE5        0.0000 
     67 CA         37.8900   23.6400   32.2900 C.3       6 GLY6        0.0000 
     68 CA         37.4700   23.0300   33.5900 C.3       6 GLY6        0.0000 
     69 CA         37.0600   22.4200   34.9000 C.3       6 GLY6        0.0000 
     70 CA         35.6600   22.9100   34.6800 C.3       6 GLY6        0.0000 
     71 CA         36.5200   30.0400   24.5000 C.3       6 GLY6        0.0000 
     72 CA         34.7100   29.9200   25.5800 C.3       6 GLY6        0.0000 
     73 CA         39.6300   24.4300   33.2100 C.3       6 GLY6        0.0000 
     74 CA         38.2300   24.9200   32.9900 C.3       6 GLY6        0.0000 
     75 CA         37.4000   23.7000   35.6000 C.3       6 GLY6        0.0000 
     76 CA         35.9900   24.1900   35.3800 C.3       6 GLY6        0.0000 
     77 CA         36.8600   31.3200   25.2000 C.3       6 GLY6        0.0000 
     78 CA         37.0100   29.0100   29.3400 C.3       6 GLY6        0.0000 
     79 CA         38.0000   27.9100   30.8600 C.3       6 GLY6        0.0000 
     80 CA         36.6000   28.4000   30.6400 C.3       6 GLY6        0.0000 
     81 CA         35.1900   28.8900   30.4300 C.3       6 GLY6        0.0000 
     82 CA         36.1800   27.7900   31.9500 C.3       6 GLY6        0.0000 
     83 CA         37.7300   24.9900   36.3100 C.3       6 GLY6        0.0000 
     84 CA         36.3300   25.4700   36.0900 C.3       6 GLY6        0.0000 
     85 CA         37.7600   30.9000   28.7400 C.3       6 GLY6        0.0000 
     86 CA         38.7500   29.8000   30.2600 C.3       6 GLY6        0.0000 
     87 CA         36.6700   26.7500   36.7900 C.3       6 GLY6        0.0000 
     88 CA         37.5300   33.8800   26.6100 C.3       6 GLY6        0.0000 
     89 CA         38.5200   32.7900   28.1300 C.3       6 GLY6        0.0000 
     90 CA         39.5000   31.6900   29.6600 C.3       6 GLY6        0.0000 
     91 CA         38.1000   32.1800   29.4400 C.3       6 GLY6        0.0000 
     92 CA         39.0900   31.0800   30.9700 C.3       6 GLY6        0.0000 
     93 CA         35.6000   28.5200   37.2800 C.3       6 GLY6        0.0000 
     94 DU         36.0700   23.5200   33.3700 H         7 CUB7        0.0000 
     95 DU         36.4100   24.8000   34.0800 H         7 CUB7        0.0000 
     96 DU         38.2600   30.8300   25.4200 H         7 CUB7        0.0000 
     97 DU         36.7500   26.0800   34.7800 H         7 CUB7        0.0000 
     98 DU         38.6000   32.1100   26.1200 H         7 CUB7        0.0000 
     99 DU         37.2000   32.6000   25.9000 H         7 CUB7        0.0000 
    100 DU         38.1800   31.5100   27.4300 H         7 CUB7        0.0000 
@<TRIPOS>BOND
@<TRIPOS>SUBSTRUCTURE
     1 SER1        1 GROUP   
     2 ALA2        2 GROUP   
     3 ASP3       22 GROUP   
     4 LYS4       49 GROUP   
     5 PHE5       59 GROUP   
     6 GLY6       67 GROUP   
     7 CUB7       94 GROUP   
@<TRIPOS>SET

