#    Name: 6asw_2_D4T
#    Modification time : Fri May 22 19:28:21 2020

@<TRIPOS>MOLECULE
6asw_2_D4T
   28    29     1     0     0
SMALL
NO_CHARGES


@<TRIPOS>ATOM
      1 PC         18.9660  -42.7550  -11.1120 P.3       1 D4T603      0.0000 
      2 O1C        17.6280  -42.1970  -10.7520 O.co2     1 D4T603      0.0000 
      3 O2C        19.9790  -42.3070  -10.1150 O.co2     1 D4T603      0.0000 
      4 O3C        19.3610  -42.2680  -12.4710 O.co2     1 D4T603      0.0000 
      5 O7'        18.8930  -44.3220  -11.1150 O.3       1 D4T603      0.0000 
      6 PB         19.2830  -45.2070   -9.8880 P.3       1 D4T603      0.0000 
      7 O1B        19.2560  -46.6740  -10.2950 O.co2     1 D4T603      0.0000 
      8 O2B        20.6690  -44.8370   -9.4190 O.co2     1 D4T603      0.0000 
      9 O6'        18.2500  -44.9690   -8.7240 O.3       1 D4T603      0.0000 
     10 PA         18.6420  -44.8320   -7.2400 P.3       1 D4T603      0.0000 
     11 O1A        19.7630  -43.8530   -7.1060 O.co2     1 D4T603      0.0000 
     12 O2A        17.4610  -44.3460   -6.4550 O.co2     1 D4T603      0.0000 
     13 O5'        19.1090  -46.3050   -6.6670 O.3       1 D4T603      0.0000 
     14 C5'        20.4790  -46.4990   -6.2880 C.3       1 D4T603      0.0000 
     15 C4'        20.8390  -47.9300   -6.3630 C.3       1 D4T603      0.0000 
     16 O4'        20.1060  -48.6870   -5.3620 O.3       1 D4T603      0.0000 
     17 C1'        19.2760  -49.6570   -5.9870 C.3       1 D4T603      0.0000 
     18 N1         17.8860  -49.5140   -5.5550 N.am      1 D4T603      0.0000 
     19 C6         17.3990  -48.3350   -5.2140 C.2       1 D4T603      0.0000 
     20 C2         17.0800  -50.6240   -5.5030 C.2       1 D4T603      0.0000 
     21 O2         17.5290  -51.7300   -5.8190 O.2       1 D4T603      0.0000 
     22 N3         15.7760  -50.5080   -5.1010 N.am      1 D4T603      0.0000 
     23 C4         15.2810  -49.3070   -4.7550 C.2       1 D4T603      0.0000 
     24 O4         14.0900  -49.2070   -4.3880 O.2       1 D4T603      0.0000 
     25 C5         16.0730  -48.2150   -4.8050 C.2       1 D4T603      0.0000 
     26 C5A        15.5090  -46.8160   -4.4060 C.3       1 D4T603      0.0000 
     27 C2'        19.4970  -49.4590   -7.4540 C.2       1 D4T603      0.0000 
     28 C3'        20.3670  -48.4970   -7.6390 C.2       1 D4T603      0.0000 
@<TRIPOS>BOND
     1    1    2 ar   
     2    1    3 ar   
     3    1    4 ar   
     4    1    5 1    
     5    5    6 1    
     6    6    7 ar   
     7    6    8 ar   
     8    6    9 1    
     9    9   10 1    
    10   10   11 ar   
    11   10   12 ar   
    12   10   13 1    
    13   13   14 1    
    14   14   15 1    
    15   15   16 1    
    16   15   28 1    
    17   16   17 1    
    18   17   18 1    
    19   17   27 1    
    20   18   19 1    
    21   18   20 1    
    22   19   25 2    
    23   20   21 2    
    24   20   22 1    
    25   22   23 1    
    26   23   24 2    
    27   23   25 1    
    28   25   26 1    
    29   27   28 2    
@<TRIPOS>SUBSTRUCTURE
     1 D4T603      1 GROUP   
@<TRIPOS>SET

