#    Name: 6asw_1_D4T
#    Modification time : Fri May 22 19:28:12 2020

@<TRIPOS>MOLECULE
6asw_1_D4T
   28    29     1     0     0
SMALL
NO_CHARGES


@<TRIPOS>ATOM
      1 PC         40.5890   28.9510   33.1910 P.3       1 D4T603      0.0000 
      2 O1C        39.7580   29.9420   33.9380 O.co2     1 D4T603      0.0000 
      3 O2C        41.3200   28.0830   34.1580 O.co2     1 D4T603      0.0000 
      4 O3C        41.5820   29.6790   32.3390 O.co2     1 D4T603      0.0000 
      5 O7'        39.6690   28.0640   32.2800 O.3       1 D4T603      0.0000 
      6 PB         38.9690   26.7490   32.7590 P.3       1 D4T603      0.0000 
      7 O1B        38.4240   26.0000   31.5500 O.co2     1 D4T603      0.0000 
      8 O2B        39.9730   25.8750   33.4710 O.co2     1 D4T603      0.0000 
      9 O6'        37.7850   27.1140   33.7330 O.3       1 D4T603      0.0000 
     10 PA         37.5150   26.4200   35.0850 P.3       1 D4T603      0.0000 
     11 O1A        38.7900   26.3200   35.8610 O.co2     1 D4T603      0.0000 
     12 O2A        36.5180   27.2200   35.8680 O.co2     1 D4T603      0.0000 
     13 O5'        36.9100   24.9140   34.8050 O.3       1 D4T603      0.0000 
     14 C5'        37.7690   23.7860   35.0270 C.3       1 D4T603      0.0000 
     15 C4'        37.3690   22.6370   34.1910 C.3       1 D4T603      0.0000 
     16 O4'        36.0870   22.1230   34.6420 O.3       1 D4T603      0.0000 
     17 C1'        35.1210   22.2460   33.6110 C.3       1 D4T603      0.0000 
     18 N1         33.9670   23.0060   34.0780 N.am      1 D4T603      0.0000 
     19 C6         34.0850   23.8780   35.0600 C.2       1 D4T603      0.0000 
     20 C2         32.7480   22.8060   33.4840 C.2       1 D4T603      0.0000 
     21 O2         32.6410   21.9880   32.5660 O.2       1 D4T603      0.0000 
     22 N3         31.6540   23.5120   33.9090 N.am      1 D4T603      0.0000 
     23 C4         31.7740   24.4020   34.9090 C.2       1 D4T603      0.0000 
     24 O4         30.7750   25.0450   35.2960 O.2       1 D4T603      0.0000 
     25 C5         32.9750   24.5980   35.4930 C.2       1 D4T603      0.0000 
     26 C5A        33.1290   25.6280   36.6560 C.3       1 D4T603      0.0000 
     27 C2'        35.8510   22.8900   32.4750 C.2       1 D4T603      0.0000 
     28 C3'        37.0980   23.0990   32.8190 C.2       1 D4T603      0.0000 
@<TRIPOS>BOND
     1    1    2 ar   
     2    1    3 ar   
     3    1    4 ar   
     4    1    5 1    
     5    5    6 1    
     6    6    7 ar   
     7    6    8 ar   
     8    6    9 1    
     9    9   10 1    
    10   10   11 ar   
    11   10   12 ar   
    12   10   13 1    
    13   13   14 1    
    14   14   15 1    
    15   15   16 1    
    16   15   28 1    
    17   16   17 1    
    18   17   18 1    
    19   17   27 1    
    20   18   19 1    
    21   18   20 1    
    22   19   25 2    
    23   20   21 2    
    24   20   22 1    
    25   22   23 1    
    26   23   24 2    
    27   23   25 1    
    28   25   26 1    
    29   27   28 2    
@<TRIPOS>SUBSTRUCTURE
     1 D4T603      1 GROUP   
@<TRIPOS>SET

