#    Name: 5nuj_1_Z80
#    Modification time : Fri May 22 19:13:38 2020

@<TRIPOS>MOLECULE
5nuj_1_Z80
   21    23     1     0     0
SMALL
NO_CHARGES


@<TRIPOS>ATOM
      1 C1         35.7790   48.2400  113.9730 C.ar      1 Z80201      0.0000 
      2 N1         35.3890   47.0700  113.2920 N.pl3     1 Z80201      0.0000 
      3 S1         36.7810   49.0690  111.5450 S.3       1 Z80201      0.0000 
      4 C2         36.4480   49.2520  113.2820 C.ar      1 Z80201      0.0000 
      5 N2         31.3910   45.1030  112.4560 N.4       1 Z80201      0.0000 
      6 C3         37.0170   47.3340  111.5120 C.ar      1 Z80201      0.0000 
      7 C4         36.3020   46.5120  112.3880 C.ar      1 Z80201      0.0000 
      8 C5         35.9370   49.5470  116.0030 C.ar      1 Z80201      0.0000 
      9 C6         36.6000   50.5630  115.3140 C.ar      1 Z80201      0.0000 
     10 C7         36.8580   50.4090  113.9510 C.ar      1 Z80201      0.0000 
     11 C8         37.9250   46.8000  110.6190 C.ar      1 Z80201      0.0000 
     12 C9         38.1180   45.4290  110.5990 C.ar      1 Z80201      0.0000 
     13 C10        37.4020   44.6200  111.4680 C.ar      1 Z80201      0.0000 
     14 C11        36.4960   45.1470  112.3620 C.ar      1 Z80201      0.0000 
     15 C12        34.0160   46.5110  113.4320 C.3       1 Z80201      0.0000 
     16 C13        33.4050   46.4960  112.0500 C.3       1 Z80201      0.0000 
     17 C14        32.7420   45.1420  111.8410 C.3       1 Z80201      0.0000 
     18 C15        30.3550   45.0900  111.4110 C.3       1 Z80201      0.0000 
     19 C16        31.2190   43.9310  113.3210 C.3       1 Z80201      0.0000 
     20 CL1        37.6370   42.9100  111.4560 Cl        1 Z80201      0.0000 
     21 C17        35.5390   48.3840  115.3370 C.ar      1 Z80201      0.0000 
@<TRIPOS>BOND
     1    1    2 1    
     2    1    4 ar   
     3    1   21 ar   
     4    2    7 1    
     5    2   15 1    
     6    3    4 1    
     7    3    6 1    
     8    4   10 ar   
     9    5   17 1    
    10    5   18 1    
    11    5   19 1    
    12    6    7 ar   
    13    6   11 ar   
    14    7   14 ar   
    15    8    9 ar   
    16    8   21 ar   
    17    9   10 ar   
    18   11   12 ar   
    19   12   13 ar   
    20   13   14 ar   
    21   13   20 1    
    22   15   16 1    
    23   16   17 1    
@<TRIPOS>SUBSTRUCTURE
     1 Z80201      1 GROUP   
@<TRIPOS>SET

