#    Name: 6c76_1_NAP
#    Modification time : Fri May 22 19:42:14 2020

@<TRIPOS>MOLECULE
6c76_1_NAP
   73    77     1     0     1
SMALL
NO_CHARGES


@<TRIPOS>ATOM
      1 PA         32.9280   65.7630   54.0910 P.3       1 NAP402      0.0000 
      2 O1A        32.0580   65.8850   55.3200 O.co2     1 NAP402      0.0000 
      3 O2A        32.9790   66.8970   53.1040 O.co2     1 NAP402      0.0000 
      4 O5B        34.4450   65.4740   54.5220 O.3       1 NAP402      0.0000 
      5 C5B        34.7740   64.4180   55.4140 C.3       1 NAP402      0.0000 
      6 C4B        36.2460   64.5070   55.7990 C.3       1 NAP402      0.0000 
      7 O4B        37.1120   64.1470   54.7240 O.3       1 NAP402      0.0000 
      8 C3B        36.6780   65.9010   56.2440 C.3       1 NAP402      0.0000 
      9 O3B        37.0240   65.8350   57.6270 O.3       1 NAP402      0.0000 
     10 C2B        37.9280   66.2470   55.4510 C.3       1 NAP402      0.0000 
     11 O2B        38.9810   66.6530   56.3220 O.3       1 NAP402      0.0000 
     12 C1B        38.3020   64.9390   54.7770 C.3       1 NAP402      0.0000 
     13 N9A        38.8090   65.1220   53.4060 N.pl3     1 NAP402      0.0000 
     14 C8A        38.0450   65.4090   52.3360 C.2       1 NAP402      0.0000 
     15 N7A        38.7620   65.3130   51.1890 N.2       1 NAP402      0.0000 
     16 C5A        39.9680   64.8210   51.5260 C.ar      1 NAP402      0.0000 
     17 C6A        41.2180   64.5030   50.8160 C.ar      1 NAP402      0.0000 
     18 N6A        41.2890   64.6110   49.4760 N.pl3     1 NAP402      0.0000 
     19 N1A        42.2850   64.1310   51.5530 N.ar      1 NAP402      0.0000 
     20 C2A        42.2200   63.9790   52.8880 C.ar      1 NAP402      0.0000 
     21 N3A        41.1210   64.2760   53.6010 N.ar      1 NAP402      0.0000 
     22 C4A        39.9840   64.6710   52.9860 C.ar      1 NAP402      0.0000 
     23 O3         32.6100   64.3350   53.4100 O.3       1 NAP402      0.0000 
     24 PN         31.6020   63.9850   52.1910 P.3       1 NAP402      0.0000 
     25 O1N        32.1970   64.4410   50.8830 O.co2     1 NAP402      0.0000 
     26 O2N        31.2420   62.5270   52.3790 O.co2     1 NAP402      0.0000 
     27 O5D        30.2980   64.8820   52.4390 O.3       1 NAP402      0.0000 
     28 C5D        29.4200   64.6270   53.5220 C.3       1 NAP402      0.0000 
     29 C4D        28.5140   65.8350   53.5840 C.3       1 NAP402      0.0000 
     30 O4D        27.8570   65.9780   52.3290 O.3       1 NAP402      0.0000 
     31 C3D        27.4430   65.7220   54.6580 C.3       1 NAP402      0.0000 
     32 O3D        27.3580   66.9710   55.3740 O.3       1 NAP402      0.0000 
     33 C2D        26.1790   65.4390   53.8750 C.3       1 NAP402      0.0000 
     34 O2D        25.0280   65.9700   54.5350 O.3       1 NAP402      0.0000 
     35 C1D        26.4500   66.1340   52.5440 C.3       1 NAP402      0.0000 
     36 N1N        25.6530   65.6180   51.4160 N.pl3     1 NAP402      0.0000 
     37 C2N        25.2290   66.5130   50.5160 C.ar      1 NAP402      0.0000 
     38 C3N        24.4570   66.1270   49.4250 C.ar      1 NAP402      0.0000 
     39 C7N        23.9790   67.1690   48.4420 C.2       1 NAP402      0.0000 
     40 O7N        23.3890   66.8190   47.4350 O.2       1 NAP402      0.0000 
     41 N7N        24.2250   68.4670   48.6610 N.am      1 NAP402      0.0000 
     42 C4N        24.1020   64.7820   49.2910 C.ar      1 NAP402      0.0000 
     43 C5N        24.6400   63.8430   50.1730 C.ar      1 NAP402      0.0000 
     44 C6N        25.3720   64.3040   51.2730 C.ar      1 NAP402      0.0000 
     45 P2B        39.4400   68.1870   56.4300 P.3       1 NAP402      0.0000 
     46 O1X        38.2260   68.9360   56.9020 O.co2     1 NAP402      0.0000 
     47 O2X        40.5630   68.1020   57.4280 O.co2     1 NAP402      0.0000 
     48 O3X        39.8700   68.5410   55.0220 O.co2     1 NAP402      0.0000 
     49 H51A       34.1550   64.4870   56.3110 H         1 NAP402      0.0000 
     50 H52A       34.5760   63.4550   54.9380 H         1 NAP402      0.0000 
     51 H4B        36.4150   63.8170   56.6380 H         1 NAP402      0.0000 
     52 H3B        35.8840   66.6380   56.0580 H         1 NAP402      0.0000 
     53 HO3A       36.2460   66.0360   58.1640 H         1 NAP402      0.0000 
     54 H2B        37.7030   67.0160   54.6980 H         1 NAP402      0.0000 
     55 H1B        39.0590   64.4300   55.3900 H         1 NAP402      0.0000 
     56 H8A        37.0080   65.7150   52.3870 H         1 NAP402      0.0000 
     57 H61A       40.4910   64.9410   48.9550 H         1 NAP402      0.0000 
     58 H62A       42.1540   64.4050   48.9980 H         1 NAP402      0.0000 
     59 H2A        43.1010   63.6330   53.4140 H         1 NAP402      0.0000 
     60 H51N       29.9800   64.5150   54.4530 H         1 NAP402      0.0000 
     61 H52N       28.8400   63.7190   53.3410 H         1 NAP402      0.0000 
     62 H4D        29.1260   66.7240   53.7870 H         1 NAP402      0.0000 
     63 H3D        27.6670   64.8850   55.3330 H         1 NAP402      0.0000 
     64 HO3N       26.6800   67.5320   54.9730 H         1 NAP402      0.0000 
     65 H2D        26.0800   64.3560   53.7230 H         1 NAP402      0.0000 
     66 HO2N       24.4430   65.2450   54.7970 H         1 NAP402      0.0000 
     67 H1D        26.2280   67.2020   52.6760 H         1 NAP402      0.0000 
     68 H2N        25.4650   67.5580   50.6590 H         1 NAP402      0.0000 
     69 H71N       23.9110   69.1560   47.9920 H         1 NAP402      0.0000 
     70 H72N       24.7220   68.7620   49.4870 H         1 NAP402      0.0000 
     71 H4N        23.5530   64.4490   48.4190 H         1 NAP402      0.0000 
     72 H5N        24.3840   62.7960   50.0820 H         1 NAP402      0.0000 
     73 H6N        25.7480   63.5910   51.9960 H         1 NAP402      0.0000 
@<TRIPOS>BOND
     1    1    2 ar   
     2    1    3 ar   
     3    1    4 1    
     4    1   23 1    
     5    4    5 1    
     6    5    6 1    
     7    5   49 1    
     8    5   50 1    
     9    6    7 1    
    10    6    8 1    
    11    6   51 1    
    12    7   12 1    
    13    8    9 1    
    14    8   10 1    
    15    8   52 1    
    16    9   53 1    
    17   10   11 1    
    18   10   12 1    
    19   10   54 1    
    20   11   45 1    
    21   12   13 1    
    22   12   55 1    
    23   13   14 1    
    24   13   22 1    
    25   14   15 2    
    26   14   56 1    
    27   15   16 1    
    28   16   17 ar   
    29   16   22 ar   
    30   17   18 1    
    31   17   19 ar   
    32   18   57 1    
    33   18   58 1    
    34   19   20 ar   
    35   20   21 ar   
    36   20   59 1    
    37   21   22 ar   
    38   23   24 1    
    39   24   25 ar   
    40   24   26 ar   
    41   24   27 1    
    42   27   28 1    
    43   28   29 1    
    44   28   60 1    
    45   28   61 1    
    46   29   30 1    
    47   29   31 1    
    48   29   62 1    
    49   30   35 1    
    50   31   32 1    
    51   31   33 1    
    52   31   63 1    
    53   32   64 1    
    54   33   34 1    
    55   33   35 1    
    56   33   65 1    
    57   34   66 1    
    58   35   36 1    
    59   35   67 1    
    60   36   37 ar   
    61   36   44 ar   
    62   37   38 ar   
    63   37   68 1    
    64   38   39 1    
    65   38   42 ar   
    66   39   40 2    
    67   39   41 am   
    68   41   69 1    
    69   41   70 1    
    70   42   43 ar   
    71   42   71 1    
    72   43   44 ar   
    73   43   72 1    
    74   44   73 1    
    75   45   46 ar   
    76   45   47 ar   
    77   45   48 ar   
@<TRIPOS>SUBSTRUCTURE
     1 NAP402      1 GROUP   
@<TRIPOS>SET
ATOM$ORANGE STATIC     ATOMS   COLORGROUP SYSTEM 
42 5 5 6 6 8 8 10 10 12 12 14 14 16 16 17 17 20 \
20 22 22 28 28 29 29 31 31 33 33 35 35 37 37 38 38 39 \
39 42 42 43 43 44 44 

