#    Name: 6p5x_1_SAH
#    Modification time : Fri May 22 19:26:39 2020

@<TRIPOS>MOLECULE
6p5x_1_SAH
   26    28     1     0     0
SMALL
NO_CHARGES


@<TRIPOS>ATOM
      1 N          39.7160    1.7940   17.9380 N.4       1 SAH501      0.0000 
      2 CA         38.6890    1.3080   16.9980 C.3       1 SAH501      0.0000 
      3 CB         38.5040    2.3060   15.8620 C.3       1 SAH501      0.0000 
      4 CG         38.1860    3.7420   16.2910 C.3       1 SAH501      0.0000 
      5 SD         38.2300    4.8840   14.8660 S.3       1 SAH501      0.0000 
      6 C          39.0080   -0.0750   16.4070 C.2       1 SAH501      0.0000 
      7 O          40.0150   -0.6980   16.7340 O.co2     1 SAH501      0.0000 
      8 OXT        38.2770   -0.5980   15.5690 O.co2     1 SAH501      0.0000 
      9 C5'        36.4800    4.7000   14.4350 C.3       1 SAH501      0.0000 
     10 C4'        36.2460    3.9560   13.1200 C.3       1 SAH501      0.0000 
     11 O4'        36.2730    2.5380   13.3090 O.3       1 SAH501      0.0000 
     12 C3'        34.8910    4.2340   12.4980 C.3       1 SAH501      0.0000 
     13 O3'        34.8820    5.4250   11.7540 O.3       1 SAH501      0.0000 
     14 C2'        34.7050    3.0420   11.5910 C.3       1 SAH501      0.0000 
     15 O2'        35.4150    3.2650   10.3840 O.3       1 SAH501      0.0000 
     16 C1'        35.4180    1.9350   12.3500 C.3       1 SAH501      0.0000 
     17 N9         34.4760    1.0710   13.0750 N.pl3     1 SAH501      0.0000 
     18 C8         34.3490    0.9490   14.4390 C.2       1 SAH501      0.0000 
     19 N7         33.3790    0.0370   14.6970 N.2       1 SAH501      0.0000 
     20 C5         32.8860   -0.4090   13.5200 C.ar      1 SAH501      0.0000 
     21 C6         31.9010   -1.3320   13.1880 C.ar      1 SAH501      0.0000 
     22 N6         31.2050   -1.9990   14.1190 N.pl3     1 SAH501      0.0000 
     23 N1         31.6470   -1.5700   11.8610 N.ar      1 SAH501      0.0000 
     24 C2         32.3300   -0.9190   10.8610 C.ar      1 SAH501      0.0000 
     25 N3         33.3070   -0.0070   11.1950 N.ar      1 SAH501      0.0000 
     26 C4         33.5770    0.2320   12.4950 C.ar      1 SAH501      0.0000 
@<TRIPOS>BOND
     1    1    2 1    
     2    2    3 1    
     3    2    6 1    
     4    3    4 1    
     5    4    5 1    
     6    5    9 1    
     7    6    7 ar   
     8    6    8 ar   
     9    9   10 1    
    10   10   11 1    
    11   10   12 1    
    12   11   16 1    
    13   12   13 1    
    14   12   14 1    
    15   14   15 1    
    16   14   16 1    
    17   16   17 1    
    18   17   18 1    
    19   17   26 1    
    20   18   19 2    
    21   19   20 1    
    22   20   21 ar   
    23   20   26 ar   
    24   21   22 1    
    25   21   23 ar   
    26   23   24 ar   
    27   24   25 ar   
    28   25   26 ar   
@<TRIPOS>SUBSTRUCTURE
     1 SAH501      1 GROUP   
@<TRIPOS>SET

