#    Name: 6fqy_1_NAP
#    Modification time : Fri May 22 19:31:11 2020

@<TRIPOS>MOLECULE
6fqy_1_NAP
   31    33     1     0     1
SMALL
NO_CHARGES


@<TRIPOS>ATOM
      1 PA         86.1340   38.2370   14.1140 P.3       1 NAP501      0.0000 
      2 O1A        85.5980   36.9750   13.4810 O.co2     1 NAP501      0.0000 
      3 O2A        87.5700   38.0200   14.5290 O.co2     1 NAP501      0.0000 
      4 O5B        85.2220   38.6190   15.4400 O.3       1 NAP501      0.0000 
      5 C5B        85.7860   38.4410   16.7120 C.3       1 NAP501      0.0000 
      6 C4B        84.6650   38.2320   17.7700 C.3       1 NAP501      0.0000 
      7 O4B        83.7520   39.1640   17.6540 O.3       1 NAP501      0.0000 
      8 C3B        83.9470   36.8880   17.5200 C.3       1 NAP501      0.0000 
      9 O3B        83.8190   36.2010   18.6840 O.3       1 NAP501      0.0000 
     10 C2B        82.5590   37.2920   16.9910 C.3       1 NAP501      0.0000 
     11 O2B        81.5420   36.2640   17.3590 O.3       1 NAP501      0.0000 
     12 C1B        82.3210   38.4110   17.6100 C.3       1 NAP501      0.0000 
     13 N9A        81.3600   39.1950   16.8750 N.pl3     1 NAP501      0.0000 
     14 C8A        81.4890   39.9270   15.7660 C.2       1 NAP501      0.0000 
     15 N7A        80.2980   40.4640   15.4850 N.2       1 NAP501      0.0000 
     16 C5A        79.4310   40.0600   16.4220 C.ar      1 NAP501      0.0000 
     17 C6A        78.0880   40.3100   16.6120 C.ar      1 NAP501      0.0000 
     18 N6A        77.0580   41.0770   15.9310 N.pl3     1 NAP501      0.0000 
     19 N1A        77.4510   39.7790   17.6430 N.ar      1 NAP501      0.0000 
     20 C2A        78.1150   38.9800   18.5120 C.ar      1 NAP501      0.0000 
     21 N3A        79.4350   38.7330   18.3290 N.ar      1 NAP501      0.0000 
     22 C4A        80.0860   39.2750   17.2820 C.ar      1 NAP501      0.0000 
     23 O3         86.0610   39.4730   13.0230 O.3       1 NAP501      0.0000 
     24 PN         86.7620   40.9490   13.2630 P.3       1 NAP501      0.0000 
     25 O1N        86.5010   41.9050   11.9420 O.3       1 NAP501      0.0000 
     26 O2N        88.2480   40.7770   13.4740 O.co2     1 NAP501      0.0000 
     27 O5D        86.1550   41.5980   14.4820 O.co2     1 NAP501      0.0000 
     28 P2B        81.4030   34.9250   16.4070 P.3       1 NAP501      0.0000 
     29 O1X        81.2460   35.3420   14.9640 O.co2     1 NAP501      0.0000 
     30 O2X        82.6390   34.0710   16.5520 O.co2     1 NAP501      0.0000 
     31 O3X        80.1890   34.1370   16.8390 O.co2     1 NAP501      0.0000 
@<TRIPOS>BOND
     1    1    2 ar   
     2    1    3 ar   
     3    1    4 1    
     4    1   23 1    
     5    4    5 1    
     6    5    6 1    
     7    6    7 1    
     8    6    8 1    
     9    7   12 1    
    10    8    9 1    
    11    8   10 1    
    12   10   11 1    
    13   10   12 1    
    14   11   28 1    
    15   12   13 1    
    16   13   14 1    
    17   13   22 1    
    18   14   15 2    
    19   15   16 1    
    20   16   17 ar   
    21   16   22 ar   
    22   17   18 1    
    23   17   19 ar   
    24   19   20 ar   
    25   20   21 ar   
    26   21   22 ar   
    27   23   24 1    
    28   24   25 1    
    29   24   26 ar   
    30   24   27 ar   
    31   28   29 ar   
    32   28   30 ar   
    33   28   31 ar   
@<TRIPOS>SUBSTRUCTURE
     1 NAP501      1 GROUP   
@<TRIPOS>SET
ATOM$ORANGE STATIC     ATOMS   COLORGROUP SYSTEM 
20 5 5 6 6 8 8 10 10 12 12 14 14 16 16 17 17 20 \
20 22 22 

