#    Name: 6fqy_2_NAP
#    Modification time : Fri May 22 19:31:16 2020

@<TRIPOS>MOLECULE
6fqy_2_NAP
   31    33     1     0     1
SMALL
NO_CHARGES


@<TRIPOS>ATOM
      1 PA         77.6880   87.9750   22.8940 P.3       1 NAP500      0.0000 
      2 O1A        77.7950   88.5110   21.4850 O.co2     1 NAP500      0.0000 
      3 O2A        77.3980   89.1140   23.8400 O.co2     1 NAP500      0.0000 
      4 O5B        76.4500   86.8830   22.9420 O.3       1 NAP500      0.0000 
      5 C5B        75.8210   86.6440   21.7190 C.3       1 NAP500      0.0000 
      6 C4B        74.3490   86.1460   21.8600 C.3       1 NAP500      0.0000 
      7 O4B        74.3070   84.9470   22.3830 O.3       1 NAP500      0.0000 
      8 C3B        73.5330   87.0630   22.7930 C.3       1 NAP500      0.0000 
      9 O3B        72.3110   87.3160   22.2510 O.3       1 NAP500      0.0000 
     10 C2B        73.3860   86.2170   24.0680 C.3       1 NAP500      0.0000 
     11 O2B        72.1840   86.6960   24.8060 O.3       1 NAP500      0.0000 
     12 C1B        73.2800   84.9960   23.6260 C.3       1 NAP500      0.0000 
     13 N9A        73.7300   84.0710   24.6350 N.pl3     1 NAP500      0.0000 
     14 C8A        74.9660   83.7590   25.0390 C.2       1 NAP500      0.0000 
     15 N7A        74.8610   82.8500   26.0130 N.2       1 NAP500      0.0000 
     16 C5A        73.5600   82.5960   26.2080 C.ar      1 NAP500      0.0000 
     17 C6A        72.9060   81.7500   27.0790 C.ar      1 NAP500      0.0000 
     18 N6A        73.2950   80.8070   28.1160 N.pl3     1 NAP500      0.0000 
     19 N1A        71.5850   81.6810   27.0750 N.ar      1 NAP500      0.0000 
     20 C2A        70.8730   82.4460   26.2120 C.ar      1 NAP500      0.0000 
     21 N3A        71.5120   83.2780   25.3540 N.ar      1 NAP500      0.0000 
     22 C4A        72.8570   83.3500   25.3570 C.ar      1 NAP500      0.0000 
     23 O3         79.1170   87.2570   23.3100 O.3       1 NAP500      0.0000 
     24 PN         80.4760   87.2890   22.3690 P.3       1 NAP500      0.0000 
     25 O1N        80.2170   86.5630   21.0710 O.3       1 NAP500      0.0000 
     26 O2N        80.8570   88.7200   22.0740 O.co2     1 NAP500      0.0000 
     27 O5D        81.7120   86.5470   23.1740 O.co2     1 NAP500      0.0000 
     28 P2B        72.3130   88.2440   25.3560 P.3       1 NAP500      0.0000 
     29 O1X        72.0830   89.2280   24.2320 O.co2     1 NAP500      0.0000 
     30 O2X        71.2930   88.4700   26.4380 O.co2     1 NAP500      0.0000 
     31 O3X        73.6940   88.4490   25.9300 O.co2     1 NAP500      0.0000 
@<TRIPOS>BOND
     1    1    2 ar   
     2    1    3 ar   
     3    1    4 1    
     4    1   23 1    
     5    4    5 1    
     6    5    6 1    
     7    6    7 1    
     8    6    8 1    
     9    7   12 1    
    10    8    9 1    
    11    8   10 1    
    12   10   11 1    
    13   10   12 1    
    14   11   28 1    
    15   12   13 1    
    16   13   14 1    
    17   13   22 1    
    18   14   15 2    
    19   15   16 1    
    20   16   17 ar   
    21   16   22 ar   
    22   17   18 1    
    23   17   19 ar   
    24   19   20 ar   
    25   20   21 ar   
    26   21   22 ar   
    27   23   24 1    
    28   24   25 1    
    29   24   26 ar   
    30   24   27 ar   
    31   28   29 ar   
    32   28   30 ar   
    33   28   31 ar   
@<TRIPOS>SUBSTRUCTURE
     1 NAP500      1 GROUP   
@<TRIPOS>SET
ATOM$ORANGE STATIC     ATOMS   COLORGROUP SYSTEM 
20 5 5 6 6 8 8 10 10 12 12 14 14 16 16 17 17 20 \
20 22 22 

