#    Name: 5zub_1_NAD
#    Modification time : Fri May 22 19:25:03 2020

@<TRIPOS>MOLECULE
5zub_1_NAD
   44    48     1     0     1
SMALL
NO_CHARGES


@<TRIPOS>ATOM
      1 PA        -11.1050    6.7580   -9.9340 P.3       1 NAD201      0.0000 
      2 O1A       -11.1710    6.4070  -11.3790 O.co2     1 NAD201      0.0000 
      3 O2A       -11.9330    7.9580   -9.5160 O.co2     1 NAD201      0.0000 
      4 O5B        -9.5440    7.0270   -9.4960 O.3       1 NAD201      0.0000 
      5 C5B        -8.6940    5.9050   -9.3250 C.3       1 NAD201      0.0000 
      6 C4B        -7.2100    6.3660   -9.5350 C.3       1 NAD201      0.0000 
      7 O4B        -6.8700    6.2090  -10.7970 O.3       1 NAD201      0.0000 
      8 C3B        -7.1060    7.8730   -9.2730 C.3       1 NAD201      0.0000 
      9 O3B        -5.9230    8.1890   -8.6420 O.3       1 NAD201      0.0000 
     10 C2B        -7.1770    8.4620  -10.7080 C.3       1 NAD201      0.0000 
     11 O2B        -6.6160    9.8720  -10.7270 O.3       1 NAD201      0.0000 
     12 C1B        -6.4490    7.6510  -11.3900 C.3       1 NAD201      0.0000 
     13 N9A        -6.7380    7.6350  -12.8110 N.pl3     1 NAD201      0.0000 
     14 C8A        -7.7780    8.2030  -13.4570 C.2       1 NAD201      0.0000 
     15 N7A        -7.6570    7.9130  -14.7650 N.2       1 NAD201      0.0000 
     16 C5A        -6.5600    7.1470  -14.9220 C.ar      1 NAD201      0.0000 
     17 C6A        -6.0060    6.5890  -16.0370 C.ar      1 NAD201      0.0000 
     18 N6A        -6.4520    6.6680  -17.4230 N.pl3     1 NAD201      0.0000 
     19 N1A        -4.8840    5.8560  -15.9420 N.ar      1 NAD201      0.0000 
     20 C2A        -4.2990    5.6670  -14.7280 C.ar      1 NAD201      0.0000 
     21 N3A        -4.8430    6.2190  -13.6110 N.ar      1 NAD201      0.0000 
     22 C4A        -5.9950    6.9600  -13.7230 C.ar      1 NAD201      0.0000 
     23 O3        -11.4900    5.4030   -9.1000 O.3       1 NAD201      0.0000 
     24 PN        -12.2830    5.2360   -7.6380 P.3       1 NAD201      0.0000 
     25 O1N       -11.7740    6.1770   -6.5670 O.co2     1 NAD201      0.0000 
     26 O2N       -12.1000    3.8000   -7.2670 O.co2     1 NAD201      0.0000 
     27 O5D       -13.8420    5.5390   -7.9900 O.3       1 NAD201      0.0000 
     28 C5D       -14.4180    4.6720   -8.9540 C.3       1 NAD201      0.0000 
     29 C4D       -15.9000    5.0310   -9.2210 C.3       1 NAD201      0.0000 
     30 O4D       -16.0220    6.3350   -9.1790 O.3       1 NAD201      0.0000 
     31 C3D       -16.3270    4.6040  -10.6510 C.3       1 NAD201      0.0000 
     32 O3D       -17.5470    4.0480  -10.6120 O.3       1 NAD201      0.0000 
     33 C2D       -16.3790    5.9270  -11.4590 C.3       1 NAD201      0.0000 
     34 O2D       -17.4240    5.8060  -12.5500 O.3       1 NAD201      0.0000 
     35 C1D       -16.7660    6.7890  -10.5460 C.3       1 NAD201      0.0000 
     36 N1N       -16.3940    8.1140  -10.8770 N.pl3     1 NAD201      0.0000 
     37 C2N       -17.3640    8.9850  -11.3420 C.ar      1 NAD201      0.0000 
     38 C3N       -17.0190   10.3070  -11.6690 C.ar      1 NAD201      0.0000 
     39 C7N       -18.0950   11.2300  -12.1840 C.2       1 NAD201      0.0000 
     40 O7N       -19.2190   10.8580  -12.2100 O.2       1 NAD201      0.0000 
     41 N7N       -17.7380   12.6010  -12.6750 N.am      1 NAD201      0.0000 
     42 C4N       -15.7280   10.7470  -11.5300 C.ar      1 NAD201      0.0000 
     43 C5N       -14.7620    9.8730  -11.0660 C.ar      1 NAD201      0.0000 
     44 C6N       -15.1090    8.5390  -10.7320 C.ar      1 NAD201      0.0000 
@<TRIPOS>BOND
     1    1    2 ar   
     2    1    3 ar   
     3    1    4 1    
     4    1   23 1    
     5    4    5 1    
     6    5    6 1    
     7    6    7 1    
     8    6    8 1    
     9    7   12 1    
    10    8    9 1    
    11    8   10 1    
    12   10   11 1    
    13   10   12 1    
    14   12   13 1    
    15   13   14 1    
    16   13   22 1    
    17   14   15 2    
    18   15   16 1    
    19   16   17 ar   
    20   16   22 ar   
    21   17   18 1    
    22   17   19 ar   
    23   19   20 ar   
    24   20   21 ar   
    25   21   22 ar   
    26   23   24 1    
    27   24   25 ar   
    28   24   26 ar   
    29   24   27 1    
    30   27   28 1    
    31   28   29 1    
    32   29   30 1    
    33   29   31 1    
    34   30   35 1    
    35   31   32 1    
    36   31   33 1    
    37   33   34 1    
    38   33   35 1    
    39   35   36 1    
    40   36   37 ar   
    41   36   44 ar   
    42   37   38 ar   
    43   38   39 1    
    44   38   42 ar   
    45   39   40 2    
    46   39   41 am   
    47   42   43 ar   
    48   43   44 ar   
@<TRIPOS>SUBSTRUCTURE
     1 NAD201      1 GROUP   
@<TRIPOS>SET
ATOM$ORANGE STATIC     ATOMS   COLORGROUP SYSTEM 
42 5 5 6 6 8 8 10 10 12 12 14 14 16 16 17 17 20 \
20 22 22 28 28 29 29 31 31 33 33 35 35 37 37 38 38 39 \
39 42 42 43 43 44 44 

