#    Name: 6otg_1_4UY
#    Modification time : Fri May 22 19:31:06 2020

@<TRIPOS>MOLECULE
6otg_1_4UY
   41    44     1     0     0
SMALL
NO_CHARGES


@<TRIPOS>ATOM
      1 C2         21.0630   27.5430   15.1740           1 4UY201      0.0000 
      2 C3         19.7120   27.4680   14.8190           1 4UY201      0.0000 
      3 C4         18.9500   26.3210   15.0770           1 4UY201      0.0000 
      4 C5         19.5460   25.2070   15.7100           1 4UY201      0.0000 
      5 C6         20.9150   25.3310   16.0380           1 4UY201      0.0000 
      6 C7         21.6730   26.4750   15.7990           1 4UY201      0.0000 
      7 S8         18.6820   23.8150   16.0940           1 4UY201      0.0000 
      8 O9         17.6470   23.7230   15.0970           1 4UY201      0.0000 
      9 O10        19.5920   22.6690   16.2140           1 4UY201      0.0000 
     10 N11        18.0180   24.1990   17.5710           1 4UY201      0.0000 
     11 C12        18.9210   23.9940   18.7010           1 4UY201      0.0000 
     12 C13        18.4380   23.5350   20.0230           1 4UY201      0.0000 
     13 C14        18.3500   22.0740   19.8220           1 4UY201      0.0000 
     14 C15        19.5090   23.8910   21.0460           1 4UY201      0.0000 
     15 C16        16.6620   24.8080   17.6230           1 4UY201      0.0000 
     16 C17        15.5440   23.8990   18.1050           1 4UY201      0.0000 
     17 O18        14.3870   24.6600   18.4300           1 4UY201      0.0000 
     18 C19        15.1780   22.7880   17.1130           1 4UY201      0.0000 
     19 N20        14.2610   21.8310   17.7200           1 4UY201      0.0000 
     20 C21        14.5380   20.5450   17.9350           1 4UY201      0.0000 
     21 O22        15.6210   19.9720   17.6820           1 4UY201      0.0000 
     22 O23        13.4670   19.8810   18.5700           1 4UY201      0.0000 
     23 C24        13.7000   18.5260   18.9220           1 4UY201      0.0000 
     24 C25        13.3070   18.4530   20.4050           1 4UY201      0.0000 
     25 O26        11.8600   18.4880   20.3730           1 4UY201      0.0000 
     26 C27        11.4030   17.8930   19.1560           1 4UY201      0.0000 
     27 O28        10.4680   18.7580   18.4880           1 4UY201      0.0000 
     28 C29        10.9590   19.0720   17.1510           1 4UY201      0.0000 
     29 C30        12.0840   18.1340   16.8110           1 4UY201      0.0000 
     30 C31        12.6050   17.7220   18.2100           1 4UY201      0.0000 
     31 N41        11.6080   16.9400   16.0870           1 4UY201      0.0000 
     32 C42        11.1780   17.2140   14.7190           1 4UY201      0.0000 
     33 C32        14.3730   23.2490   15.9190           1 4UY201      0.0000 
     34 C33        12.6950   21.6480   14.8690           1 4UY201      0.0000 
     35 C34        12.4060   20.5760   14.0380           1 4UY201      0.0000 
     36 C35        13.4270   19.9260   13.3230           1 4UY201      0.0000 
     37 C36        14.7150   20.4060   13.4710           1 4UY201      0.0000 
     38 C37        15.0240   21.4650   14.3300           1 4UY201      0.0000 
     39 C38        14.0230   22.0820   15.0250           1 4UY201      0.0000 
     40 O39        21.8040   28.6930   14.9740           1 4UY201      0.0000 
     41 C40        23.1280   28.6920   15.4260           1 4UY201      0.0000 
@<TRIPOS>BOND
     1    1    2 du   
     2    1    6 du   
     3    1   40 du   
     4    2    3 du   
     5    3    4 du   
     6    4    5 du   
     7    4    7 du   
     8    5    6 du   
     9    7    8 du   
    10    7    9 du   
    11    7   10 du   
    12   10   15 du   
    13   10   11 du   
    14   11   12 du   
    15   12   13 du   
    16   12   14 du   
    17   15   16 du   
    18   16   17 du   
    19   16   18 du   
    20   18   19 du   
    21   18   33 du   
    22   19   20 du   
    23   20   21 du   
    24   20   22 du   
    25   22   23 du   
    26   23   24 du   
    27   23   30 du   
    28   24   25 du   
    29   25   26 du   
    30   26   27 du   
    31   26   30 du   
    32   27   28 du   
    33   28   29 du   
    34   29   30 du   
    35   29   31 du   
    36   31   32 du   
    37   33   39 du   
    38   34   35 du   
    39   34   39 du   
    40   35   36 du   
    41   36   37 du   
    42   37   38 du   
    43   38   39 du   
    44   40   41 du   
@<TRIPOS>SUBSTRUCTURE
     1 4UY201      1 GROUP   
@<TRIPOS>SET

