#    Name: 6c5c_2_NAD
#    Modification time : Fri May 22 19:37:57 2020

@<TRIPOS>MOLECULE
6c5c_2_NAD
   44    48     1     0     1
SMALL
NO_CHARGES


@<TRIPOS>ATOM
      1 PA          5.6100  -13.8070   17.6740 P.3       1 NAD401      0.0000 
      2 O1A         5.4840  -12.3250   17.4750 O.co2     1 NAD401      0.0000 
      3 O2A         5.6410  -14.7560   16.4850 O.co2     1 NAD401      0.0000 
      4 O5B         7.0110  -14.1220   18.4540 O.3       1 NAD401      0.0000 
      5 C5B         7.3500  -13.3570   19.6300 C.3       1 NAD401      0.0000 
      6 C4B         8.8260  -12.9200   19.6060 C.3       1 NAD401      0.0000 
      7 O4B         9.6850  -14.0290   19.8510 O.3       1 NAD401      0.0000 
      8 C3B         9.3050  -12.3800   18.2750 C.3       1 NAD401      0.0000 
      9 O3B        10.1230  -11.2320   18.5100 O.3       1 NAD401      0.0000 
     10 C2B        10.0850  -13.5210   17.6490 C.3       1 NAD401      0.0000 
     11 O2B        11.1310  -13.1290   16.7890 O.3       1 NAD401      0.0000 
     12 C1B        10.6700  -14.2240   18.8410 C.3       1 NAD401      0.0000 
     13 N9A        10.7610  -15.6830   18.9240 N.pl3     1 NAD401      0.0000 
     14 C8A         9.8620  -16.6110   18.5170 C.2       1 NAD401      0.0000 
     15 N7A        10.2860  -17.8580   18.8630 N.2       1 NAD401      0.0000 
     16 C5A        11.4640  -17.7300   19.5230 C.ar      1 NAD401      0.0000 
     17 C6A        12.4520  -18.6280   20.1770 C.ar      1 NAD401      0.0000 
     18 N6A        12.2770  -19.9650   20.2030 N.pl3     1 NAD401      0.0000 
     19 N1A        13.5560  -18.0580   20.7390 N.ar      1 NAD401      0.0000 
     20 C2A        13.7550  -16.7250   20.7320 C.ar      1 NAD401      0.0000 
     21 N3A        12.8990  -15.8540   20.1720 N.ar      1 NAD401      0.0000 
     22 C4A        11.7660  -16.2920   19.5570 C.ar      1 NAD401      0.0000 
     23 O3          4.4910  -14.0730   18.7740 O.3       1 NAD401      0.0000 
     24 PN          3.5740  -15.3440   19.0990 P.3       1 NAD401      0.0000 
     25 O1N         2.8740  -15.0580   20.3790 O.co2     1 NAD401      0.0000 
     26 O2N         4.2710  -16.6210   18.7440 O.co2     1 NAD401      0.0000 
     27 O5D         2.4480  -15.1380   17.9320 O.3       1 NAD401      0.0000 
     28 C5D         1.5240  -14.0650   17.9370 C.3       1 NAD401      0.0000 
     29 C4D         0.7530  -14.1410   16.6030 C.3       1 NAD401      0.0000 
     30 O4D         0.0270  -15.3720   16.5830 O.3       1 NAD401      0.0000 
     31 C3D        -0.2630  -13.0170   16.3590 C.3       1 NAD401      0.0000 
     32 O3D         0.0960  -12.3210   15.1590 O.3       1 NAD401      0.0000 
     33 C2D        -1.6060  -13.7180   16.2410 C.3       1 NAD401      0.0000 
     34 O2D        -2.4240  -13.1970   15.1900 O.3       1 NAD401      0.0000 
     35 C1D        -1.2250  -15.1690   15.9550 C.3       1 NAD401      0.0000 
     36 N1N        -2.2240  -16.1430   16.4070 N.pl3     1 NAD401      0.0000 
     37 C2N        -2.8250  -16.9150   15.4760 C.ar      1 NAD401      0.0000 
     38 C3N        -3.8010  -17.8650   15.7930 C.ar      1 NAD401      0.0000 
     39 C7N        -4.4090  -18.7350   14.7050 C.2       1 NAD401      0.0000 
     40 O7N        -5.4630  -19.3050   14.9640 O.2       1 NAD401      0.0000 
     41 N7N        -3.8050  -18.9100   13.5000 N.am      1 NAD401      0.0000 
     42 C4N        -4.1550  -17.9930   17.1410 C.ar      1 NAD401      0.0000 
     43 C5N        -3.5300  -17.1730   18.1010 C.ar      1 NAD401      0.0000 
     44 C6N        -2.5700  -16.2470   17.7030 C.ar      1 NAD401      0.0000 
@<TRIPOS>BOND
     1    1    2 ar   
     2    1    3 ar   
     3    1    4 1    
     4    1   23 1    
     5    4    5 1    
     6    5    6 1    
     7    6    7 1    
     8    6    8 1    
     9    7   12 1    
    10    8    9 1    
    11    8   10 1    
    12   10   11 1    
    13   10   12 1    
    14   12   13 1    
    15   13   14 1    
    16   13   22 1    
    17   14   15 2    
    18   15   16 1    
    19   16   17 ar   
    20   16   22 ar   
    21   17   18 1    
    22   17   19 ar   
    23   19   20 ar   
    24   20   21 ar   
    25   21   22 ar   
    26   23   24 1    
    27   24   25 ar   
    28   24   26 ar   
    29   24   27 1    
    30   27   28 1    
    31   28   29 1    
    32   29   30 1    
    33   29   31 1    
    34   30   35 1    
    35   31   32 1    
    36   31   33 1    
    37   33   34 1    
    38   33   35 1    
    39   35   36 1    
    40   36   37 ar   
    41   36   44 ar   
    42   37   38 ar   
    43   38   39 1    
    44   38   42 ar   
    45   39   40 2    
    46   39   41 am   
    47   42   43 ar   
    48   43   44 ar   
@<TRIPOS>SUBSTRUCTURE
     1 NAD401      1 GROUP   
@<TRIPOS>SET
ATOM$ORANGE STATIC     ATOMS   COLORGROUP SYSTEM 
42 5 5 6 6 8 8 10 10 12 12 14 14 16 16 17 17 20 \
20 22 22 28 28 29 29 31 31 33 33 35 35 37 37 38 38 39 \
39 42 42 43 43 44 44 

