#    Name: 6j39_2_FAD
#    Modification time : Fri May 22 19:35:03 2020

@<TRIPOS>MOLECULE
6j39_2_FAD
   53    58     1     0     1
SMALL
NO_CHARGES


@<TRIPOS>ATOM
      1 PA          4.7250    0.6510  -14.6280 P.3       1 FAD501      0.0000 
      2 O1A         3.4870    1.3040  -15.2020 O.co2     1 FAD501      0.0000 
      3 O2A         5.4450   -0.3260  -15.5230 O.co2     1 FAD501      0.0000 
      4 O5B         5.7440    1.7690  -14.1550 O.3       1 FAD501      0.0000 
      5 C5B         7.0980    1.4150  -13.9340 C.3       1 FAD501      0.0000 
      6 C4B         7.7520    2.7840  -14.0180 C.3       1 FAD501      0.0000 
      7 O4B         9.0870    2.6900  -13.5480 O.3       1 FAD501      0.0000 
      8 C3B         7.8070    3.2610  -15.4630 C.3       1 FAD501      0.0000 
      9 O3B         6.9730    4.4090  -15.6900 O.3       1 FAD501      0.0000 
     10 C2B         9.2960    3.4670  -15.7190 C.3       1 FAD501      0.0000 
     11 O2B         9.6150    4.6870  -16.3660 O.3       1 FAD501      0.0000 
     12 C1B         9.8610    3.5520  -14.3380 C.3       1 FAD501      0.0000 
     13 N9A        11.3000    3.2290  -14.2770 N.pl3     1 FAD501      0.0000 
     14 C8A        11.9230    2.1480  -14.7470 C.2       1 FAD501      0.0000 
     15 N7A        13.2600    2.2210  -14.4870 N.2       1 FAD501      0.0000 
     16 C5A        13.4770    3.3590  -13.8320 C.ar      1 FAD501      0.0000 
     17 C6A        14.6420    4.0380  -13.2740 C.ar      1 FAD501      0.0000 
     18 N6A        15.8690    3.4750  -13.3790 N.pl3     1 FAD501      0.0000 
     19 N1A        14.4480    5.2350  -12.6770 N.ar      1 FAD501      0.0000 
     20 C2A        13.2320    5.7930  -12.5750 C.ar      1 FAD501      0.0000 
     21 N3A        12.1150    5.2270  -13.0630 N.ar      1 FAD501      0.0000 
     22 C4A        12.1870    4.0300  -13.6990 C.ar      1 FAD501      0.0000 
     23 N1         -4.4670   -3.8280  -14.3900 N.2       1 FAD501      0.0000 
     24 C2         -5.7530   -3.7310  -14.0450 C.2       1 FAD501      0.0000 
     25 O2         -5.9800   -3.5110  -12.8410 O.2       1 FAD501      0.0000 
     26 N3         -6.7650   -3.8290  -14.9320 N.am      1 FAD501      0.0000 
     27 C4         -6.5410   -4.0840  -16.2310 C.2       1 FAD501      0.0000 
     28 O4         -7.4990   -4.2150  -17.0470 O.2       1 FAD501      0.0000 
     29 C4X        -5.1310   -4.2080  -16.6450 C.2       1 FAD501      0.0000 
     30 N5         -4.8050   -4.4520  -17.9040 N.2       1 FAD501      0.0000 
     31 C5X        -3.5050   -4.5490  -18.2720 C.ar      1 FAD501      0.0000 
     32 C6         -3.2600   -4.8000  -19.5970 C.ar      1 FAD501      0.0000 
     33 C7         -1.9900   -4.9360  -20.1000 C.ar      1 FAD501      0.0000 
     34 C7M        -1.8320   -5.2000  -21.5830 C.3       1 FAD501      0.0000 
     35 C8         -0.8520   -4.7920  -19.1730 C.ar      1 FAD501      0.0000 
     36 C8M         0.5230   -4.9260  -19.7310 C.3       1 FAD501      0.0000 
     37 C9         -1.0690   -4.5380  -17.8170 C.ar      1 FAD501      0.0000 
     38 C9A        -2.3710   -4.4080  -17.3230 C.ar      1 FAD501      0.0000 
     39 N10        -2.6980   -4.1330  -15.9740 N.pl3     1 FAD501      0.0000 
     40 C10        -4.0800   -4.0530  -15.6420 C.2       1 FAD501      0.0000 
     41 C1'        -1.6910   -4.0090  -14.9250 C.3       1 FAD501      0.0000 
     42 C2'        -1.1200   -2.6200  -14.5990 C.3       1 FAD501      0.0000 
     43 O2'        -0.8910   -1.7320  -15.6930 O.3       1 FAD501      0.0000 
     44 C3'         0.2480   -2.8110  -13.9100 C.3       1 FAD501      0.0000 
     45 O3'         0.0640   -3.6890  -12.7890 O.3       1 FAD501      0.0000 
     46 C4'         0.8160   -1.4640  -13.4700 C.3       1 FAD501      0.0000 
     47 O4'         1.6640   -0.9110  -14.4570 O.3       1 FAD501      0.0000 
     48 C5'         1.6750   -1.4700  -12.2640 C.3       1 FAD501      0.0000 
     49 O5'         2.1770   -0.1350  -12.1810 O.3       1 FAD501      0.0000 
     50 P           3.8000    0.0820  -11.9970 P.3       1 FAD501      0.0000 
     51 O1P         3.8920    1.5630  -11.7640 O.co2     1 FAD501      0.0000 
     52 O2P         4.3180   -0.9770  -11.0670 O.co2     1 FAD501      0.0000 
     53 O3P         4.4820   -0.3180  -13.3640 O.3       1 FAD501      0.0000 
@<TRIPOS>BOND
     1    1    2 ar   
     2    1    3 ar   
     3    1    4 1    
     4    1   53 1    
     5    4    5 1    
     6    5    6 1    
     7    6    7 1    
     8    6    8 1    
     9    7   12 1    
    10    8    9 1    
    11    8   10 1    
    12   10   11 1    
    13   10   12 1    
    14   12   13 1    
    15   13   14 1    
    16   13   22 1    
    17   14   15 2    
    18   15   16 1    
    19   16   17 ar   
    20   16   22 ar   
    21   17   18 1    
    22   17   19 ar   
    23   19   20 ar   
    24   20   21 ar   
    25   21   22 ar   
    26   23   24 1    
    27   23   40 2    
    28   24   25 2    
    29   24   26 am   
    30   26   27 am   
    31   27   28 2    
    32   27   29 1    
    33   29   30 2    
    34   29   40 1    
    35   30   31 1    
    36   31   32 ar   
    37   31   38 ar   
    38   32   33 ar   
    39   33   34 1    
    40   33   35 ar   
    41   35   36 1    
    42   35   37 ar   
    43   37   38 ar   
    44   38   39 1    
    45   39   40 1    
    46   39   41 1    
    47   41   42 1    
    48   42   43 1    
    49   42   44 1    
    50   44   45 1    
    51   44   46 1    
    52   46   47 1    
    53   46   48 1    
    54   48   49 1    
    55   49   50 1    
    56   50   51 ar   
    57   50   52 ar   
    58   50   53 1    
@<TRIPOS>SUBSTRUCTURE
     1 FAD501      1 GROUP   
@<TRIPOS>SET
ATOM$ORANGE STATIC     ATOMS   COLORGROUP SYSTEM 
54 5 5 6 6 8 8 10 10 12 12 14 14 16 16 17 17 20 \
20 22 22 24 24 27 27 29 29 31 31 32 32 33 33 34 34 35 \
35 36 36 37 37 38 38 40 40 41 41 42 42 44 44 46 46 48 \
48 

