#    Name: 6j39_1_FAD
#    Modification time : Fri May 22 19:34:58 2020

@<TRIPOS>MOLECULE
6j39_1_FAD
   53    58     1     0     1
SMALL
NO_CHARGES


@<TRIPOS>ATOM
      1 PA        -14.1810    6.4960   31.8710 P.3       1 FAD501      0.0000 
      2 O1A       -12.7230    6.3600   32.3490 O.co2     1 FAD501      0.0000 
      3 O2A       -15.1980    6.3260   32.9130 O.co2     1 FAD501      0.0000 
      4 O5B       -14.3550    7.8760   31.0950 O.3       1 FAD501      0.0000 
      5 C5B       -15.1300    8.9430   31.5790 C.3       1 FAD501      0.0000 
      6 C4B       -14.2640   10.1600   31.7900 C.3       1 FAD501      0.0000 
      7 O4B       -14.9990   11.2390   31.2380 O.3       1 FAD501      0.0000 
      8 C3B       -13.9610   10.5070   33.2520 C.3       1 FAD501      0.0000 
      9 O3B       -12.5460   10.6910   33.4330 O.3       1 FAD501      0.0000 
     10 C2B       -14.7260   11.7920   33.4980 C.3       1 FAD501      0.0000 
     11 O2B       -14.0660   12.7430   34.3320 O.3       1 FAD501      0.0000 
     12 C1B       -14.8470   12.3600   32.1060 C.3       1 FAD501      0.0000 
     13 N9A       -15.9940   13.2530   31.9430 N.pl3     1 FAD501      0.0000 
     14 C8A       -17.2580   12.9730   32.2840 C.2       1 FAD501      0.0000 
     15 N7A       -18.0430   14.0110   31.9700 N.2       1 FAD501      0.0000 
     16 C5A       -17.2970   14.9460   31.4200 C.ar      1 FAD501      0.0000 
     17 C6A       -17.5650   16.2570   30.9110 C.ar      1 FAD501      0.0000 
     18 N6A       -18.8370   16.7190   30.9330 N.pl3     1 FAD501      0.0000 
     19 N1A       -16.5410   16.9490   30.4210 N.ar      1 FAD501      0.0000 
     20 C2A       -15.2840   16.4710   30.4010 C.ar      1 FAD501      0.0000 
     21 N3A       -14.9530   15.2640   30.8690 N.ar      1 FAD501      0.0000 
     22 C4A       -15.9310   14.4680   31.3870 C.ar      1 FAD501      0.0000 
     23 N1        -11.6560   -3.2900   30.9610 N.2       1 FAD501      0.0000 
     24 C2        -10.8130   -4.1450   30.4560 C.2       1 FAD501      0.0000 
     25 O2        -10.5410   -3.9250   29.2600 O.2       1 FAD501      0.0000 
     26 N3        -10.2620   -5.1300   31.2080 N.am      1 FAD501      0.0000 
     27 C4        -10.5670   -5.3240   32.5100 C.2       1 FAD501      0.0000 
     28 O4        -10.0750   -6.2450   33.1810 O.2       1 FAD501      0.0000 
     29 C4X       -11.5560   -4.4250   33.1230 C.2       1 FAD501      0.0000 
     30 N5        -11.9790   -4.5100   34.4010 N.2       1 FAD501      0.0000 
     31 C5X       -12.8930   -3.6070   34.8290 C.ar      1 FAD501      0.0000 
     32 C6        -13.3030   -3.6650   36.1430 C.ar      1 FAD501      0.0000 
     33 C7        -14.2330   -2.7750   36.6360 C.ar      1 FAD501      0.0000 
     34 C7M       -14.6560   -2.9080   38.0650 C.3       1 FAD501      0.0000 
     35 C8        -14.8000   -1.7430   35.7500 C.ar      1 FAD501      0.0000 
     36 C8M       -15.8180   -0.7490   36.2230 C.3       1 FAD501      0.0000 
     37 C9        -14.3500   -1.6520   34.4420 C.ar      1 FAD501      0.0000 
     38 C9A       -13.4380   -2.5520   33.9400 C.ar      1 FAD501      0.0000 
     39 N10       -12.9870   -2.4650   32.6250 N.pl3     1 FAD501      0.0000 
     40 C10       -12.0860   -3.4050   32.2100 C.2       1 FAD501      0.0000 
     41 C1'       -13.4630   -1.5930   31.5580 C.3       1 FAD501      0.0000 
     42 C2'       -12.7770   -0.3340   31.2950 C.3       1 FAD501      0.0000 
     43 O2'       -12.5340    0.1170   32.5850 O.3       1 FAD501      0.0000 
     44 C3'       -13.7760    0.6050   30.6500 C.3       1 FAD501      0.0000 
     45 O3'       -14.4140   -0.0320   29.5350 O.3       1 FAD501      0.0000 
     46 C4'       -13.0320    1.8840   30.3170 C.3       1 FAD501      0.0000 
     47 O4'       -12.5990    2.4330   31.5690 O.3       1 FAD501      0.0000 
     48 C5'       -13.8990    2.9190   29.6340 C.3       1 FAD501      0.0000 
     49 O5'       -13.1110    4.0690   29.3590 O.3       1 FAD501      0.0000 
     50 P         -13.7770    5.5030   29.1640 P.3       1 FAD501      0.0000 
     51 O1P       -12.5380    6.3370   29.0210 O.co2     1 FAD501      0.0000 
     52 O2P       -14.7960    5.4020   28.0690 O.co2     1 FAD501      0.0000 
     53 O3P       -14.4940    5.5720   30.6000 O.3       1 FAD501      0.0000 
@<TRIPOS>BOND
     1    1    2 ar   
     2    1    3 ar   
     3    1    4 1    
     4    1   53 1    
     5    4    5 1    
     6    5    6 1    
     7    6    7 1    
     8    6    8 1    
     9    7   12 1    
    10    8    9 1    
    11    8   10 1    
    12   10   11 1    
    13   10   12 1    
    14   12   13 1    
    15   13   14 1    
    16   13   22 1    
    17   14   15 2    
    18   15   16 1    
    19   16   17 ar   
    20   16   22 ar   
    21   17   18 1    
    22   17   19 ar   
    23   19   20 ar   
    24   20   21 ar   
    25   21   22 ar   
    26   23   24 1    
    27   23   40 2    
    28   24   25 2    
    29   24   26 am   
    30   26   27 am   
    31   27   28 2    
    32   27   29 1    
    33   29   30 2    
    34   29   40 1    
    35   30   31 1    
    36   31   32 ar   
    37   31   38 ar   
    38   32   33 ar   
    39   33   34 1    
    40   33   35 ar   
    41   35   36 1    
    42   35   37 ar   
    43   37   38 ar   
    44   38   39 1    
    45   39   40 1    
    46   39   41 1    
    47   41   42 1    
    48   42   43 1    
    49   42   44 1    
    50   44   45 1    
    51   44   46 1    
    52   46   47 1    
    53   46   48 1    
    54   48   49 1    
    55   49   50 1    
    56   50   51 ar   
    57   50   52 ar   
    58   50   53 1    
@<TRIPOS>SUBSTRUCTURE
     1 FAD501      1 GROUP   
@<TRIPOS>SET
ATOM$ORANGE STATIC     ATOMS   COLORGROUP SYSTEM 
54 5 5 6 6 8 8 10 10 12 12 14 14 16 16 17 17 20 \
20 22 22 24 24 27 27 29 29 31 31 32 32 33 33 34 34 35 \
35 36 36 37 37 38 38 40 40 41 41 42 42 44 44 46 46 48 \
48 

