#    Name: 6nbb_2_NAD
#    Modification time : Fri May 22 19:40:31 2020

@<TRIPOS>MOLECULE
6nbb_2_NAD
   44    48     1     0     1
SMALL
NO_CHARGES


@<TRIPOS>ATOM
      1 PA        133.7690  122.1460  136.9040 P.3       1 NAD401      0.0000 
      2 O1A       134.0170  122.0100  135.4250 O.co2     1 NAD401      0.0000 
      3 O2A       132.8230  121.0650  137.3570 O.co2     1 NAD401      0.0000 
      4 O5B       133.0940  123.6220  137.1830 O.3       1 NAD401      0.0000 
      5 C5B       132.9590  124.4700  136.0790 C.3       1 NAD401      0.0000 
      6 C4B       131.5660  125.0670  136.0070 C.3       1 NAD401      0.0000 
      7 O4B       131.6040  126.3900  135.0820 O.3       1 NAD401      0.0000 
      8 C3B       130.7520  124.2280  135.4320 C.3       1 NAD401      0.0000 
      9 O3B       129.6330  123.9100  136.3660 O.3       1 NAD401      0.0000 
     10 C2B       130.1810  124.9350  134.1920 C.3       1 NAD401      0.0000 
     11 O2B       128.8420  124.7460  134.1590 O.3       1 NAD401      0.0000 
     12 C1B       130.4730  126.4150  134.4420 C.3       1 NAD401      0.0000 
     13 N9A       130.5880  127.1840  133.1840 N.pl3     1 NAD401      0.0000 
     14 C8A       131.1750  127.0960  131.9970 C.2       1 NAD401      0.0000 
     15 N7A       130.8470  128.2020  131.3260 N.2       1 NAD401      0.0000 
     16 C5A       130.0640  128.9550  132.1050 C.ar      1 NAD401      0.0000 
     17 C6A       129.4630  130.1730  131.9100 C.ar      1 NAD401      0.0000 
     18 N6A       129.3800  131.1430  130.8420 N.pl3     1 NAD401      0.0000 
     19 N1A       128.7170  130.7150  132.8560 N.ar      1 NAD401      0.0000 
     20 C2A       128.5500  130.0730  134.0310 C.ar      1 NAD401      0.0000 
     21 N3A       129.1500  128.8790  134.2300 N.ar      1 NAD401      0.0000 
     22 C4A       129.8980  128.3240  133.2640 C.ar      1 NAD401      0.0000 
     23 O3        135.1940  121.9640  137.6990 O.3       1 NAD401      0.0000 
     24 PN        135.6840  122.7380  139.0620 P.3       1 NAD401      0.0000 
     25 O1N       136.2720  121.7110  139.9900 O.co2     1 NAD401      0.0000 
     26 O2N       134.5320  123.4360  139.7250 O.co2     1 NAD401      0.0000 
     27 O5D       136.8330  123.8550  138.7070 O.3       1 NAD401      0.0000 
     28 C5D       136.8910  124.3620  137.4120 C.3       1 NAD401      0.0000 
     29 C4D       138.0990  125.2620  137.3430 C.3       1 NAD401      0.0000 
     30 O4D       138.7070  125.3880  138.8290 O.3       1 NAD401      0.0000 
     31 C3D       139.0120  124.7140  136.5990 C.3       1 NAD401      0.0000 
     32 O3D       139.6690  125.7410  135.7430 O.3       1 NAD401      0.0000 
     33 C2D       140.0290  124.1480  137.5880 C.3       1 NAD401      0.0000 
     34 O2D       141.2550  124.0820  137.0220 O.3       1 NAD401      0.0000 
     35 C1D       139.9790  125.2640  138.6290 C.3       1 NAD401      0.0000 
     36 N1N       140.6960  124.8990  139.8550 N.pl3     1 NAD401      0.0000 
     37 C2N       141.5400  125.7960  140.3940 C.ar      1 NAD401      0.0000 
     38 C3N       142.2220  125.4680  141.5390 C.ar      1 NAD401      0.0000 
     39 C7N       143.1650  126.4950  142.1320 C.2       1 NAD401      0.0000 
     40 O7N       144.0140  126.1560  142.8750 O.2       1 NAD401      0.0000 
     41 N7N       143.0100  127.8950  141.7920 N.am      1 NAD401      0.0000 
     42 C4N       142.0490  124.2580  142.1140 C.ar      1 NAD401      0.0000 
     43 C5N       141.1970  123.3610  141.5730 C.ar      1 NAD401      0.0000 
     44 C6N       140.5130  123.6910  140.4200 C.ar      1 NAD401      0.0000 
@<TRIPOS>BOND
     1    1    2 ar   
     2    1    3 ar   
     3    1    4 1    
     4    1   23 1    
     5    4    5 1    
     6    5    6 1    
     7    6    7 1    
     8    6    8 1    
     9    7   12 1    
    10    8    9 1    
    11    8   10 1    
    12   10   11 1    
    13   10   12 1    
    14   12   13 1    
    15   13   14 1    
    16   13   22 1    
    17   14   15 2    
    18   15   16 1    
    19   16   17 ar   
    20   16   22 ar   
    21   17   18 1    
    22   17   19 ar   
    23   19   20 ar   
    24   20   21 ar   
    25   21   22 ar   
    26   23   24 1    
    27   24   25 ar   
    28   24   26 ar   
    29   24   27 1    
    30   27   28 1    
    31   28   29 1    
    32   29   30 1    
    33   29   31 1    
    34   30   35 1    
    35   31   32 1    
    36   31   33 1    
    37   33   34 1    
    38   33   35 1    
    39   35   36 1    
    40   36   37 ar   
    41   36   44 ar   
    42   37   38 ar   
    43   38   39 1    
    44   38   42 ar   
    45   39   40 2    
    46   39   41 am   
    47   42   43 ar   
    48   43   44 ar   
@<TRIPOS>SUBSTRUCTURE
     1 NAD401      1 GROUP   
@<TRIPOS>SET
ATOM$ORANGE STATIC     ATOMS   COLORGROUP SYSTEM 
42 5 5 6 6 8 8 10 10 12 12 14 14 16 16 17 17 20 \
20 22 22 28 28 29 29 31 31 33 33 35 35 37 37 38 38 39 \
39 42 42 43 43 44 44 

