#    Name: 6nbb_1_NAD
#    Modification time : Fri May 22 19:40:27 2020

@<TRIPOS>MOLECULE
6nbb_1_NAD
   44    48     1     0     1
SMALL
NO_CHARGES


@<TRIPOS>ATOM
      1 PA        152.2010  163.5260  136.7020 P.3       1 NAD401      0.0000 
      2 O1A       153.0980  164.6410  136.2380 O.co2     1 NAD401      0.0000 
      3 O2A       151.4240  162.9860  135.5330 O.co2     1 NAD401      0.0000 
      4 O5B       153.1410  162.2910  137.2500 O.3       1 NAD401      0.0000 
      5 C5B       153.2040  161.1840  136.3960 C.3       1 NAD401      0.0000 
      6 C4B       154.6290  160.7940  136.0540 C.3       1 NAD401      0.0000 
      7 O4B       154.5750  159.4800  135.1230 O.3       1 NAD401      0.0000 
      8 C3B       155.2200  161.7170  135.3510 C.3       1 NAD401      0.0000 
      9 O3B       156.3480  162.2820  136.1460 O.3       1 NAD401      0.0000 
     10 C2B       155.8030  161.0290  134.1040 C.3       1 NAD401      0.0000 
     11 O2B       157.1230  161.3170  134.0220 O.3       1 NAD401      0.0000 
     12 C1B       155.6310  159.5320  134.3730 C.3       1 NAD401      0.0000 
     13 N9A       155.4440  158.7490  133.1340 N.pl3     1 NAD401      0.0000 
     14 C8A       154.8220  158.8290  131.9640 C.2       1 NAD401      0.0000 
     15 N7A       155.1020  157.7010  131.3080 N.2       1 NAD401      0.0000 
     16 C5A       155.8910  156.9440  132.0800 C.ar      1 NAD401      0.0000 
     17 C6A       156.4580  155.7080  131.8970 C.ar      1 NAD401      0.0000 
     18 N6A       156.4850  154.7100  130.8530 N.pl3     1 NAD401      0.0000 
     19 N1A       157.2190  155.1710  132.8340 N.ar      1 NAD401      0.0000 
     20 C2A       157.4370  155.8350  133.9880 C.ar      1 NAD401      0.0000 
     21 N3A       156.8730  157.0480  134.1740 N.ar      1 NAD401      0.0000 
     22 C4A       156.1090  157.5960  133.2170 C.ar      1 NAD401      0.0000 
     23 O3        151.1730  164.1270  137.8410 O.3       1 NAD401      0.0000 
     24 PN        150.3610  163.2700  138.9890 P.3       1 NAD401      0.0000 
     25 O1N       149.9350  164.2090  140.0840 O.co2     1 NAD401      0.0000 
     26 O2N       151.2350  162.1840  139.5540 O.co2     1 NAD401      0.0000 
     27 O5D       148.9960  162.5960  138.3810 O.3       1 NAD401      0.0000 
     28 C5D       149.1140  161.5860  137.4290 C.3       1 NAD401      0.0000 
     29 C4D       147.8270  160.7970  137.3830 C.3       1 NAD401      0.0000 
     30 O4D       147.2430  160.6530  138.8760 O.3       1 NAD401      0.0000 
     31 C3D       146.9500  161.4570  136.6850 C.3       1 NAD401      0.0000 
     32 O3D       146.3830  160.5850  135.6190 O.3       1 NAD401      0.0000 
     33 C2D       145.8420  161.8400  137.6660 C.3       1 NAD401      0.0000 
     34 O2D       144.6390  161.8060  137.0520 O.3       1 NAD401      0.0000 
     35 C1D       145.9640  160.7080  138.6850 C.3       1 NAD401      0.0000 
     36 N1N       145.2400  161.0520  139.9130 N.pl3     1 NAD401      0.0000 
     37 C2N       144.3960  160.1480  140.4380 C.ar      1 NAD401      0.0000 
     38 C3N       143.7090  160.4670  141.5830 C.ar      1 NAD401      0.0000 
     39 C7N       142.7690  159.4310  142.1620 C.2       1 NAD401      0.0000 
     40 O7N       141.9220  159.7580  142.9110 O.2       1 NAD401      0.0000 
     41 N7N       142.9280  158.0370  141.7970 N.am      1 NAD401      0.0000 
     42 C4N       143.8750  161.6720  142.1690 C.ar      1 NAD401      0.0000 
     43 C5N       144.7260  162.5770  141.6400 C.ar      1 NAD401      0.0000 
     44 C6N       145.4140  162.2580  140.4890 C.ar      1 NAD401      0.0000 
@<TRIPOS>BOND
     1    1    2 ar   
     2    1    3 ar   
     3    1    4 1    
     4    1   23 1    
     5    4    5 1    
     6    5    6 1    
     7    6    7 1    
     8    6    8 1    
     9    7   12 1    
    10    8    9 1    
    11    8   10 1    
    12   10   11 1    
    13   10   12 1    
    14   12   13 1    
    15   13   14 1    
    16   13   22 1    
    17   14   15 2    
    18   15   16 1    
    19   16   17 ar   
    20   16   22 ar   
    21   17   18 1    
    22   17   19 ar   
    23   19   20 ar   
    24   20   21 ar   
    25   21   22 ar   
    26   23   24 1    
    27   24   25 ar   
    28   24   26 ar   
    29   24   27 1    
    30   27   28 1    
    31   28   29 1    
    32   29   30 1    
    33   29   31 1    
    34   30   35 1    
    35   31   32 1    
    36   31   33 1    
    37   33   34 1    
    38   33   35 1    
    39   35   36 1    
    40   36   37 ar   
    41   36   44 ar   
    42   37   38 ar   
    43   38   39 1    
    44   38   42 ar   
    45   39   40 2    
    46   39   41 am   
    47   42   43 ar   
    48   43   44 ar   
@<TRIPOS>SUBSTRUCTURE
     1 NAD401      1 GROUP   
@<TRIPOS>SET
ATOM$ORANGE STATIC     ATOMS   COLORGROUP SYSTEM 
42 5 5 6 6 8 8 10 10 12 12 14 14 16 16 17 17 20 \
20 22 22 28 28 29 29 31 31 33 33 35 35 37 37 38 38 39 \
39 42 42 43 43 44 44 

