#    Name: 6agk_4_GTP_CAVITY_N1_6
#    Modification time : Fri May 22 19:34:20 2020

@<TRIPOS>MOLECULE
6agk_4_GTP_CAVITY_N1_6
  112     0     6     0     0
SMALL
NO_CHARGES


@<TRIPOS>ATOM
      1 OG        -26.6500   10.5000  -44.4000 O.3       1 SER1        0.0000 
      2 OG        -27.6500   12.1900  -45.2100 O.3       1 SER1        0.0000 
      3 OG        -26.2200   11.7400  -45.1200 O.3       1 SER1        0.0000 
      4 OG        -23.5200   11.0300  -41.5800 O.3       1 SER1        0.0000 
      5 OG        -22.0900   10.5800  -41.4900 O.3       1 SER1        0.0000 
      6 OG        -21.6600   11.8200  -42.2100 O.3       1 SER1        0.0000 
      7 OG        -19.3600   13.8600  -43.5500 O.3       1 SER1        0.0000 
      8 OG        -21.5200   12.5300  -40.9000 O.3       1 SER1        0.0000 
      9 OG        -19.2200   14.5700  -42.2400 O.3       1 SER1        0.0000 
     10 OG        -20.2100   16.2600  -43.0600 O.3       1 SER1        0.0000 
     11 OG        -21.2000   17.9500  -43.8700 O.3       1 SER1        0.0000 
     12 OG        -21.3800   13.2500  -39.5800 O.3       1 SER1        0.0000 
     13 OG        -20.5100   15.7300  -41.0200 O.3       1 SER1        0.0000 
     14 OG        -19.0800   15.2800  -40.9300 O.3       1 SER1        0.0000 
     15 OG        -21.5000   17.4200  -41.8400 O.3       1 SER1        0.0000 
     16 N         -24.4900   11.8200  -47.0500 N.am      2 ALA2        0.0000 
     17 O         -28.3400   14.4100  -48.0600 O.2       2 ALA2        0.0000 
     18 O         -25.2300   10.0500  -44.3000 O.2       2 ALA2        0.0000 
     19 O         -27.2100   13.4300  -45.9300 O.2       2 ALA2        0.0000 
     20 N         -25.7800   12.9800  -45.8400 N.am      2 ALA2        0.0000 
     21 N         -24.3500   12.5300  -45.7400 N.am      2 ALA2        0.0000 
     22 N         -25.3400   14.2200  -46.5600 N.am      2 ALA2        0.0000 
     23 N         -23.9100   13.7700  -46.4600 N.am      2 ALA2        0.0000 
     24 O         -26.5200   11.2100  -43.0800 O.2       2 ALA2        0.0000 
     25 O         -25.0900   10.7600  -42.9900 O.2       2 ALA2        0.0000 
     26 O         -23.6600   10.3200  -42.8900 O.2       2 ALA2        0.0000 
     27 O         -27.5100   12.9000  -43.9000 O.2       2 ALA2        0.0000 
     28 N         -26.0800   12.4500  -43.8000 N.am      2 ALA2        0.0000 
     29 O         -18.9400   10.2100  -43.3300 O.2       2 ALA2        0.0000 
     30 N         -16.0800    9.3100  -43.1400 N.am      2 ALA2        0.0000 
     31 O         -27.0700   14.1400  -44.6200 O.2       2 ALA2        0.0000 
     32 N         -25.6400   13.7000  -44.5200 N.am      2 ALA2        0.0000 
     33 N         -24.2100   13.2500  -44.4300 N.am      2 ALA2        0.0000 
     34 N         -22.7900   12.8000  -44.3300 N.am      2 ALA2        0.0000 
     35 N         -21.3600   12.3500  -44.2400 N.am      2 ALA2        0.0000 
     36 O         -19.9300   11.9000  -44.1500 O.2       2 ALA2        0.0000 
     37 O         -17.0700   11.0000  -43.9600 O.2       2 ALA2        0.0000 
     38 N         -23.7800   14.4900  -45.1500 N.am      2 ALA2        0.0000 
     39 N         -22.3500   14.0400  -45.0500 N.am      2 ALA2        0.0000 
     40 N         -19.4900   13.1400  -44.8700 N.am      2 ALA2        0.0000 
     41 N         -16.3800    8.7900  -41.1100 N.am      2 ALA2        0.0000 
     42 O         -25.9400   13.1700  -42.4900 O.2       2 ALA2        0.0000 
     43 N         -14.5200    9.5800  -41.7400 N.am      2 ALA2        0.0000 
     44 N         -24.0800   13.9600  -43.1200 N.am      2 ALA2        0.0000 
     45 N         -22.6500   13.5100  -43.0200 N.am      2 ALA2        0.0000 
     46 N         -21.2200   13.0600  -42.9300 N.am      2 ALA2        0.0000 
     47 N         -22.2100   14.7500  -43.7400 N.am      2 ALA2        0.0000 
     48 N         -20.7800   14.3000  -43.6500 N.am      2 ALA2        0.0000 
     49 N         -23.2000   16.4400  -44.5600 N.am      2 ALA2        0.0000 
     50 N         -16.2400    9.5000  -39.8000 N.am      2 ALA2        0.0000 
     51 N         -14.8200    9.0500  -39.7000 N.am      2 ALA2        0.0000 
     52 N         -17.2400   11.1900  -40.6100 N.am      2 ALA2        0.0000 
     53 N         -14.3800   10.2900  -40.4200 N.am      2 ALA2        0.0000 
     54 O         -22.0700   15.4700  -42.4300 O.2       2 ALA2        0.0000 
     55 O         -21.6400   16.7100  -43.1500 O.2       2 ALA2        0.0000 
     56 N         -18.9600   11.1100  -38.6700 N.am      2 ALA2        0.0000 
     57 N         -14.6800    9.7600  -38.3900 N.am      2 ALA2        0.0000 
     58 O         -18.5300   12.3500  -39.3900 O.2       2 ALA2        0.0000 
     59 O         -17.1000   11.9000  -39.3000 O.2       2 ALA2        0.0000 
     60 N         -15.6700   11.4500  -39.2100 N.am      2 ALA2        0.0000 
     61 O         -22.3700   14.9400  -40.4000 O.2       2 ALA2        0.0000 
     62 O         -21.9400   16.1800  -41.1200 O.2       2 ALA2        0.0000 
     63 O         -19.8200   13.5100  -38.1800 O.2       2 ALA2        0.0000 
     64 O         -17.9500   14.3100  -38.8000 O.2       2 ALA2        0.0000 
     65 NZ        -27.7800   11.4800  -46.5200 N.4       3 LYS4        0.0000 
     66 NZ        -26.3500   11.0300  -46.4300 N.4       3 LYS4        0.0000 
     67 NZ        -27.3500   12.7200  -47.2400 N.4       3 LYS4        0.0000 
     68 NZ        -25.9200   12.2700  -47.1500 N.4       3 LYS4        0.0000 
     69 NZ        -26.9100   13.9600  -47.9600 N.4       3 LYS4        0.0000 
     70 NZ        -25.4800   13.5100  -47.8700 N.4       3 LYS4        0.0000 
     71 NZ        -20.9500   14.4900  -40.3000 N.4       3 LYS4        0.0000 
     72 NZ        -21.2500   13.9600  -38.2700 N.4       3 LYS4        0.0000 
     73 NZ        -19.3800   14.7500  -38.9000 N.4       3 LYS4        0.0000 
     74 NZ        -19.2400   15.4700  -37.5800 N.4       3 LYS4        0.0000 
     75 CZ        -15.6400   10.5600  -43.8600 C.ar      4 PHE5        0.0000 
     76 CZ        -15.9400   10.0300  -41.8300 C.ar      4 PHE5        0.0000 
     77 CZ        -18.3600   12.1700  -42.7400 C.ar      4 PHE5        0.0000 
     78 CZ        -16.9400   11.7200  -42.6500 C.ar      4 PHE5        0.0000 
     79 CZ        -15.8100   10.7400  -40.5200 C.ar      4 PHE5        0.0000 
     80 CZ        -18.2300   12.8800  -41.4300 C.ar      4 PHE5        0.0000 
     81 CZ        -18.0900   13.5900  -40.1100 C.ar      4 PHE5        0.0000 
     82 CZ        -16.6600   13.1400  -40.0200 C.ar      4 PHE5        0.0000 
     83 CA        -24.6300   11.1100  -48.3700 C.3       5 GLY6        0.0000 
     84 CA        -24.1900   12.3500  -49.0900 C.3       5 GLY6        0.0000 
     85 CA        -24.9300   10.5800  -46.3300 C.3       5 GLY6        0.0000 
     86 CA        -24.7900   11.2900  -45.0200 C.3       5 GLY6        0.0000 
     87 CA        -26.7700   14.6700  -46.6500 C.3       5 GLY6        0.0000 
     88 CA        -25.5300    9.5200  -42.2700 C.3       5 GLY6        0.0000 
     89 CA        -23.2200   11.5600  -43.6100 C.3       5 GLY6        0.0000 
     90 CA        -21.8000   11.1100  -43.5200 C.3       5 GLY6        0.0000 
     91 CA        -17.5100    9.7600  -43.2400 C.3       5 GLY6        0.0000 
     92 CA        -24.9500   11.4800  -41.6800 C.3       5 GLY6        0.0000 
     93 CA        -24.5100   12.7200  -42.4000 C.3       5 GLY6        0.0000 
     94 CA        -23.0900   12.2700  -42.3000 C.3       5 GLY6        0.0000 
     95 CA        -20.2300   11.3700  -42.1100 C.3       5 GLY6        0.0000 
     96 CA        -18.8000   10.9200  -42.0200 C.3       5 GLY6        0.0000 
     97 CA        -17.3700   10.4800  -41.9300 C.3       5 GLY6        0.0000 
     98 CA        -22.9500   12.9800  -40.9900 C.3       5 GLY6        0.0000 
     99 CA        -20.0900   12.0900  -40.8000 C.3       5 GLY6        0.0000 
    100 CA        -18.6600   11.6400  -40.7100 C.3       5 GLY6        0.0000 
    101 CA        -23.9400   14.6700  -41.8000 C.3       5 GLY6        0.0000 
    102 CA        -22.5100   14.2200  -41.7100 C.3       5 GLY6        0.0000 
    103 CA        -17.5400   10.6600  -38.5800 C.3       5 GLY6        0.0000 
    104 CA        -16.1100   10.2100  -38.4900 C.3       5 GLY6        0.0000 
    105 CA        -19.9500   12.8000  -39.4900 C.3       5 GLY6        0.0000 
    106 CA        -18.9400   15.9900  -39.6200 C.3       5 GLY6        0.0000 
    107 DU        -24.6500   12.0100  -43.7100 H         6 CUB7        0.0000 
    108 DU        -19.7900   12.6100  -42.8300 H         6 CUB7        0.0000 
    109 DU        -21.0800   13.7800  -41.6200 H         6 CUB7        0.0000 
    110 DU        -19.6500   13.3300  -41.5200 H         6 CUB7        0.0000 
    111 DU        -20.6500   15.0200  -42.3400 H         6 CUB7        0.0000 
    112 DU        -19.5200   14.0400  -40.2100 H         6 CUB7        0.0000 
@<TRIPOS>BOND
@<TRIPOS>SUBSTRUCTURE
     1 SER1        1 GROUP   
     2 ALA2       16 GROUP   
     3 LYS4       65 GROUP   
     4 PHE5       75 GROUP   
     5 GLY6       83 GROUP   
     6 CUB7      107 GROUP   
@<TRIPOS>SET

