#    Name: 6agk_4_GTP
#    Modification time : Fri May 22 19:34:19 2020

@<TRIPOS>MOLECULE
6agk_4_GTP
   32    34     1     0     1
SMALL
NO_CHARGES


@<TRIPOS>ATOM
      1 PG        -26.8150   12.3070  -44.5240 P.3       1 GTP501      0.0000 
      2 O1G       -27.3100   11.1010  -45.3030 O.co2     1 GTP501      0.0000 
      3 O2G       -25.4710   12.8190  -45.0150 O.co2     1 GTP501      0.0000 
      4 O3G       -27.8350   13.4120  -44.3430 O.co2     1 GTP501      0.0000 
      5 O3B       -26.6320   11.7320  -43.0110 O.3       1 GTP501      0.0000 
      6 PB        -25.3540   10.8780  -42.5150 P.3       1 GTP501      0.0000 
      7 O1B       -24.9430    9.8230  -43.5250 O.co2     1 GTP501      0.0000 
      8 O2B       -25.6080   10.4980  -41.0750 O.co2     1 GTP501      0.0000 
      9 O3A       -24.2410   12.0280  -42.5210 O.3       1 GTP501      0.0000 
     10 PA        -22.6870   11.7740  -42.2410 P.3       1 GTP501      0.0000 
     11 O1A       -21.9270   12.4880  -43.3340 O.co2     1 GTP501      0.0000 
     12 O2A       -22.4230   10.2960  -42.0530 O.co2     1 GTP501      0.0000 
     13 O5'       -22.6200   12.5750  -40.8310 O.3       1 GTP501      0.0000 
     14 C5'       -21.9920   13.8500  -40.6090 C.3       1 GTP501      0.0000 
     15 C4'       -20.8640   13.7210  -39.5830 C.3       1 GTP501      0.0000 
     16 O4'       -20.1190   12.5330  -39.8560 O.3       1 GTP501      0.0000 
     17 C3'       -19.8470   14.8550  -39.6310 C.3       1 GTP501      0.0000 
     18 O3'       -19.4920   15.2670  -38.3080 O.3       1 GTP501      0.0000 
     19 C2'       -18.6410   14.2670  -40.3440 C.3       1 GTP501      0.0000 
     20 O2'       -17.3980   14.8530  -39.9510 O.3       1 GTP501      0.0000 
     21 C1'       -18.7240   12.8190  -39.9280 C.3       1 GTP501      0.0000 
     22 N9        -18.0990   11.8750  -40.8720 N.pl3     1 GTP501      0.0000 
     23 C8        -18.4960   11.5970  -42.1280 C.2       1 GTP501      0.0000 
     24 N7        -17.6870   10.6560  -42.6830 N.2       1 GTP501      0.0000 
     25 C5        -16.7690   10.3140  -41.7620 C.2       1 GTP501      0.0000 
     26 C6        -15.6130    9.3790  -41.6740 C.2       1 GTP501      0.0000 
     27 O6        -15.3110    8.6590  -42.6550 O.2       1 GTP501      0.0000 
     28 N1        -14.9090    9.3330  -40.5200 N.am      1 GTP501      0.0000 
     29 C2        -15.2290   10.1070  -39.4560 C.2       1 GTP501      0.0000 
     30 N2        -14.4800   10.0100  -38.3290 N.pl3     1 GTP501      0.0000 
     31 N3        -16.2750   10.9840  -39.4650 N.2       1 GTP501      0.0000 
     32 C4        -17.0530   11.1240  -40.5660 C.2       1 GTP501      0.0000 
@<TRIPOS>BOND
     1    1    2 ar   
     2    1    3 ar   
     3    1    4 ar   
     4    1    5 1    
     5    5    6 1    
     6    6    7 ar   
     7    6    8 ar   
     8    6    9 1    
     9    9   10 1    
    10   10   11 ar   
    11   10   12 ar   
    12   10   13 1    
    13   13   14 1    
    14   14   15 1    
    15   15   16 1    
    16   15   17 1    
    17   16   21 1    
    18   17   18 1    
    19   17   19 1    
    20   19   20 1    
    21   19   21 1    
    22   21   22 1    
    23   22   23 1    
    24   22   32 1    
    25   23   24 2    
    26   24   25 1    
    27   25   26 1    
    28   25   32 2    
    29   26   27 2    
    30   26   28 am   
    31   28   29 1    
    32   29   30 1    
    33   29   31 2    
    34   31   32 1    
@<TRIPOS>SUBSTRUCTURE
     1 GTP501      1 GROUP   
@<TRIPOS>SET
ATOM$ORANGE STATIC     ATOMS   COLORGROUP SYSTEM 
20 14 14 15 15 17 17 19 19 21 21 23 23 25 25 26 26 29 \
29 32 32 

