#    Name: 6agk_1_GTP
#    Modification time : Fri May 22 19:34:13 2020

@<TRIPOS>MOLECULE
6agk_1_GTP
   32    34     1     0     1
SMALL
NO_CHARGES


@<TRIPOS>ATOM
      1 PG        -27.0370  -73.7170   46.0810 P.3       1 GTP501      0.0000 
      2 O1G       -28.3030  -74.1230   45.3710 O.co2     1 GTP501      0.0000 
      3 O2G       -25.7770  -74.1790   45.3810 O.co2     1 GTP501      0.0000 
      4 O3G       -27.0210  -72.2970   46.6060 O.co2     1 GTP501      0.0000 
      5 O3B       -27.1720  -74.4640   47.5230 O.3       1 GTP501      0.0000 
      6 PB        -26.3820  -75.7440   48.1310 P.3       1 GTP501      0.0000 
      7 O1B       -26.1160  -76.8080   47.1080 O.co2     1 GTP501      0.0000 
      8 O2B       -27.1790  -76.0530   49.3730 O.co2     1 GTP501      0.0000 
      9 O3A       -24.9680  -75.0990   48.5330 O.3       1 GTP501      0.0000 
     10 PA        -23.8400  -75.7740   49.4640 P.3       1 GTP501      0.0000 
     11 O1A       -22.6840  -76.0970   48.5400 O.co2     1 GTP501      0.0000 
     12 O2A       -24.4190  -76.8790   50.3170 O.co2     1 GTP501      0.0000 
     13 O5'       -23.5170  -74.5050   50.4140 O.3       1 GTP501      0.0000 
     14 C5'       -22.2460  -73.8530   50.5320 C.3       1 GTP501      0.0000 
     15 C4'       -21.7370  -73.9740   51.9710 C.3       1 GTP501      0.0000 
     16 O4'       -21.6990  -75.3620   52.3040 O.3       1 GTP501      0.0000 
     17 C3'       -20.3160  -73.4890   52.2030 C.3       1 GTP501      0.0000 
     18 O3'       -20.1900  -73.1010   53.5800 O.3       1 GTP501      0.0000 
     19 C2'       -19.4780  -74.7150   51.8710 C.3       1 GTP501      0.0000 
     20 O2'       -18.1630  -74.7690   52.4350 O.3       1 GTP501      0.0000 
     21 C1'       -20.3480  -75.7980   52.4560 C.3       1 GTP501      0.0000 
     22 N9        -20.1950  -77.0800   51.7630 N.pl3     1 GTP501      0.0000 
     23 C8        -20.4850  -77.3510   50.4840 C.2       1 GTP501      0.0000 
     24 N7        -20.2280  -78.6610   50.2080 N.2       1 GTP501      0.0000 
     25 C5        -19.7820  -79.2420   51.3340 C.2       1 GTP501      0.0000 
     26 C6        -19.3120  -80.5810   51.7520 C.2       1 GTP501      0.0000 
     27 O6        -19.2870  -81.5330   50.9430 O.2       1 GTP501      0.0000 
     28 N1        -18.9120  -80.7300   53.0200 N.am      1 GTP501      0.0000 
     29 C2        -18.9330  -79.7160   53.9030 C.2       1 GTP501      0.0000 
     30 N2        -18.5260  -79.9180   55.1740 N.pl3     1 GTP501      0.0000 
     31 N3        -19.3390  -78.4650   53.5860 N.2       1 GTP501      0.0000 
     32 C4        -19.7640  -78.1820   52.3470 C.2       1 GTP501      0.0000 
@<TRIPOS>BOND
     1    1    2 ar   
     2    1    3 ar   
     3    1    4 ar   
     4    1    5 1    
     5    5    6 1    
     6    6    7 ar   
     7    6    8 ar   
     8    6    9 1    
     9    9   10 1    
    10   10   11 ar   
    11   10   12 ar   
    12   10   13 1    
    13   13   14 1    
    14   14   15 1    
    15   15   16 1    
    16   15   17 1    
    17   16   21 1    
    18   17   18 1    
    19   17   19 1    
    20   19   20 1    
    21   19   21 1    
    22   21   22 1    
    23   22   23 1    
    24   22   32 1    
    25   23   24 2    
    26   24   25 1    
    27   25   26 1    
    28   25   32 2    
    29   26   27 2    
    30   26   28 am   
    31   28   29 1    
    32   29   30 1    
    33   29   31 2    
    34   31   32 1    
@<TRIPOS>SUBSTRUCTURE
     1 GTP501      1 GROUP   
@<TRIPOS>SET
ATOM$ORANGE STATIC     ATOMS   COLORGROUP SYSTEM 
20 14 14 15 15 17 17 19 19 21 21 23 23 25 25 26 26 29 \
29 32 32 

