#    Name: 6agk_5_ACP
#    Modification time : Fri May 22 19:34:23 2020

@<TRIPOS>MOLECULE
6agk_5_ACP
   31    33     1     0     1
SMALL
NO_CHARGES


@<TRIPOS>ATOM
      1 PG         -7.8660  -49.7520   93.6830 P.3       1 ACP401      0.0000 
      2 O1G        -9.0150  -48.9700   92.8660 O.co2     1 ACP401      0.0000 
      3 O2G        -7.6240  -51.0740   93.0620 O.co2     1 ACP401      0.0000 
      4 O3G        -6.4900  -48.9200   93.6420 O.co2     1 ACP401      0.0000 
      5 PB        -10.0560  -49.4000   95.7020 P.3       1 ACP401      0.0000 
      6 O1B       -10.9390  -49.8710   94.6090 O.co2     1 ACP401      0.0000 
      7 O2B       -10.0360  -47.7920   95.6470 O.co2     1 ACP401      0.0000 
      8 C3B        -8.3610  -49.9940   95.4090 C.3       1 ACP401      0.0000 
      9 PA        -10.0010  -50.6690   98.3340 P.3       1 ACP401      0.0000 
     10 O1A        -8.5270  -50.9070   98.0850 O.co2     1 ACP401      0.0000 
     11 O2A       -10.8820  -51.8400   98.7050 O.co2     1 ACP401      0.0000 
     12 O3A       -10.7070  -49.8690   97.1130 O.3       1 ACP401      0.0000 
     13 O5'       -10.1030  -49.6230   99.5560 O.3       1 ACP401      0.0000 
     14 C5'        -9.4530  -48.3490   99.5260 C.3       1 ACP401      0.0000 
     15 C4'        -8.6240  -48.0830  100.7880 C.3       1 ACP401      0.0000 
     16 O4'        -9.2830  -48.5430  101.9720 O.3       1 ACP401      0.0000 
     17 C3'        -7.2630  -48.7650  100.7400 C.3       1 ACP401      0.0000 
     18 O3'        -6.2500  -47.8460  100.3000 O.3       1 ACP401      0.0000 
     19 C2'        -7.0320  -49.2910  102.1460 C.3       1 ACP401      0.0000 
     20 O2'        -6.0350  -48.5420  102.8400 O.3       1 ACP401      0.0000 
     21 C1'        -8.3560  -49.1480  102.8710 C.3       1 ACP401      0.0000 
     22 N9         -8.8520  -50.4680  103.3180 N.pl3     1 ACP401      0.0000 
     23 C8         -9.7600  -51.2460  102.6990 C.2       1 ACP401      0.0000 
     24 N7         -9.9770  -52.3870  103.4030 N.2       1 ACP401      0.0000 
     25 C5         -9.1960  -52.3480  104.4970 C.ar      1 ACP401      0.0000 
     26 C6         -8.9310  -53.2280  105.6660 C.ar      1 ACP401      0.0000 
     27 N6         -9.5690  -54.4150  105.8000 N.pl3     1 ACP401      0.0000 
     28 N1         -8.0320  -52.8000  106.5890 N.ar      1 ACP401      0.0000 
     29 C2         -7.3830  -51.6170  106.4670 C.ar      1 ACP401      0.0000 
     30 N3         -7.5810  -50.7750  105.4270 N.ar      1 ACP401      0.0000 
     31 C4         -8.4560  -51.0760  104.4330 C.ar      1 ACP401      0.0000 
@<TRIPOS>BOND
     1    1    2 ar   
     2    1    3 ar   
     3    1    4 ar   
     4    1    8 1    
     5    5    6 ar   
     6    5    7 ar   
     7    5    8 1    
     8    5   12 1    
     9    9   10 ar   
    10    9   11 ar   
    11    9   12 1    
    12    9   13 1    
    13   13   14 1    
    14   14   15 1    
    15   15   16 1    
    16   15   17 1    
    17   16   21 1    
    18   17   18 1    
    19   17   19 1    
    20   19   20 1    
    21   19   21 1    
    22   21   22 1    
    23   22   23 1    
    24   22   31 1    
    25   23   24 2    
    26   24   25 1    
    27   25   26 ar   
    28   25   31 ar   
    29   26   27 1    
    30   26   28 ar   
    31   28   29 ar   
    32   29   30 ar   
    33   30   31 ar   
@<TRIPOS>SUBSTRUCTURE
     1 ACP401      1 GROUP   
@<TRIPOS>SET
ATOM$ORANGE STATIC     ATOMS   COLORGROUP SYSTEM 
22 8 8 14 14 15 15 17 17 19 19 21 21 23 23 25 25 26 \
26 29 29 31 31 

