#    Name: 6agk_1_GTP_CAVITY_N1_6
#    Modification time : Fri May 22 19:34:15 2020

@<TRIPOS>MOLECULE
6agk_1_GTP_CAVITY_N1_6
   76     0     7     0     0
SMALL
NO_CHARGES


@<TRIPOS>ATOM
      1 OG        -20.0300  -74.5400   47.4000 O.3       1 SER1        0.0000 
      2 OG        -18.6000  -74.9900   47.4900 O.3       1 SER1        0.0000 
      3 OG        -23.6200  -75.4200   49.9600 O.3       1 SER1        0.0000 
      4 OG        -20.7600  -76.3100   50.1500 O.3       1 SER1        0.0000 
      5 OG        -20.3300  -75.0700   49.4300 O.3       1 SER1        0.0000 
      6 OG        -23.4800  -74.7000   51.2800 O.3       1 SER1        0.0000 
      7 OG        -20.6300  -75.6000   51.4600 O.3       1 SER1        0.0000 
      8 OG        -19.2000  -76.0500   51.5600 O.3       1 SER1        0.0000 
      9 N         -21.5900  -74.8100   45.9900 N.am      2 ALA2        0.0000 
     10 O         -20.1600  -75.2600   46.0900 O.2       2 ALA2        0.0000 
     11 N         -18.7400  -75.7100   46.1800 N.am      2 ALA2        0.0000 
     12 O         -21.3400  -78.2700   49.5600 O.2       2 ALA2        0.0000 
     13 O         -20.9000  -77.0300   48.8400 O.2       2 ALA2        0.0000 
     14 O         -21.8900  -75.3400   48.0200 O.2       2 ALA2        0.0000 
     15 O         -20.4600  -75.7900   48.1200 O.2       2 ALA2        0.0000 
     16 N         -22.8800  -73.6500   47.2100 N.am      2 ALA2        0.0000 
     17 N         -22.4500  -72.4100   46.4900 N.am      2 ALA2        0.0000 
     18 N         -21.0200  -72.8500   46.5800 N.am      2 ALA2        0.0000 
     19 N         -19.5900  -73.3000   46.6800 N.am      2 ALA2        0.0000 
     20 O         -20.5800  -71.6100   45.8600 O.2       2 ALA2        0.0000 
     21 N         -22.7500  -72.9300   48.5200 N.am      2 ALA2        0.0000 
     22 N         -19.8900  -73.8300   48.7100 N.am      2 ALA2        0.0000 
     23 N         -20.8800  -72.1400   47.9000 N.am      2 ALA2        0.0000 
     24 N         -19.4500  -72.5900   47.9900 N.am      2 ALA2        0.0000 
     25 O         -20.4400  -70.9000   47.1800 O.2       2 ALA2        0.0000 
     26 N         -19.0200  -71.3500   47.2700 N.am      2 ALA2        0.0000 
     27 N         -19.0800  -80.2200   53.8100 N.am      2 ALA2        0.0000 
     28 O         -23.0500  -73.4600   50.5600 O.2       2 ALA2        0.0000 
     29 N         -20.1900  -74.3600   50.7400 N.am      2 ALA2        0.0000 
     30 O         -20.4900  -74.8900   52.7800 O.2       2 ALA2        0.0000 
     31 O         -19.0600  -75.3400   52.8700 O.2       2 ALA2        0.0000 
     32 N         -18.6200  -74.0900   52.1500 N.am      2 ALA2        0.0000 
     33 O         -20.3500  -74.1700   54.0900 O.2       2 ALA2        0.0000 
     34 N         -18.4900  -73.3800   53.4600 N.am      2 ALA2        0.0000 
     35 OD1       -21.1600  -73.5700   45.2700 O.co2     3 ASP3        0.0000 
     36 OD1       -20.7200  -72.3300   44.5500 O.co2     3 ASP3        0.0000 
     37 OD1       -23.3200  -74.8900   47.9300 O.co2     3 ASP3        0.0000 
     38 NZ        -21.3200  -73.3800   48.6200 N.4       4 LYS4        0.0000 
     39 NZ        -21.6200  -73.9100   50.6500 N.4       4 LYS4        0.0000 
     40 NZ        -21.1800  -72.6700   49.9300 N.4       4 LYS4        0.0000 
     41 NZ        -21.4800  -73.2000   51.9600 N.4       4 LYS4        0.0000 
     42 NZ        -20.0500  -73.6500   52.0600 N.4       4 LYS4        0.0000 
     43 NZ        -21.7800  -73.7300   53.9900 N.4       4 LYS4        0.0000 
     44 NZ        -19.9100  -72.9300   53.3700 N.4       4 LYS4        0.0000 
     45 CZ        -18.7800  -79.6900   51.7800 C.ar      5 PHE5        0.0000 
     46 CZ        -19.7700  -78.0000   50.9700 C.ar      5 PHE5        0.0000 
     47 CZ        -18.6400  -78.9800   53.0900 C.ar      5 PHE5        0.0000 
     48 CZ        -19.6400  -77.2900   52.2800 C.ar      5 PHE5        0.0000 
     49 CA        -19.8600  -74.7300   44.0500 C.3       6 GLY6        0.0000 
     50 CA        -19.7300  -74.0200   45.3700 C.3       6 GLY6        0.0000 
     51 CA        -18.3000  -74.4600   45.4600 C.3       6 GLY6        0.0000 
     52 CA        -20.3500  -79.9600   50.3700 C.3       6 GLY6        0.0000 
     53 CA        -23.7600  -76.1300   48.6500 C.3       6 GLY6        0.0000 
     54 CA        -22.3300  -76.5800   48.7400 C.3       6 GLY6        0.0000 
     55 CA        -24.7500  -74.4400   47.8400 C.3       6 GLY6        0.0000 
     56 CA        -18.1600  -73.7500   46.7700 C.3       6 GLY6        0.0000 
     57 CA        -19.1500  -72.0600   45.9600 C.3       6 GLY6        0.0000 
     58 CA        -20.2100  -79.2400   51.6900 C.3       6 GLY6        0.0000 
     59 CA        -22.6300  -77.1100   50.7800 C.3       6 GLY6        0.0000 
     60 CA        -21.2000  -77.5500   50.8700 C.3       6 GLY6        0.0000 
     61 CA        -23.1800  -74.1800   49.2400 C.3       6 GLY6        0.0000 
     62 CA        -20.5100  -79.7700   53.7200 C.3       6 GLY6        0.0000 
     63 CA        -20.0700  -78.5300   53.0000 C.3       6 GLY6        0.0000 
     64 CA        -22.4900  -76.3900   52.0900 C.3       6 GLY6        0.0000 
     65 CA        -21.0600  -76.8400   52.1800 C.3       6 GLY6        0.0000 
     66 CA        -22.0500  -75.1500   51.3700 C.3       6 GLY6        0.0000 
     67 CA        -21.3600  -77.3700   54.2200 C.3       6 GLY6        0.0000 
     68 CA        -19.9400  -77.8200   54.3100 C.3       6 GLY6        0.0000 
     69 CA        -20.9300  -76.1300   53.5000 C.3       6 GLY6        0.0000 
     70 CA        -21.9200  -74.4400   52.6800 C.3       6 GLY6        0.0000 
     71 CA        -22.2200  -74.9700   54.7200 C.3       6 GLY6        0.0000 
     72 CA        -20.7900  -75.4200   54.8100 C.3       6 GLY6        0.0000 
     73 CA        -20.2100  -73.4600   55.4000 C.3       6 GLY6        0.0000 
     74 DU        -21.4600  -74.1000   47.3000 H         7 CUB7        0.0000 
     75 DU        -22.1900  -75.8700   50.0600 H         7 CUB7        0.0000 
     76 DU        -21.7500  -74.6200   49.3400 H         7 CUB7        0.0000 
@<TRIPOS>BOND
@<TRIPOS>SUBSTRUCTURE
     1 SER1        1 GROUP   
     2 ALA2        9 GROUP   
     3 ASP3       35 GROUP   
     4 LYS4       38 GROUP   
     5 PHE5       45 GROUP   
     6 GLY6       49 GROUP   
     7 CUB7       74 GROUP   
@<TRIPOS>SET

