#    Name: 6fj0_1_A3N
#    Modification time : Fri May 22 19:24:30 2020

@<TRIPOS>MOLECULE
6fj0_1_A3N
   22    24     1     0     0
SMALL
NO_CHARGES


@<TRIPOS>ATOM
      1 C13        -8.6940   18.3460   41.0060 C.1       1 A3N406      0.0000 
      2 C12        -9.4780   18.8360   40.8330 C.1       1 A3N406      0.0000 
      3 C11       -10.7510   19.6440   40.5150 C.3       1 A3N406      0.0000 
      4 N5        -11.9390   19.0850   41.1540 N.4       1 A3N406      0.0000 
      5 C10       -13.0210   20.0540   41.0240 C.3       1 A3N406      0.0000 
      6 C9        -14.3150   19.4420   41.4650 C.3       1 A3N406      0.0000 
      7 O1        -14.4780   18.2310   40.8660 O.3       1 A3N406      0.0000 
      8 C8        -14.1560   19.1390   42.9250 C.3       1 A3N406      0.0000 
      9 O2        -15.2140   19.7770   43.4750 O.3       1 A3N406      0.0000 
     10 C7        -14.2850   17.6180   43.0480 C.3       1 A3N406      0.0000 
     11 O3        -14.9810   17.2700   44.2000 O.3       1 A3N406      0.0000 
     12 C6        -15.0870   17.3580   41.7370 C.3       1 A3N406      0.0000 
     13 N3        -15.0180   16.0020   41.1930 N.pl3     1 A3N406      0.0000 
     14 C5        -14.1010   15.2840   40.6290 C.2       1 A3N406      0.0000 
     15 N4        -14.5870   14.1380   40.3150 N.2       1 A3N406      0.0000 
     16 C2        -15.8310   14.1360   40.6670 C.ar      1 A3N406      0.0000 
     17 C3        -16.1000   15.2900   41.1950 C.ar      1 A3N406      0.0000 
     18 N2        -17.3030   15.5680   41.6500 N.ar      1 A3N406      0.0000 
     19 C4        -18.2650   14.6730   41.5640 C.ar      1 A3N406      0.0000 
     20 N1        -18.0250   13.5450   41.0450 N.ar      1 A3N406      0.0000 
     21 C1        -16.7860   13.2470   40.5760 C.ar      1 A3N406      0.0000 
     22 N6        -16.4930   12.0910   40.0490 N.pl3     1 A3N406      0.0000 
@<TRIPOS>BOND
     1    2    3 1    
     2    1    2 3    
     3    3    4 1    
     4    4    5 1    
     5    5    6 1    
     6    6    7 1    
     7    6    8 1    
     8    7   12 1    
     9    8    9 1    
    10    8   10 1    
    11   10   11 1    
    12   10   12 1    
    13   12   13 1    
    14   13   14 1    
    15   13   17 1    
    16   14   15 2    
    17   15   16 1    
    18   16   17 ar   
    19   16   21 ar   
    20   17   18 ar   
    21   18   19 ar   
    22   19   20 ar   
    23   20   21 ar   
    24   21   22 1    
@<TRIPOS>SUBSTRUCTURE
     1 A3N406      1 GROUP   
@<TRIPOS>SET

