#    Name: 5uqu_1_COA
#    Modification time : Fri May 22 19:15:03 2020

@<TRIPOS>MOLECULE
5uqu_1_COA
   48    50     1     0     1
SMALL
NO_CHARGES


@<TRIPOS>ATOM
      1 N1A         9.7870  -12.3300   30.8630 N.ar      1 COA503      0.0000 
      2 C2A        10.1260  -12.3170   29.5450 C.ar      1 COA503      0.0000 
      3 N3A         9.5120  -11.5590   28.6220 N.ar      1 COA503      0.0000 
      4 C4A         8.4980  -10.7590   28.9730 C.ar      1 COA503      0.0000 
      5 C5A         8.1150  -10.6860   30.3830 C.ar      1 COA503      0.0000 
      6 C6A         8.8220  -11.5400   31.3190 C.ar      1 COA503      0.0000 
      7 N6A         8.4350  -11.4790   32.5950 N.pl3     1 COA503      0.0000 
      8 N7A         7.1220   -9.8080   30.5140 N.2       1 COA503      0.0000 
      9 C8A         6.8610   -9.3440   29.2620 C.2       1 COA503      0.0000 
     10 N9A         7.6810   -9.9020   28.3570 N.pl3     1 COA503      0.0000 
     11 C1B         7.6380   -9.6590   26.8880 C.3       1 COA503      0.0000 
     12 C2B         6.2660  -10.1340   26.3590 C.3       1 COA503      0.0000 
     13 O2B         6.0510  -11.5490   26.3260 O.3       1 COA503      0.0000 
     14 C3B         6.1680   -9.4210   25.0040 C.3       1 COA503      0.0000 
     15 O3B         6.8600  -10.0950   23.9400 O.3       1 COA503      0.0000 
     16 P3B         6.9820   -9.6640   22.3310 P.3       1 COA503      0.0000 
     17 O7A         8.3980  -10.0770   21.9450 O.co2     1 COA503      0.0000 
     18 O8A         6.7550   -8.1760   22.1160 O.co2     1 COA503      0.0000 
     19 O9A         5.9120  -10.4770   21.6330 O.co2     1 COA503      0.0000 
     20 C4B         6.8360   -8.0820   25.3730 C.3       1 COA503      0.0000 
     21 O4B         7.6590   -8.3040   26.5420 O.3       1 COA503      0.0000 
     22 C5B         5.8690   -6.9660   25.7380 C.3       1 COA503      0.0000 
     23 O5B         4.9830   -7.4110   26.7620 O.3       1 COA503      0.0000 
     24 P1A         4.3990   -6.4050   27.8880 P.3       1 COA503      0.0000 
     25 O1A         3.6090   -5.3140   27.2570 O.co2     1 COA503      0.0000 
     26 O2A         5.4500   -5.9800   28.8450 O.co2     1 COA503      0.0000 
     27 O3A         3.4570   -7.4620   28.6590 O.3       1 COA503      0.0000 
     28 P2A         1.9280   -7.8090   28.5200 P.3       1 COA503      0.0000 
     29 O4A         1.1110   -6.6720   29.0560 O.co2     1 COA503      0.0000 
     30 O5A         1.6330   -8.3550   27.1390 O.co2     1 COA503      0.0000 
     31 O6A         1.8860   -9.1080   29.4760 O.3       1 COA503      0.0000 
     32 CBP         2.4290  -10.2420   31.5450 C.3       1 COA503      0.0000 
     33 CCP         1.9440   -8.9410   30.8930 C.3       1 COA503      0.0000 
     34 CDP         2.2750  -10.1500   33.0730 C.3       1 COA503      0.0000 
     35 CEP         1.5440  -11.3700   31.0170 C.3       1 COA503      0.0000 
     36 CAP         3.9010  -10.4640   31.1940 C.3       1 COA503      0.0000 
     37 OAP         4.6950   -9.4210   31.7980 O.3       1 COA503      0.0000 
     38 C9P         4.4140  -11.8300   31.5760 C.2       1 COA503      0.0000 
     39 O9P         4.2960  -12.7260   30.7550 O.2       1 COA503      0.0000 
     40 N8P         4.9410  -11.9740   32.7950 N.am      1 COA503      0.0000 
     41 C7P         5.3980  -13.2610   33.3010 C.3       1 COA503      0.0000 
     42 C6P         4.2120  -14.0670   33.8240 C.3       1 COA503      0.0000 
     43 C5P         3.6450  -13.4660   35.1170 C.2       1 COA503      0.0000 
     44 O5P         4.4330  -13.1780   35.9970 O.2       1 COA503      0.0000 
     45 N4P         2.3280  -13.2880   35.2020 N.am      1 COA503      0.0000 
     46 C3P         1.6520  -12.7850   36.3980 C.3       1 COA503      0.0000 
     47 C2P         1.3580  -11.2950   36.2630 C.3       1 COA503      0.0000 
     48 S1P         0.7980  -10.6190   37.8760 S.3       1 COA503      0.0000 
@<TRIPOS>BOND
     1    1    2 ar   
     2    1    6 ar   
     3    2    3 ar   
     4    3    4 ar   
     5    4    5 ar   
     6    4   10 1    
     7    5    6 ar   
     8    5    8 1    
     9    6    7 1    
    10    8    9 2    
    11    9   10 1    
    12   10   11 1    
    13   11   12 1    
    14   11   21 1    
    15   12   13 1    
    16   12   14 1    
    17   14   15 1    
    18   14   20 1    
    19   15   16 1    
    20   16   17 ar   
    21   16   18 ar   
    22   16   19 ar   
    23   20   21 1    
    24   20   22 1    
    25   22   23 1    
    26   23   24 1    
    27   24   25 ar   
    28   24   26 ar   
    29   24   27 1    
    30   27   28 1    
    31   28   29 ar   
    32   28   30 ar   
    33   28   31 1    
    34   31   33 1    
    35   32   33 1    
    36   32   34 1    
    37   32   35 1    
    38   32   36 1    
    39   36   37 1    
    40   36   38 1    
    41   38   39 2    
    42   38   40 am   
    43   40   41 1    
    44   41   42 1    
    45   42   43 1    
    46   43   44 2    
    47   43   45 am   
    48   45   46 1    
    49   46   47 1    
    50   47   48 1    
@<TRIPOS>SUBSTRUCTURE
     1 COA503      1 GROUP   
@<TRIPOS>SET
ATOM$ORANGE STATIC     ATOMS   COLORGROUP SYSTEM 
42 2 2 4 4 5 5 6 6 9 9 11 11 12 12 14 14 20 \
20 22 22 32 32 33 33 34 34 35 35 36 36 38 38 41 41 42 \
42 43 43 46 46 47 47 

