#    Name: 6o6a_3_Y01
#    Modification time : Fri May 22 19:35:25 2020

@<TRIPOS>MOLECULE
6o6a_3_Y01
   35    38     1     0     0
SMALL
NO_CHARGES


@<TRIPOS>ATOM
      1 CAA       200.6450  176.7030  208.4320 C.3       1 Y011301     0.0000 
      2 CBA       200.4330  175.9010  207.1500 C.3       1 Y011301     0.0000 
      3 CAB       201.5540  174.8760  206.9910 C.3       1 Y011301     0.0000 
      4 CAN       200.4410  176.8450  205.9520 C.3       1 Y011301     0.0000 
      5 CAJ       199.5230  176.2930  204.8600 C.3       1 Y011301     0.0000 
      6 CAO       199.8550  176.9880  203.5410 C.3       1 Y011301     0.0000 
      7 CBB       198.5220  177.3500  202.7260 C.3       1 Y011301     0.0000 
      8 CAC       197.6100  178.2060  203.7210 C.3       1 Y011301     0.0000 
      9 CBE       198.7860  178.0490  201.5710 C.3       1 Y011301     0.0000 
     10 CAP       200.1530  177.4940  200.7900 C.3       1 Y011301     0.0000 
     11 CAQ       199.6190  176.8600  199.4330 C.3       1 Y011301     0.0000 
     12 CBG       198.4190  177.8600  199.0480 C.3       1 Y011301     0.0000 
     13 CBI       197.6030  177.9970  200.3540 C.3       1 Y011301     0.0000 
     14 CAE       196.8400  176.6660  200.4910 C.3       1 Y011301     0.0000 
     15 CAU       196.6170  178.9980  200.2420 C.3       1 Y011301     0.0000 
     16 CAS       195.8190  179.1130  198.8170 C.3       1 Y011301     0.0000 
     17 CBF       196.6600  178.8280  197.5650 C.3       1 Y011301     0.0000 
     18 CBD       197.5420  177.6600  197.7980 C.3       1 Y011301     0.0000 
     19 CAK       198.5330  177.3400  196.5130 C.3       1 Y011301     0.0000 
     20 CAI       197.7960  177.2340  195.2320 C.2       1 Y011301     0.0000 
     21 CAZ       196.3680  178.1260  195.0390 C.2       1 Y011301     0.0000 
     22 CAV       195.5000  177.9570  193.7810 C.3       1 Y011301     0.0000 
     23 CBH       195.6290  178.5260  196.2450 C.3       1 Y011301     0.0000 
     24 CAD       194.7350  177.3600  196.6830 C.3       1 Y011301     0.0000 
     25 CAT       194.7560  179.7670  195.9690 C.3       1 Y011301     0.0000 
     26 CAR       193.8800  179.6300  194.7200 C.3       1 Y011301     0.0000 
     27 CBC       194.5830  179.1650  193.4970 C.3       1 Y011301     0.0000 
     28 OAW       193.5870  178.7500  192.5590 O.3       1 Y011301     0.0000 
     29 CAY       193.5610  179.4610  191.3510 C.2       1 Y011301     0.0000 
     30 OAG       193.8180  178.9000  190.3400 O.2       1 Y011301     0.0000 
     31 CAM       193.1910  180.9390  191.3270 C.3       1 Y011301     0.0000 
     32 CAL       192.3390  181.2250  190.0920 C.3       1 Y011301     0.0000 
     33 CAX       193.2210  181.6550  188.9270 C.2       1 Y011301     0.0000 
     34 OAH       193.6350  182.8440  188.8650 O.co2     1 Y011301     0.0000 
     35 OAF       193.5240  180.8250  188.0280 O.co2     1 Y011301     0.0000 
@<TRIPOS>BOND
     1    1    2 1    
     2    2    3 1    
     3    2    4 1    
     4    4    5 1    
     5    5    6 1    
     6    6    7 1    
     7    7    8 1    
     8    7    9 1    
     9    9   10 1    
    10    9   13 1    
    11   10   11 1    
    12   11   12 1    
    13   12   13 1    
    14   12   18 1    
    15   13   14 1    
    16   13   15 1    
    17   15   16 1    
    18   16   17 1    
    19   17   18 1    
    20   17   23 1    
    21   18   19 1    
    22   19   20 1    
    23   20   21 2    
    24   21   22 1    
    25   21   23 1    
    26   22   27 1    
    27   23   24 1    
    28   23   25 1    
    29   25   26 1    
    30   26   27 1    
    31   27   28 1    
    32   28   29 1    
    33   29   30 2    
    34   29   31 1    
    35   31   32 1    
    36   32   33 1    
    37   33   34 ar   
    38   33   35 ar   
@<TRIPOS>SUBSTRUCTURE
     1 Y011301     1 GROUP   
@<TRIPOS>SET

