#    Name: 6o6a_3_Y01_CAVITY_N1_4
#    Modification time : Fri May 22 19:35:26 2020

@<TRIPOS>MOLECULE
6o6a_3_Y01_CAVITY_N1_4
   52     0     6     0     0
SMALL
NO_CHARGES


@<TRIPOS>ATOM
      1 OG        195.2600  180.0900  186.5600 O.3       1 SER1        0.0000 
      2 OG        196.4800  177.7200  189.0800 O.3       1 SER1        0.0000 
      3 N         191.5600  177.8300  189.8000 N.am      2 ALA2        0.0000 
      4 N         190.6200  179.6700  189.3100 N.am      2 ALA2        0.0000 
      5 N         190.5400  177.9400  192.1900 N.am      2 ALA2        0.0000 
      6 N         190.9000  179.1300  191.3400 N.am      2 ALA2        0.0000 
      7 N         191.5400  179.7700  192.5300 N.am      2 ALA2        0.0000 
      8 N         193.5000  179.7700  193.3700 N.am      2 ALA2        0.0000 
      9 N         192.1900  180.4200  193.7200 N.am      2 ALA2        0.0000 
     10 OD1       191.2800  178.3700  187.7700 O.co2     3 ASP3        0.0000 
     11 OD1       194.8900  178.9000  187.4100 O.co2     3 ASP3        0.0000 
     12 OD1       193.5900  179.5500  187.7600 O.co2     3 ASP3        0.0000 
     13 OD1       192.2800  180.2000  188.1100 O.co2     3 ASP3        0.0000 
     14 OD1       190.9800  180.8500  188.4700 O.co2     3 ASP3        0.0000 
     15 OD1       194.6000  181.3900  188.1100 O.co2     3 ASP3        0.0000 
     16 OD1       192.9300  180.8500  189.3000 O.co2     3 ASP3        0.0000 
     17 OD1       193.2900  182.0400  188.4600 O.co2     3 ASP3        0.0000 
     18 CZ        196.2000  178.2600  187.0500 C.ar      4 PHE5        0.0000 
     19 CZ        195.5400  179.5500  188.5900 C.ar      4 PHE5        0.0000 
     20 CZ        195.9000  180.7400  187.7500 C.ar      4 PHE5        0.0000 
     21 CZ        194.2300  180.2000  188.9500 C.ar      4 PHE5        0.0000 
     22 CZ        193.2100  180.3100  191.3400 C.ar      4 PHE5        0.0000 
     23 CZ        193.5700  181.5000  190.4900 C.ar      4 PHE5        0.0000 
     24 CZ        193.9400  182.6900  189.6500 C.ar      4 PHE5        0.0000 
     25 CZ        194.8000  179.1200  193.0100 C.ar      4 PHE5        0.0000 
     26 CZ        193.8600  180.9600  192.5200 C.ar      4 PHE5        0.0000 
     27 CZ        193.2800  183.9800  191.1900 C.ar      4 PHE5        0.0000 
     28 CZ        194.1400  180.4200  194.5600 C.ar      4 PHE5        0.0000 
     29 CZ        193.2000  182.2600  194.0700 C.ar      4 PHE5        0.0000 
     30 CZ        193.5600  183.4400  193.2300 C.ar      4 PHE5        0.0000 
     31 CZ        193.9200  184.6300  192.3800 C.ar      4 PHE5        0.0000 
     32 CZ        195.1500  182.2500  194.9000 C.ar      4 PHE5        0.0000 
     33 CZ        193.8400  182.9000  195.2600 C.ar      4 PHE5        0.0000 
     34 CA        194.9600  182.5800  187.2600 C.3       5 GLY6        0.0000 
     35 CA        191.2600  180.3100  190.5000 C.3       5 GLY6        0.0000 
     36 CA        191.6200  181.5000  189.6600 C.3       5 GLY6        0.0000 
     37 CA        191.9900  182.6900  188.8100 C.3       5 GLY6        0.0000 
     38 CA        191.9100  180.9600  191.6900 C.3       5 GLY6        0.0000 
     39 CA        192.2700  182.1500  190.8500 C.3       5 GLY6        0.0000 
     40 CA        192.6300  183.3300  190.0000 C.3       5 GLY6        0.0000 
     41 CA        192.5500  181.6100  192.8800 C.3       5 GLY6        0.0000 
     42 CA        192.9100  182.8000  192.0400 C.3       5 GLY6        0.0000 
     43 CA        192.8400  181.0700  194.9100 C.3       5 GLY6        0.0000 
     44 CA        191.8900  182.9100  194.4200 C.3       5 GLY6        0.0000 
     45 CA        192.2500  184.0900  193.5800 C.3       5 GLY6        0.0000 
     46 DU        193.2300  178.3700  188.6000 H         6 CUB7        0.0000 
     47 DU        191.9200  179.0200  188.9600 H         6 CUB7        0.0000 
     48 DU        195.1800  178.3700  189.4400 H         6 CUB7        0.0000 
     49 DU        193.8700  179.0100  189.7900 H         6 CUB7        0.0000 
     50 DU        192.2000  178.4800  190.9900 H         6 CUB7        0.0000 
     51 DU        192.5700  179.6600  190.1500 H         6 CUB7        0.0000 
     52 DU        192.8500  179.1200  192.1800 H         6 CUB7        0.0000 
@<TRIPOS>BOND
@<TRIPOS>SUBSTRUCTURE
     1 SER1        1 GROUP   
     2 ALA2        3 GROUP   
     3 ASP3       10 GROUP   
     4 PHE5       18 GROUP   
     5 GLY6       34 GROUP   
     6 CUB7       46 GROUP   
@<TRIPOS>SET

