#    Name: 6ei9_1_FMN
#    Modification time : Fri May 22 19:26:08 2020

@<TRIPOS>MOLECULE
6ei9_1_FMN
   50    52     1     0     1
SMALL
NO_CHARGES


@<TRIPOS>ATOM
      1 N1         24.2150   28.2640  -10.1280 N.2       1 FMN401      0.0000 
      2 C2         25.4710   28.1240  -10.5910 C.2       1 FMN401      0.0000 
      3 O2         26.3030   28.9950  -10.2430 O.2       1 FMN401      0.0000 
      4 N3         25.8050   27.0980  -11.4100 N.am      1 FMN401      0.0000 
      5 C4         24.9320   26.1250  -11.7750 C.2       1 FMN401      0.0000 
      6 O4         25.2980   25.1590  -12.5000 O.2       1 FMN401      0.0000 
      7 C4A        23.5350   26.2030  -11.2550 C.2       1 FMN401      0.0000 
      8 N5         22.5560   25.3050  -11.5250 N.2       1 FMN401      0.0000 
      9 C5A        21.2800   25.4630  -11.0960 C.ar      1 FMN401      0.0000 
     10 C6         20.3090   24.5350  -11.4490 C.ar      1 FMN401      0.0000 
     11 C7         18.9990   24.6700  -10.9750 C.ar      1 FMN401      0.0000 
     12 C7M        17.9730   23.6410  -11.3690 C.3       1 FMN401      0.0000 
     13 C8         18.6220   25.8340  -10.1070 C.ar      1 FMN401      0.0000 
     14 C8M        17.2170   26.0670   -9.6010 C.3       1 FMN401      0.0000 
     15 C9         19.5980   26.7600   -9.7780 C.ar      1 FMN401      0.0000 
     16 C9A        20.9150   26.6230  -10.2420 C.ar      1 FMN401      0.0000 
     17 N10        21.9330   27.5610   -9.9530 N.pl3     1 FMN401      0.0000 
     18 C10        23.2400   27.3700  -10.4050 C.2       1 FMN401      0.0000 
     19 C1'        21.6970   28.7210   -9.1210 C.3       1 FMN401      0.0000 
     20 C2'        20.8750   29.7370   -9.8810 C.3       1 FMN401      0.0000 
     21 O2'        21.8200   30.6030  -10.5280 O.3       1 FMN401      0.0000 
     22 C3'        19.8720   30.3830   -8.9080 C.3       1 FMN401      0.0000 
     23 O3'        18.5320   30.0840   -9.3160 O.3       1 FMN401      0.0000 
     24 C4'        20.1430   31.8590   -8.7850 C.3       1 FMN401      0.0000 
     25 O4'        21.5480   31.9240   -8.4400 O.3       1 FMN401      0.0000 
     26 C5'        19.2230   32.5070   -7.7390 C.3       1 FMN401      0.0000 
     27 O5'        17.8360   32.2350   -7.9250 O.3       1 FMN401      0.0000 
     28 P          16.8800   32.9450   -8.9920 P.3       1 FMN401      0.0000 
     29 O1P        15.7520   33.4540   -8.1340 O.co2     1 FMN401      0.0000 
     30 O2P        17.6810   34.0010   -9.6990 O.co2     1 FMN401      0.0000 
     31 O3P        16.5320   31.7810   -9.8740 O.co2     1 FMN401      0.0000 
     32 HN3        26.7920   26.9860  -11.6830 H         1 FMN401      0.0000 
     33 H6         20.5750   23.6910  -12.0710 H         1 FMN401      0.0000 
     34 HM71       17.6030   23.1640  -10.4980 H         1 FMN401      0.0000 
     35 HM72       18.4110   22.9190  -12.0120 H         1 FMN401      0.0000 
     36 HM73       17.1760   24.1200  -11.8770 H         1 FMN401      0.0000 
     37 HM81       16.5130   25.7730  -10.3340 H         1 FMN401      0.0000 
     38 HM82       17.0760   27.0980   -9.3930 H         1 FMN401      0.0000 
     39 HM83       17.0610   25.5070   -8.7170 H         1 FMN401      0.0000 
     40 H9         19.3070   27.5880   -9.1530 H         1 FMN401      0.0000 
     41 H1'1       21.2050   28.3850   -8.2100 H         1 FMN401      0.0000 
     42 H1'2       22.6290   29.1970   -8.8310 H         1 FMN401      0.0000 
     43 H2'        20.2970   29.2420  -10.6720 H         1 FMN401      0.0000 
     44 HO2'       22.3660   30.0950  -11.1420 H         1 FMN401      0.0000 
     45 H3'        19.9930   29.9840   -7.8930 H         1 FMN401      0.0000 
     46 HO3'       18.0820   29.5730   -8.6350 H         1 FMN401      0.0000 
     47 H4'        19.9650   32.3410   -9.7560 H         1 FMN401      0.0000 
     48 HO4'       21.6550   31.9270   -7.4810 H         1 FMN401      0.0000 
     49 H5'1       19.4990   32.1110   -6.7670 H         1 FMN401      0.0000 
     50 H5'2       19.3570   33.5840   -7.7010 H         1 FMN401      0.0000 
@<TRIPOS>BOND
     1    1    2 1    
     2    1   18 2    
     3    2    3 2    
     4    2    4 am   
     5    4    5 am   
     6    4   32 1    
     7    5    6 2    
     8    5    7 1    
     9    7    8 2    
    10    7   18 1    
    11    8    9 1    
    12    9   10 ar   
    13    9   16 ar   
    14   10   11 ar   
    15   10   33 1    
    16   11   12 1    
    17   11   13 ar   
    18   12   34 1    
    19   12   35 1    
    20   12   36 1    
    21   13   14 1    
    22   13   15 ar   
    23   14   37 1    
    24   14   38 1    
    25   14   39 1    
    26   15   16 ar   
    27   15   40 1    
    28   16   17 1    
    29   17   18 1    
    30   17   19 1    
    31   19   20 1    
    32   19   41 1    
    33   19   42 1    
    34   20   21 1    
    35   20   22 1    
    36   20   43 1    
    37   21   44 1    
    38   22   23 1    
    39   22   24 1    
    40   22   45 1    
    41   23   46 1    
    42   24   25 1    
    43   24   26 1    
    44   24   47 1    
    45   25   48 1    
    46   26   27 1    
    47   26   49 1    
    48   26   50 1    
    49   27   28 1    
    50   28   29 ar   
    51   28   30 ar   
    52   28   31 ar   
@<TRIPOS>SUBSTRUCTURE
     1 FMN401      1 GROUP   
@<TRIPOS>SET
ATOM$ORANGE STATIC     ATOMS   COLORGROUP SYSTEM 
34 2 2 5 5 7 7 9 9 10 10 11 11 12 12 13 13 14 \
14 15 15 16 16 18 18 19 19 20 20 22 22 24 24 26 26 

