#    Name: 6ei9_2_FMN_CAVITY_N1_8
#    Modification time : Fri May 22 19:26:15 2020

@<TRIPOS>MOLECULE
6ei9_2_FMN_CAVITY_N1_8
   70     0     6     0     0
SMALL
NO_CHARGES


@<TRIPOS>ATOM
      1 OG         -7.3500   38.1300   -5.1900 O.3       1 SER1        0.0000 
      2 OG         -6.1100   38.5700   -4.4700 O.3       1 SER1        0.0000 
      3 O          -9.7500   38.1900   -4.2100 O.2       2 ALA2        0.0000 
      4 N         -10.2100   37.4600   -2.9900 N.am      2 ALA2        0.0000 
      5 N         -10.9200   38.6900   -2.5200 N.am      2 ALA2        0.0000 
      6 N         -11.3700   37.9600   -1.2900 N.am      2 ALA2        0.0000 
      7 N         -10.4000   34.7600   -1.0000 N.am      2 ALA2        0.0000 
      8 N         -11.1100   35.9900   -0.5300 N.am      2 ALA2        0.0000 
      9 N         -10.5900   32.0700    0.9900 N.am      2 ALA2        0.0000 
     10 N          -8.2500   36.6700   -2.7300 N.am      2 ALA2        0.0000 
     11 N          -8.7100   35.9400   -1.5100 N.am      2 ALA2        0.0000 
     12 N          -9.4200   37.1700   -1.0400 N.am      2 ALA2        0.0000 
     13 N         -10.1400   38.4000   -0.5700 N.am      2 ALA2        0.0000 
     14 N          -9.8700   36.4400    0.1900 N.am      2 ALA2        0.0000 
     15 O          -8.9000   33.2400    0.4800 O.2       2 ALA2        0.0000 
     16 O          -9.6100   34.4700    0.9500 O.2       2 ALA2        0.0000 
     17 N          -7.7300   38.3400   -1.5400 N.am      2 ALA2        0.0000 
     18 N          -7.4700   36.3800   -0.7800 N.am      2 ALA2        0.0000 
     19 N          -7.4000   31.7200    1.9600 N.am      2 ALA2        0.0000 
     20 N          -4.8700   39.0200   -3.7500 N.am      2 ALA2        0.0000 
     21 N          -6.4900   38.7900   -0.8200 N.am      2 ALA2        0.0000 
     22 O          -3.6300   39.4600   -3.0300 O.2       2 ALA2        0.0000 
     23 O          -4.0900   38.7300   -1.8000 O.2       2 ALA2        0.0000 
     24 O          -4.8000   39.9600   -1.3300 O.2       2 ALA2        0.0000 
     25 O          -2.3900   39.9000   -2.3100 O.2       2 ALA2        0.0000 
     26 O          -2.1300   37.9400   -1.5500 O.2       2 ALA2        0.0000 
     27 OD1        -8.5200   38.6300   -3.4900 O.co2     3 ASP3        0.0000 
     28 OD1        -8.9700   37.9000   -2.2600 O.co2     3 ASP3        0.0000 
     29 OD1        -6.5600   37.8400   -3.2400 O.co2     3 ASP3        0.0000 
     30 OD1        -7.2800   39.0800   -2.7700 O.co2     3 ASP3        0.0000 
     31 OD1        -6.0400   39.5200   -2.0500 O.co2     3 ASP3        0.0000 
     32 OD1        -2.9200   38.2300   -3.5000 O.co2     3 ASP3        0.0000 
     33 OD1        -3.3700   37.5000   -2.2700 O.co2     3 ASP3        0.0000 
     34 OD1        -1.6800   38.6700   -2.7800 O.co2     3 ASP3        0.0000 
     35 CZ         -7.0900   36.1700   -4.4300 C.ar      4 PHE5        0.0000 
     36 CZ         -5.8500   36.6100   -3.7100 C.ar      4 PHE5        0.0000 
     37 CZ         -6.3000   35.8800   -2.4800 C.ar      4 PHE5        0.0000 
     38 CZ         -6.0400   33.9200   -1.7200 C.ar      4 PHE5        0.0000 
     39 CZ         -6.7500   35.1500   -1.2500 C.ar      4 PHE5        0.0000 
     40 CZ         -4.1600   37.7900   -4.2200 C.ar      4 PHE5        0.0000 
     41 CZ         -4.6100   37.0500   -2.9900 C.ar      4 PHE5        0.0000 
     42 CZ         -5.0600   36.3200   -1.7600 C.ar      4 PHE5        0.0000 
     43 CA         -9.0400   36.9600   -4.6800 C.3       5 GLY6        0.0000 
     44 CA        -10.8500   34.0300    0.2300 C.3       5 GLY6        0.0000 
     45 CA         -9.6800   39.1300   -1.7900 C.3       5 GLY6        0.0000 
     46 CA         -9.1600   35.2000   -0.2800 C.3       5 GLY6        0.0000 
     47 CA         -8.4400   39.5800   -1.0700 C.3       5 GLY6        0.0000 
     48 CA         -7.2100   34.4200   -0.0300 C.3       5 GLY6        0.0000 
     49 CA         -7.9200   35.6500    0.4400 C.3       5 GLY6        0.0000 
     50 CA         -7.6600   33.6800    1.2000 C.3       5 GLY6        0.0000 
     51 CA         -5.7800   37.5500   -1.2900 C.3       5 GLY6        0.0000 
     52 CA         -4.8000   34.3600   -1.0000 C.3       5 GLY6        0.0000 
     53 CA         -5.5200   35.5900   -0.5300 C.3       5 GLY6        0.0000 
     54 CA         -6.2300   36.8200   -0.0600 C.3       5 GLY6        0.0000 
     55 CA         -4.5400   32.4000   -0.2500 C.3       5 GLY6        0.0000 
     56 CA         -5.2500   33.6300    0.2200 C.3       5 GLY6        0.0000 
     57 CA         -4.9900   31.6600    0.9800 C.3       5 GLY6        0.0000 
     58 CA         -5.7100   32.9000    1.4500 C.3       5 GLY6        0.0000 
     59 CA         -3.8200   36.7700   -1.0400 C.3       5 GLY6        0.0000 
     60 CA         -4.5400   38.0000   -0.5700 C.3       5 GLY6        0.0000 
     61 CA         -3.3000   32.8400    0.4800 C.3       5 GLY6        0.0000 
     62 CA         -2.8500   39.1700   -1.0800 C.3       5 GLY6        0.0000 
     63 DU        -11.3800   32.3500   -0.9600 H         6 CUB7        0.0000 
     64 DU        -10.1400   32.8000   -0.2400 H         6 CUB7        0.0000 
     65 DU         -7.8000   37.4000   -3.9600 H         6 CUB7        0.0000 
     66 DU         -8.4500   33.9700   -0.7500 H         6 CUB7        0.0000 
     67 DU         -7.0200   37.1100   -2.0100 H         6 CUB7        0.0000 
     68 DU         -6.4900   33.1800   -0.5000 H         6 CUB7        0.0000 
     69 DU         -6.9500   32.4500    0.7300 H         6 CUB7        0.0000 
     70 DU         -5.3200   38.2900   -2.5200 H         6 CUB7        0.0000 
@<TRIPOS>BOND
@<TRIPOS>SUBSTRUCTURE
     1 SER1        1 GROUP   
     2 ALA2        3 GROUP   
     3 ASP3       27 GROUP   
     4 PHE5       35 GROUP   
     5 GLY6       43 GROUP   
     6 CUB7       63 GROUP   
@<TRIPOS>SET

