#    Name: 6ei9_1_FMN_CAVITY_N1_8
#    Modification time : Fri May 22 19:26:10 2020

@<TRIPOS>MOLECULE
6ei9_1_FMN_CAVITY_N1_8
   83     0     6     0     0
SMALL
NO_CHARGES


@<TRIPOS>ATOM
      1 OG         21.8100   30.0100   -6.5900 O.3       1 SER1        0.0000 
      2 OG         23.0500   30.4600   -5.8700 O.3       1 SER1        0.0000 
      3 O          17.5700   32.6100  -10.2700 O.2       2 ALA2        0.0000 
      4 O          21.4100   24.4900  -11.8600 O.2       2 ALA2        0.0000 
      5 O          23.1000   25.6600  -12.3700 O.2       2 ALA2        0.0000 
      6 N          20.9500   29.3600  -10.9600 N.am      2 ALA2        0.0000 
      7 O          19.5300   31.8200  -10.0200 O.2       2 ALA2        0.0000 
      8 O          18.8100   33.0600   -9.5500 O.2       2 ALA2        0.0000 
      9 O          22.6500   24.9300  -11.1400 O.2       2 ALA2        0.0000 
     10 N          21.9300   26.1600  -10.6700 N.am      2 ALA2        0.0000 
     11 N          21.2200   27.4000  -10.2000 N.am      2 ALA2        0.0000 
     12 O          18.3600   32.3200   -8.3200 O.2       2 ALA2        0.0000 
     13 N          21.4800   25.4300   -9.4500 N.am      2 ALA2        0.0000 
     14 N          24.7900   26.8400  -12.8800 N.am      2 ALA2        0.0000 
     15 N          24.3400   26.1100  -11.6500 N.am      2 ALA2        0.0000 
     16 N          23.6200   27.3400  -11.1800 N.am      2 ALA2        0.0000 
     17 N          22.9100   28.5700  -10.7100 N.am      2 ALA2        0.0000 
     18 N          22.1900   29.8000  -10.2400 N.am      2 ALA2        0.0000 
     19 N          20.7600   32.2700   -9.3000 N.am      2 ALA2        0.0000 
     20 N          23.8800   25.3700  -10.4200 N.am      2 ALA2        0.0000 
     21 N          23.1700   26.6100   -9.9500 N.am      2 ALA2        0.0000 
     22 N          22.4500   27.8400   -9.4800 N.am      2 ALA2        0.0000 
     23 N          20.3100   31.5300   -8.0700 N.am      2 ALA2        0.0000 
     24 N          19.6000   32.7700   -7.6000 N.am      2 ALA2        0.0000 
     25 N          22.7200   25.8700   -8.7200 N.am      2 ALA2        0.0000 
     26 N          22.0000   27.1100   -8.2500 N.am      2 ALA2        0.0000 
     27 N          26.0300   27.2800  -12.1600 N.am      2 ALA2        0.0000 
     28 N          25.5800   26.5500  -10.9300 N.am      2 ALA2        0.0000 
     29 N          24.8600   27.7800  -10.4600 N.am      2 ALA2        0.0000 
     30 N          23.6900   28.2800   -8.7600 N.am      2 ALA2        0.0000 
     31 N          21.5500   31.9800   -7.3500 N.am      2 ALA2        0.0000 
     32 N          23.2400   27.5500   -7.5300 N.am      2 ALA2        0.0000 
     33 N          26.1000   28.2200   -9.7400 N.am      2 ALA2        0.0000 
     34 N          24.9300   28.7300   -8.0400 N.am      2 ALA2        0.0000 
     35 O          24.4800   27.9900   -6.8100 O.2       2 ALA2        0.0000 
     36 OD1        17.8300   30.6500   -9.5100 O.co2     3 ASP3        0.0000 
     37 OD1        17.1200   31.8800   -9.0400 O.co2     3 ASP3        0.0000 
     38 OD1        17.3800   29.9200   -8.2900 O.co2     3 ASP3        0.0000 
     39 OD1        17.9000   31.5900   -7.1000 O.co2     3 ASP3        0.0000 
     40 OD1        21.0300   30.3000   -8.5400 O.co2     3 ASP3        0.0000 
     41 OD1        22.9800   29.5100   -8.2900 O.co2     3 ASP3        0.0000 
     42 OD1        22.2600   30.7500   -7.8200 O.co2     3 ASP3        0.0000 
     43 OD1        22.0700   28.0500   -5.8300 O.co2     3 ASP3        0.0000 
     44 OD1        21.3600   29.2800   -5.3600 O.co2     3 ASP3        0.0000 
     45 OD1        25.3800   29.4600   -9.2700 O.co2     3 ASP3        0.0000 
     46 OD1        24.2200   29.9600   -7.5700 O.co2     3 ASP3        0.0000 
     47 OD1        23.3100   28.4900   -5.1100 O.co2     3 ASP3        0.0000 
     48 OD1        25.4600   30.4000   -6.8500 O.co2     3 ASP3        0.0000 
     49 CZ         17.8300   25.0500   -9.1900 C.ar      4 PHE5        0.0000 
     50 CZ         17.1200   26.2800   -8.7200 C.ar      4 PHE5        0.0000 
     51 CZ         19.5200   26.2200   -9.7000 C.ar      4 PHE5        0.0000 
     52 CZ         18.8100   27.4500   -9.2300 C.ar      4 PHE5        0.0000 
     53 CZ         18.0900   28.6800   -8.7600 C.ar      4 PHE5        0.0000 
     54 CZ         20.7600   26.6600   -8.9800 C.ar      4 PHE5        0.0000 
     55 CZ         20.0500   27.9000   -8.5100 C.ar      4 PHE5        0.0000 
     56 CZ         19.3300   29.1300   -8.0400 C.ar      4 PHE5        0.0000 
     57 CZ         18.6200   30.3600   -7.5700 C.ar      4 PHE5        0.0000 
     58 CZ         21.2900   28.3400   -7.7800 C.ar      4 PHE5        0.0000 
     59 CZ         20.5700   29.5700   -7.3100 C.ar      4 PHE5        0.0000 
     60 CZ         19.8600   30.8000   -6.8400 C.ar      4 PHE5        0.0000 
     61 CZ         21.5500   26.3800   -7.0300 C.ar      4 PHE5        0.0000 
     62 CA         17.3100   28.9700  -10.7100 C.3       5 GLY6        0.0000 
     63 CA         18.2900   25.7800  -10.4200 C.3       5 GLY6        0.0000 
     64 CA         17.5700   27.0100   -9.9500 C.3       5 GLY6        0.0000 
     65 CA         19.0000   30.1500  -11.2100 C.3       5 GLY6        0.0000 
     66 CA         18.2900   31.3800  -10.7400 C.3       5 GLY6        0.0000 
     67 CA         20.6900   25.7200  -11.3900 C.3       5 GLY6        0.0000 
     68 CA         19.9800   26.9500  -10.9200 C.3       5 GLY6        0.0000 
     69 CA         19.2600   28.1800  -10.4500 C.3       5 GLY6        0.0000 
     70 CA         18.5500   29.4200   -9.9800 C.3       5 GLY6        0.0000 
     71 CA         20.2400   30.5900  -10.4900 C.3       5 GLY6        0.0000 
     72 CA         20.5000   28.6300   -9.7300 C.3       5 GLY6        0.0000 
     73 CA         25.0500   24.8700  -12.1200 C.3       5 GLY6        0.0000 
     74 CA         25.3100   28.5100  -11.6900 C.3       5 GLY6        0.0000 
     75 CA         24.1500   29.0100   -9.9900 C.3       5 GLY6        0.0000 
     76 CA         22.7900   26.8200   -6.3000 C.3       5 GLY6        0.0000 
     77 CA         23.7600   29.2300   -6.3400 C.3       5 GLY6        0.0000 
     78 DU         19.0000   24.5400  -10.8900 H         6 CUB7        0.0000 
     79 DU         20.2400   24.9900  -10.1700 H         6 CUB7        0.0000 
     80 DU         19.7900   29.8600   -9.2600 H         6 CUB7        0.0000 
     81 DU         19.0700   31.0900   -8.7900 H         6 CUB7        0.0000 
     82 DU         21.7400   29.0700   -9.0100 H         6 CUB7        0.0000 
     83 DU         22.5300   28.7800   -7.0600 H         6 CUB7        0.0000 
@<TRIPOS>BOND
@<TRIPOS>SUBSTRUCTURE
     1 SER1        1 GROUP   
     2 ALA2        3 GROUP   
     3 ASP3       36 GROUP   
     4 PHE5       49 GROUP   
     5 GLY6       62 GROUP   
     6 CUB7       78 GROUP   
@<TRIPOS>SET

