#    Name: 6ei9_2_FMN
#    Modification time : Fri May 22 19:26:13 2020

@<TRIPOS>MOLECULE
6ei9_2_FMN
   50    52     1     0     1
SMALL
NO_CHARGES


@<TRIPOS>ATOM
      1 N1         -9.7890   38.2070   -1.4750 N.2       1 FMN401      0.0000 
      2 C2        -11.0210   38.6920   -1.2100 C.2       1 FMN401      0.0000 
      3 O2        -11.3870   39.7420   -1.7890 O.2       1 FMN401      0.0000 
      4 N3        -11.8560   38.0680   -0.3540 N.am      1 FMN401      0.0000 
      5 C4        -11.5610   36.9110    0.2400 C.2       1 FMN401      0.0000 
      6 O4        -12.4040   36.3820    0.9870 O.2       1 FMN401      0.0000 
      7 C4A       -10.2650   36.2530   -0.0840 C.2       1 FMN401      0.0000 
      8 N5         -9.8670   35.0750    0.4500 N.2       1 FMN401      0.0000 
      9 C5A        -8.6380   34.5730    0.1780 C.ar      1 FMN401      0.0000 
     10 C6         -8.2740   33.3820    0.7840 C.ar      1 FMN401      0.0000 
     11 C7         -7.0390   32.8050    0.5160 C.ar      1 FMN401      0.0000 
     12 C7M        -6.6800   31.5250    1.1990 C.3       1 FMN401      0.0000 
     13 C8         -6.0520   33.5070   -0.3530 C.ar      1 FMN401      0.0000 
     14 C8M        -4.7050   32.8940   -0.6590 C.3       1 FMN401      0.0000 
     15 C9         -6.4140   34.7030   -0.9650 C.ar      1 FMN401      0.0000 
     16 C9A        -7.6780   35.2650   -0.7400 C.ar      1 FMN401      0.0000 
     17 N10        -8.0790   36.4990   -1.3030 N.pl3     1 FMN401      0.0000 
     18 C10        -9.3690   37.0040   -1.0040 C.2       1 FMN401      0.0000 
     19 C1'        -7.2120   37.2910   -2.1820 C.3       1 FMN401      0.0000 
     20 C2'        -6.3670   38.2560   -1.3870 C.3       1 FMN401      0.0000 
     21 O2'        -7.2320   39.1740   -0.6890 O.3       1 FMN401      0.0000 
     22 C3'        -5.4450   39.0430   -2.3120 C.3       1 FMN401      0.0000 
     23 O3'        -6.2220   39.8820   -3.1730 O.3       1 FMN401      0.0000 
     24 C4'        -4.4560   38.2110   -3.1400 C.3       1 FMN401      0.0000 
     25 O4'        -4.0140   37.1080   -2.3510 O.3       1 FMN401      0.0000 
     26 C5'        -3.3470   39.1680   -3.6150 C.3       1 FMN401      0.0000 
     27 O5'        -2.0350   38.6750   -3.4660 O.3       1 FMN401      0.0000 
     28 P          -1.1540   38.8050   -2.1430 P.3       1 FMN401      0.0000 
     29 O1P        -1.0830   40.2140   -1.6830 O.co2     1 FMN401      0.0000 
     30 O2P        -1.8600   37.8830   -1.2040 O.co2     1 FMN401      0.0000 
     31 O3P         0.1840   38.2800   -2.6330 O.co2     1 FMN401      0.0000 
     32 HN3       -12.8060   38.4450   -0.2310 H         1 FMN401      0.0000 
     33 H6         -8.9670   32.8980    1.4600 H         1 FMN401      0.0000 
     34 HM71       -7.4640   31.2170    1.8400 H         1 FMN401      0.0000 
     35 HM72       -5.8000   31.6760    1.7700 H         1 FMN401      0.0000 
     36 HM73       -6.5080   30.7800    0.4680 H         1 FMN401      0.0000 
     37 HM81       -4.2210   32.6270    0.2450 H         1 FMN401      0.0000 
     38 HM82       -4.0980   33.5870   -1.1840 H         1 FMN401      0.0000 
     39 HM83       -4.8450   32.0290   -1.2570 H         1 FMN401      0.0000 
     40 H9         -5.6990   35.1730   -1.6230 H         1 FMN401      0.0000 
     41 H1'1       -6.6140   36.6530   -2.8300 H         1 FMN401      0.0000 
     42 H1'2       -7.8280   37.9060   -2.8180 H         1 FMN401      0.0000 
     43 H2'        -5.7690   37.6910   -0.6590 H         1 FMN401      0.0000 
     44 HO2'       -6.8710   40.0670   -0.6600 H         1 FMN401      0.0000 
     45 H3'        -4.8580   39.6930   -1.6460 H         1 FMN401      0.0000 
     46 HO3'       -5.9970   39.7770   -4.1060 H         1 FMN401      0.0000 
     47 H4'        -4.9580   37.8090   -4.0280 H         1 FMN401      0.0000 
     48 HO4'       -3.3680   36.5900   -2.8450 H         1 FMN401      0.0000 
     49 H5'1       -3.5100   39.4100   -4.6680 H         1 FMN401      0.0000 
     50 H5'2       -3.3930   40.0970   -3.0620 H         1 FMN401      0.0000 
@<TRIPOS>BOND
     1    1    2 1    
     2    1   18 2    
     3    2    3 2    
     4    2    4 am   
     5    4    5 am   
     6    4   32 1    
     7    5    6 2    
     8    5    7 1    
     9    7    8 2    
    10    7   18 1    
    11    8    9 1    
    12    9   10 ar   
    13    9   16 ar   
    14   10   11 ar   
    15   10   33 1    
    16   11   12 1    
    17   11   13 ar   
    18   12   34 1    
    19   12   35 1    
    20   12   36 1    
    21   13   14 1    
    22   13   15 ar   
    23   14   37 1    
    24   14   38 1    
    25   14   39 1    
    26   15   16 ar   
    27   15   40 1    
    28   16   17 1    
    29   17   18 1    
    30   17   19 1    
    31   19   20 1    
    32   19   41 1    
    33   19   42 1    
    34   20   21 1    
    35   20   22 1    
    36   20   43 1    
    37   21   44 1    
    38   22   23 1    
    39   22   24 1    
    40   22   45 1    
    41   23   46 1    
    42   24   25 1    
    43   24   26 1    
    44   24   47 1    
    45   25   48 1    
    46   26   27 1    
    47   26   49 1    
    48   26   50 1    
    49   27   28 1    
    50   28   29 ar   
    51   28   30 ar   
    52   28   31 ar   
@<TRIPOS>SUBSTRUCTURE
     1 FMN401      1 GROUP   
@<TRIPOS>SET
ATOM$ORANGE STATIC     ATOMS   COLORGROUP SYSTEM 
34 2 2 5 5 7 7 9 9 10 10 11 11 12 12 13 13 14 \
14 15 15 16 16 18 18 19 19 20 20 22 22 24 24 26 26 

