#    Name: 6v33_4_FOL
#    Modification time : Fri May 22 19:27:48 2020

@<TRIPOS>MOLECULE
6v33_4_FOL
   23    25     1     0     0
SMALL
NO_CHARGES


@<TRIPOS>ATOM
      1 N1         28.8670   -3.0530   -2.6660 N.pl3     1 FOL302      0.0000 
      2 C2         28.9200   -1.7490   -2.2730 C.2       1 FOL302      0.0000 
      3 NA2        29.9490   -0.9880   -2.7110 N.pl3     1 FOL302      0.0000 
      4 N3         27.9620   -1.2200   -1.4540 N.2       1 FOL302      0.0000 
      5 C4         26.9260   -2.0010   -1.0250 C.2       1 FOL302      0.0000 
      6 O4         26.0560   -1.4930   -0.2900 O.2       1 FOL302      0.0000 
      7 C4A        26.8440   -3.3510   -1.4230 C.ar      1 FOL302      0.0000 
      8 N5         25.8430   -4.1820   -1.0030 N.ar      1 FOL302      0.0000 
      9 C6         25.8160   -5.6400   -1.2380 C.ar      1 FOL302      0.0000 
     10 C7         26.6330   -6.0430   -2.4730 C.ar      1 FOL302      0.0000 
     11 N8         27.7860   -5.1720   -2.6480 N.ar      1 FOL302      0.0000 
     12 C8A        27.8450   -3.8660   -2.2470 C.ar      1 FOL302      0.0000 
     13 C9         26.1240   -6.4020    0.0940 C.3       1 FOL302      0.0000 
     14 N10        26.5950   -7.7810   -0.0790 N.pl3     1 FOL302      0.0000 
     15 C11        30.4680   -9.3950    0.7110 C.ar      1 FOL302      0.0000 
     16 C12        29.3940  -10.1630    0.2060 C.ar      1 FOL302      0.0000 
     17 C13        28.1360   -9.5970   -0.0400 C.ar      1 FOL302      0.0000 
     18 C14        27.8760   -8.2420    0.2000 C.ar      1 FOL302      0.0000 
     19 C15        28.9390   -7.4670    0.7100 C.ar      1 FOL302      0.0000 
     20 C16        30.2110   -8.0270    0.9550 C.ar      1 FOL302      0.0000 
     21 C          31.8460  -10.0570    0.9610 C.2       1 FOL302      0.0000 
     22 O          32.1350  -11.1520    0.4520 O.2       1 FOL302      0.0000 
     23 N          32.7740   -9.4580    1.7210 N.am      1 FOL302      0.0000 
@<TRIPOS>BOND
     1    1    2 1    
     2    1   12 1    
     3    2    3 1    
     4    2    4 2    
     5    4    5 1    
     6    5    6 2    
     7    5    7 1    
     8    7    8 ar   
     9    7   12 ar   
    10    8    9 ar   
    11    9   10 ar   
    12    9   13 1    
    13   10   11 ar   
    14   11   12 ar   
    15   13   14 1    
    16   14   18 1    
    17   15   16 ar   
    18   15   20 ar   
    19   15   21 1    
    20   16   17 ar   
    21   17   18 ar   
    22   18   19 ar   
    23   19   20 ar   
    24   21   22 2    
    25   21   23 am   
@<TRIPOS>SUBSTRUCTURE
     1 FOL302      1 GROUP   
@<TRIPOS>SET

