#    Name: 6v33_2_FOL_CAVITY_N1_4
#    Modification time : Fri May 22 19:27:44 2020

@<TRIPOS>MOLECULE
6v33_2_FOL_CAVITY_N1_4
   75     0     6     0     0
SMALL
NO_CHARGES


@<TRIPOS>ATOM
      1 OG          5.8600  -44.2300   39.2800 O.3       1 SER1        0.0000 
      2 OG          4.6600  -42.6300   40.0000 O.3       1 SER1        0.0000 
      3 O           5.3700  -51.8500   39.7800 O.2       2 ALA2        0.0000 
      4 N           5.6800  -51.0600   38.5400 N.am      2 ALA2        0.0000 
      5 N           8.5700  -51.8200   38.7700 N.am      2 ALA2        0.0000 
      6 N           5.9800  -50.2800   37.3000 N.am      2 ALA2        0.0000 
      7 O           7.4300  -50.6600   37.4200 O.2       2 ALA2        0.0000 
      8 N           7.7300  -49.8700   36.1700 N.am      2 ALA2        0.0000 
      9 N           6.7700  -51.7900   41.9700 N.am      2 ALA2        0.0000 
     10 O           8.5200  -51.3900   40.8500 O.2       2 ALA2        0.0000 
     11 N           4.7900  -48.6800   38.0200 N.am      2 ALA2        0.0000 
     12 N           6.2400  -49.0600   38.1300 N.am      2 ALA2        0.0000 
     13 N           5.0900  -47.8900   36.7800 N.am      2 ALA2        0.0000 
     14 N           6.5400  -48.2700   36.8900 N.am      2 ALA2        0.0000 
     15 N           5.4000  -47.1100   35.5400 N.am      2 ALA2        0.0000 
     16 N           6.8500  -47.4900   35.6500 N.am      2 ALA2        0.0000 
     17 N           5.7000  -46.3200   34.3000 N.am      2 ALA2        0.0000 
     18 N           7.1500  -46.7000   34.4100 N.am      2 ALA2        0.0000 
     19 O           3.6000  -47.0800   38.7400 O.2       2 ALA2        0.0000 
     20 O           5.0400  -47.4600   38.8500 O.2       2 ALA2        0.0000 
     21 N           3.9000  -46.2900   37.5000 N.am      2 ALA2        0.0000 
     22 N           4.2100  -45.5100   36.2600 N.am      2 ALA2        0.0000 
     23 N           3.0700  -44.3400   34.9000 N.am      2 ALA2        0.0000 
     24 N           8.8500  -45.8600   35.3600 N.am      2 ALA2        0.0000 
     25 N           2.7100  -44.6900   38.2200 N.am      2 ALA2        0.0000 
     26 O           5.9100  -44.6700   37.2100 O.2       2 ALA2        0.0000 
     27 O           7.3500  -45.0500   37.3200 O.2       2 ALA2        0.0000 
     28 O           7.6600  -44.2600   36.0800 O.2       2 ALA2        0.0000 
     29 O           4.4100  -43.8500   39.1700 O.2       2 ALA2        0.0000 
     30 O           4.7200  -43.0700   37.9200 O.2       2 ALA2        0.0000 
     31 O           7.6100  -43.8300   38.1500 O.2       2 ALA2        0.0000 
     32 NZ          8.8200  -50.6000   39.6100 N.4       3 LYS4        0.0000 
     33 NZ          7.6800  -49.4400   38.2500 N.4       3 LYS4        0.0000 
     34 NZ          7.9900  -48.6500   37.0100 N.4       3 LYS4        0.0000 
     35 NZ          8.5500  -46.6500   36.6000 N.4       3 LYS4        0.0000 
     36 CZ          6.0100  -45.5400   33.0500 C.ar      4 PHE5        0.0000 
     37 CZ          4.5100  -44.7200   35.0100 C.ar      4 PHE5        0.0000 
     38 CZ          5.9600  -45.1000   35.1300 C.ar      4 PHE5        0.0000 
     39 CZ          6.2600  -44.3200   33.8900 C.ar      4 PHE5        0.0000 
     40 CZ          3.0100  -43.9100   36.9700 C.ar      4 PHE5        0.0000 
     41 CZ          4.4600  -44.2900   37.0900 C.ar      4 PHE5        0.0000 
     42 CZ          3.2700  -42.6900   37.8100 C.ar      4 PHE5        0.0000 
     43 CA          5.4200  -52.2800   37.7100 C.3       5 GLY6        0.0000 
     44 CA          6.8700  -52.6600   37.8200 C.3       5 GLY6        0.0000 
     45 CA          6.5100  -53.0100   41.1400 C.3       5 GLY6        0.0000 
     46 CA          6.8200  -52.2300   39.9000 C.3       5 GLY6        0.0000 
     47 CA          8.2700  -52.6100   40.0100 C.3       5 GLY6        0.0000 
     48 CA          7.1200  -51.4400   38.6600 C.3       5 GLY6        0.0000 
     49 CA          5.6300  -50.6300   40.6200 C.3       5 GLY6        0.0000 
     50 CA          7.0700  -51.0100   40.7300 C.3       5 GLY6        0.0000 
     51 CA          5.9300  -49.8400   39.3800 C.3       5 GLY6        0.0000 
     52 CA          7.3800  -50.2200   39.4900 C.3       5 GLY6        0.0000 
     53 CA          4.5600  -45.1600   32.9400 C.3       5 GLY6        0.0000 
     54 CA          7.3300  -49.7900   41.5700 C.3       5 GLY6        0.0000 
     55 CA          4.7400  -48.2400   40.0900 C.3       5 GLY6        0.0000 
     56 CA          6.1900  -48.6200   40.2100 C.3       5 GLY6        0.0000 
     57 CA          7.6300  -49.0000   40.3300 C.3       5 GLY6        0.0000 
     58 CA          6.4900  -47.8400   38.9700 C.3       5 GLY6        0.0000 
     59 CA          6.8000  -47.0500   37.7300 C.3       5 GLY6        0.0000 
     60 CA          8.2400  -47.4300   37.8400 C.3       5 GLY6        0.0000 
     61 CA          4.9900  -47.0200   40.9300 C.3       5 GLY6        0.0000 
     62 CA          3.8500  -45.8600   39.5700 C.3       5 GLY6        0.0000 
     63 CA          5.3000  -46.2400   39.6900 C.3       5 GLY6        0.0000 
     64 CA          6.7400  -46.6200   39.8000 C.3       5 GLY6        0.0000 
     65 CA          7.0500  -45.8300   38.5600 C.3       5 GLY6        0.0000 
     66 CA          8.8000  -45.4300   37.4400 C.3       5 GLY6        0.0000 
     67 CA          4.1100  -44.6400   40.4100 C.3       5 GLY6        0.0000 
     68 DU          8.2900  -47.8700   35.7700 H         6 CUB7        0.0000 
     69 DU          8.6000  -47.0800   34.5300 H         6 CUB7        0.0000 
     70 DU          5.3500  -46.6700   37.6100 H         6 CUB7        0.0000 
     71 DU          5.6500  -45.8900   36.3700 H         6 CUB7        0.0000 
     72 DU          7.1000  -46.2700   36.4900 H         6 CUB7        0.0000 
     73 DU          7.4100  -45.4800   35.2400 H         6 CUB7        0.0000 
     74 DU          4.1600  -45.0700   38.3300 H         6 CUB7        0.0000 
     75 DU          5.6000  -45.4500   38.4500 H         6 CUB7        0.0000 
@<TRIPOS>BOND
@<TRIPOS>SUBSTRUCTURE
     1 SER1        1 GROUP   
     2 ALA2        3 GROUP   
     3 LYS4       32 GROUP   
     4 PHE5       36 GROUP   
     5 GLY6       43 GROUP   
     6 CUB7       68 GROUP   
@<TRIPOS>SET

