#    Name: 6v33_1_0FX
#    Modification time : Fri May 22 19:27:40 2020

@<TRIPOS>MOLECULE
6v33_1_0FX
   35    37     1     0     0
SMALL
NO_CHARGES


@<TRIPOS>ATOM
      1 O4P         9.3940  -46.7360   27.4360 O.co2     1 0FX301      0.0000 
      2 P2          7.8360  -46.7730   27.2280 P.3       1 0FX301      0.0000 
      3 O3P         7.4290  -48.1870   26.7420 O.co2     1 0FX301      0.0000 
      4 O1G         7.2420  -46.1750   28.5650 O.3       1 0FX301      0.0000 
      5 C1G         6.5170  -47.1170   29.3990 C.3       1 0FX301      0.0000 
      6 C2G         5.4730  -46.3300   30.1150 C.3       1 0FX301      0.0000 
      7 O2G         4.6640  -45.7080   29.1040 O.3       1 0FX301      0.0000 
      8 C3G         6.1570  -45.3530   31.0850 C.3       1 0FX301      0.0000 
      9 O3G         5.1990  -44.5780   31.8290 O.3       1 0FX301      0.0000 
     10 C4G         7.1030  -46.0670   32.0660 C.3       1 0FX301      0.0000 
     11 N4A         7.7160  -44.9880   32.8930 N.4       1 0FX301      0.0000 
     12 C5G         8.0980  -46.8750   31.2450 C.3       1 0FX301      0.0000 
     13 C6G         9.0910  -47.7620   32.0100 C.3       1 0FX301      0.0000 
     14 O5G         7.3530  -47.7430   30.3740 O.3       1 0FX301      0.0000 
     15 OPP         7.3060  -45.7070   26.1140 O.3       1 0FX301      0.0000 
     16 P           7.1270  -44.2060   26.4470 P.3       1 0FX301      0.0000 
     17 O1P         6.1360  -43.9040   27.5000 O.co2     1 0FX301      0.0000 
     18 O2P         6.8000  -43.4410   25.1320 O.co2     1 0FX301      0.0000 
     19 O5          8.4850  -43.4910   26.8920 O.3       1 0FX301      0.0000 
     20 C5          9.6330  -43.9280   26.1690 C.3       1 0FX301      0.0000 
     21 C4         10.5310  -42.7300   26.0960 C.3       1 0FX301      0.0000 
     22 O4          9.9240  -41.7290   25.2640 O.3       1 0FX301      0.0000 
     23 C3         10.8240  -42.0570   27.4300 C.3       1 0FX301      0.0000 
     24 O3         11.9100  -42.5830   28.2050 O.3       1 0FX301      0.0000 
     25 C2         11.1040  -40.6020   26.9980 C.3       1 0FX301      0.0000 
     26 C1         10.2580  -40.4350   25.7450 C.3       1 0FX301      0.0000 
     27 N11         9.0160  -39.7200   26.0120 N.am      1 0FX301      0.0000 
     28 C61         7.8270  -40.3550   26.2170 C.2       1 0FX301      0.0000 
     29 C51         6.6680  -39.5530   26.4440 C.2       1 0FX301      0.0000 
     30 C5A         5.2990  -40.1430   26.7040 C.3       1 0FX301      0.0000 
     31 C21         9.0870  -38.3620   25.9980 C.2       1 0FX301      0.0000 
     32 O21        10.2670  -37.7530   25.7600 O.2       1 0FX301      0.0000 
     33 N31         8.0320  -37.5590   26.2510 N.am      1 0FX301      0.0000 
     34 C41         6.8300  -38.1730   26.3800 C.2       1 0FX301      0.0000 
     35 O41         5.8130  -37.3690   26.6040 O.2       1 0FX301      0.0000 
@<TRIPOS>BOND
     1    1    2 ar   
     2    2    3 ar   
     3    2    4 1    
     4    2   15 1    
     5    4    5 1    
     6    5    6 1    
     7    5   14 1    
     8    6    7 1    
     9    6    8 1    
    10    8    9 1    
    11    8   10 1    
    12   10   11 1    
    13   10   12 1    
    14   12   13 1    
    15   12   14 1    
    16   15   16 1    
    17   16   17 ar   
    18   16   18 ar   
    19   16   19 1    
    20   19   20 1    
    21   20   21 1    
    22   21   22 1    
    23   21   23 1    
    24   22   26 1    
    25   23   24 1    
    26   23   25 1    
    27   25   26 1    
    28   26   27 1    
    29   27   28 1    
    30   27   31 1    
    31   28   29 2    
    32   29   30 1    
    33   29   34 1    
    34   31   32 2    
    35   31   33 1    
    36   33   34 1    
    37   34   35 2    
@<TRIPOS>SUBSTRUCTURE
     1 0FX301      1 GROUP   
@<TRIPOS>SET

