#    Name: 6v33_1_0FX_CAVITY_N1_ALL
#    Modification time : Fri May 22 19:27:41 2020

@<TRIPOS>MOLECULE
6v33_1_0FX_CAVITY_N1_ALL
   76     0     7     0     0
SMALL
NO_CHARGES


@<TRIPOS>ATOM
      1 OG          7.9100  -46.4400   25.7000 O.3       1 SER1        0.0000 
      2 OG          9.0100  -47.1700   29.1300 O.3       1 SER1        0.0000 
      3 OG          9.3100  -46.3800   27.8900 O.3       1 SER1        0.0000 
      4 OG          5.8600  -44.2300   39.2800 O.3       1 SER1        0.0000 
      5 OG          4.6600  -42.6300   40.0000 O.3       1 SER1        0.0000 
      6 N           5.8600  -47.6300   28.0700 N.am      2 ALA2        0.0000 
      7 O           7.6100  -47.2200   26.9400 O.2       2 ALA2        0.0000 
      8 N           5.8100  -47.1900   30.1400 N.am      2 ALA2        0.0000 
      9 N           5.7600  -46.7600   32.2200 N.am      2 ALA2        0.0000 
     10 N           7.2000  -47.1400   32.3400 N.am      2 ALA2        0.0000 
     11 N           5.0900  -47.8900   36.7800 N.am      2 ALA2        0.0000 
     12 N           6.5400  -48.2700   36.8900 N.am      2 ALA2        0.0000 
     13 N           5.4000  -47.1100   35.5400 N.am      2 ALA2        0.0000 
     14 N           6.8500  -47.4900   35.6500 N.am      2 ALA2        0.0000 
     15 N           5.7000  -46.3200   34.3000 N.am      2 ALA2        0.0000 
     16 N           7.1500  -46.7000   34.4100 N.am      2 ALA2        0.0000 
     17 N           3.9000  -46.2900   37.5000 N.am      2 ALA2        0.0000 
     18 N           4.2100  -45.5100   36.2600 N.am      2 ALA2        0.0000 
     19 N           3.0700  -44.3400   34.9000 N.am      2 ALA2        0.0000 
     20 N           8.8500  -45.8600   35.3600 N.am      2 ALA2        0.0000 
     21 N           2.7100  -44.6900   38.2200 N.am      2 ALA2        0.0000 
     22 O           5.9100  -44.6700   37.2100 O.2       2 ALA2        0.0000 
     23 O           7.3500  -45.0500   37.3200 O.2       2 ALA2        0.0000 
     24 O           7.6600  -44.2600   36.0800 O.2       2 ALA2        0.0000 
     25 O           4.4100  -43.8500   39.1700 O.2       2 ALA2        0.0000 
     26 O           4.7200  -43.0700   37.9200 O.2       2 ALA2        0.0000 
     27 O           7.6100  -43.8300   38.1500 O.2       2 ALA2        0.0000 
     28 OD1         6.1100  -46.4100   28.9000 O.co2     3 ASP3        0.0000 
     29 OD1         4.9700  -45.2400   27.5500 O.co2     3 ASP3        0.0000 
     30 OD1         5.2800  -44.4600   26.3100 O.co2     3 ASP3        0.0000 
     31 OD1         4.9200  -44.8100   29.6200 O.co2     3 ASP3        0.0000 
     32 NZ          8.5500  -46.6500   36.6000 N.4       4 LYS4        0.0000 
     33 CZ          8.1200  -44.7800   28.6100 C.ar      5 PHE5        0.0000 
     34 CZ          6.0100  -45.5400   33.0500 C.ar      5 PHE5        0.0000 
     35 CZ          4.8700  -44.3700   31.7000 C.ar      5 PHE5        0.0000 
     36 CZ          6.3100  -44.7500   31.8100 C.ar      5 PHE5        0.0000 
     37 CZ          6.6200  -43.9700   30.5700 C.ar      5 PHE5        0.0000 
     38 CZ          4.5100  -44.7200   35.0100 C.ar      5 PHE5        0.0000 
     39 CZ          5.9600  -45.1000   35.1300 C.ar      5 PHE5        0.0000 
     40 CZ          6.2600  -44.3200   33.8900 C.ar      5 PHE5        0.0000 
     41 CZ          7.7100  -44.7000   34.0000 C.ar      5 PHE5        0.0000 
     42 CZ          3.0100  -43.9100   36.9700 C.ar      5 PHE5        0.0000 
     43 CZ          4.4600  -44.2900   37.0900 C.ar      5 PHE5        0.0000 
     44 CZ          3.2700  -42.6900   37.8100 C.ar      5 PHE5        0.0000 
     45 CA          7.3000  -48.0100   28.1800 C.3       6 GLY6        0.0000 
     46 CA          6.9500  -48.3600   31.5000 C.3       6 GLY6        0.0000 
     47 CA          7.2500  -47.5700   30.2600 C.3       6 GLY6        0.0000 
     48 CA          8.7000  -47.9500   30.3700 C.3       6 GLY6        0.0000 
     49 CA          7.5600  -46.7900   29.0200 C.3       6 GLY6        0.0000 
     50 CA          8.6500  -47.5200   32.4500 C.3       6 GLY6        0.0000 
     51 CA          4.6100  -45.5900   30.8600 C.3       6 GLY6        0.0000 
     52 CA          6.0600  -45.9700   30.9800 C.3       6 GLY6        0.0000 
     53 CA          3.1200  -44.7800   32.8200 C.3       6 GLY6        0.0000 
     54 CA          4.5600  -45.1600   32.9400 C.3       6 GLY6        0.0000 
     55 CA          6.8000  -47.0500   37.7300 C.3       6 GLY6        0.0000 
     56 CA          8.2400  -47.4300   37.8400 C.3       6 GLY6        0.0000 
     57 CA          7.0500  -45.8300   38.5600 C.3       6 GLY6        0.0000 
     58 CA          8.8000  -45.4300   37.4400 C.3       6 GLY6        0.0000 
     59 CA          9.1100  -44.6400   36.1900 C.3       6 GLY6        0.0000 
     60 DU          6.4200  -45.6200   27.6600 H         7 CUB7        0.0000 
     61 DU          7.8600  -46.0000   27.7800 H         7 CUB7        0.0000 
     62 DU          6.7200  -44.8400   26.4200 H         7 CUB7        0.0000 
     63 DU          7.5100  -46.3500   31.0900 H         7 CUB7        0.0000 
     64 DU          6.3700  -45.1900   29.7400 H         7 CUB7        0.0000 
     65 DU          7.8100  -45.5700   29.8500 H         7 CUB7        0.0000 
     66 DU          6.6700  -44.4000   28.5000 H         7 CUB7        0.0000 
     67 DU          8.2900  -47.8700   35.7700 H         7 CUB7        0.0000 
     68 DU          8.6000  -47.0800   34.5300 H         7 CUB7        0.0000 
     69 DU          7.4600  -45.9200   33.1700 H         7 CUB7        0.0000 
     70 DU          7.7600  -45.1300   31.9300 H         7 CUB7        0.0000 
     71 DU          5.3500  -46.6700   37.6100 H         7 CUB7        0.0000 
     72 DU          5.6500  -45.8900   36.3700 H         7 CUB7        0.0000 
     73 DU          7.1000  -46.2700   36.4900 H         7 CUB7        0.0000 
     74 DU          7.4100  -45.4800   35.2400 H         7 CUB7        0.0000 
     75 DU          4.1600  -45.0700   38.3300 H         7 CUB7        0.0000 
     76 DU          5.6000  -45.4500   38.4500 H         7 CUB7        0.0000 
@<TRIPOS>BOND
@<TRIPOS>SUBSTRUCTURE
     1 SER1        1 GROUP   
     2 ALA2        6 GROUP   
     3 ASP3       28 GROUP   
     4 LYS4       32 GROUP   
     5 PHE5       33 GROUP   
     6 GLY6       45 GROUP   
     7 CUB7       60 GROUP   
@<TRIPOS>SET

