#    Name: 6v33_3_0FX_CAVITY_N1_4
#    Modification time : Fri May 22 19:27:47 2020

@<TRIPOS>MOLECULE
6v33_3_0FX_CAVITY_N1_4
   69     0     7     0     0
SMALL
NO_CHARGES


@<TRIPOS>ATOM
      1 OG         20.7700  -17.0200    0.3300 O.3       1 SER1        0.0000 
      2 OG         21.0200  -15.8000    1.1700 O.3       1 SER1        0.0000 
      3 OG         21.3300  -15.0200   -0.0700 O.3       1 SER1        0.0000 
      4 OG         21.5800  -13.8000    0.7600 O.3       1 SER1        0.0000 
      5 N          23.0800  -14.6100   -1.2000 N.am      2 ALA2        0.0000 
      6 N          25.0800  -12.9800   -1.4900 N.am      2 ALA2        0.0000 
      7 N          25.3400  -11.7600   -0.6600 N.am      2 ALA2        0.0000 
      8 N          26.7800  -12.1400   -0.5400 N.am      2 ALA2        0.0000 
      9 N          29.6800  -12.9000   -0.3100 N.am      2 ALA2        0.0000 
     10 N          24.1400  -10.1600    0.0600 N.am      2 ALA2        0.0000 
     11 N          25.5900  -10.5400    0.1800 N.am      2 ALA2        0.0000 
     12 N          27.0400  -10.9200    0.2900 N.am      2 ALA2        0.0000 
     13 N          24.4500   -9.3800   -1.1800 N.am      2 ALA2        0.0000 
     14 N          24.7500   -8.5900   -2.4200 N.am      2 ALA2        0.0000 
     15 N          25.5400  -10.1100    2.2500 N.am      2 ALA2        0.0000 
     16 N          25.8500   -9.3200    1.0100 N.am      2 ALA2        0.0000 
     17 N          27.2900   -9.7000    1.1300 N.am      2 ALA2        0.0000 
     18 N          23.2600   -7.7800   -0.4600 N.am      2 ALA2        0.0000 
     19 N          24.7000   -8.1600   -0.3400 N.am      2 ALA2        0.0000 
     20 N          26.1500   -8.5400   -0.2300 N.am      2 ALA2        0.0000 
     21 N          25.7900   -8.8900    3.0900 N.am      2 ALA2        0.0000 
     22 OD1        23.9700  -17.0000   -0.6800 O.co2     3 ASP3        0.0000 
     23 OD1        24.2200  -15.7800    0.1600 O.co2     3 ASP3        0.0000 
     24 OD1        24.5200  -14.9900   -1.0800 O.co2     3 ASP3        0.0000 
     25 OD1        25.9700  -15.3700   -0.9700 O.co2     3 ASP3        0.0000 
     26 NZ         24.6500   -7.7200    1.7300 N.4       4 LYS4        0.0000 
     27 NZ         24.9600   -6.9400    0.4900 N.4       4 LYS4        0.0000 
     28 CZ         25.9200  -14.9300    1.1100 C.ar      5 PHE5        0.0000 
     29 CZ         28.8100  -15.6900    1.3400 C.ar      5 PHE5        0.0000 
     30 CZ         29.1200  -14.9100    0.1000 C.ar      5 PHE5        0.0000 
     31 CZ         30.5600  -15.2900    0.2100 C.ar      5 PHE5        0.0000 
     32 CZ         26.1700  -13.7100    1.9400 C.ar      5 PHE5        0.0000 
     33 CZ         22.1400  -11.7900    0.3600 C.ar      5 PHE5        0.0000 
     34 CZ         26.4800  -12.9300    0.7000 C.ar      5 PHE5        0.0000 
     35 CZ         27.9300  -13.3100    0.8200 C.ar      5 PHE5        0.0000 
     36 CZ         26.4300  -12.4900    2.7800 C.ar      5 PHE5        0.0000 
     37 CZ         26.7300  -11.7100    1.5400 C.ar      5 PHE5        0.0000 
     38 CZ         28.1800  -12.0900    1.6500 C.ar      5 PHE5        0.0000 
     39 CZ         26.6800  -11.2700    3.6100 C.ar      5 PHE5        0.0000 
     40 CZ         26.9900  -10.4900    2.3700 C.ar      5 PHE5        0.0000 
     41 CZ         28.7400  -10.0800    1.2400 C.ar      5 PHE5        0.0000 
     42 CA         23.3300  -13.3900   -0.3600 C.3       6 GLY6        0.0000 
     43 CA         26.2300  -14.1500   -0.1300 C.3       6 GLY6        0.0000 
     44 CA         27.6700  -14.5300   -0.0200 C.3       6 GLY6        0.0000 
     45 CA         26.5300  -13.3600   -1.3700 C.3       6 GLY6        0.0000 
     46 CA         23.5900  -12.1700    0.4700 C.3       6 GLY6        0.0000 
     47 CA         23.8900  -11.3800   -0.7700 C.3       6 GLY6        0.0000 
     48 CA         28.2300  -12.5200   -0.4200 C.3       6 GLY6        0.0000 
     49 CA         22.3900  -10.5700    1.1900 C.3       6 GLY6        0.0000 
     50 CA         22.7000   -9.7800   -0.0500 C.3       6 GLY6        0.0000 
     51 CA         28.4800  -11.3000    0.4100 C.3       6 GLY6        0.0000 
     52 CA         23.0000   -9.0000   -1.2900 C.3       6 GLY6        0.0000 
     53 CA         22.9500   -8.5600    0.7800 C.3       6 GLY6        0.0000 
     54 CA         27.2400   -9.2700    3.2000 C.3       6 GLY6        0.0000 
     55 DU         22.2100  -17.4000    0.4500 H         7 CUB7        0.0000 
     56 DU         23.6600  -17.7800    0.5700 H         7 CUB7        0.0000 
     57 DU         22.4700  -16.1800    1.2800 H         7 CUB7        0.0000 
     58 DU         23.9100  -16.5600    1.4000 H         7 CUB7        0.0000 
     59 DU         22.7700  -15.4000    0.0400 H         7 CUB7        0.0000 
     60 DU         23.0300  -14.1800    0.8800 H         7 CUB7        0.0000 
     61 DU         24.4700  -14.5600    0.9900 H         7 CUB7        0.0000 
     62 DU         24.7800  -13.7700   -0.2500 H         7 CUB7        0.0000 
     63 DU         23.2800  -12.9500    1.7100 H         7 CUB7        0.0000 
     64 DU         24.7300  -13.3300    1.8300 H         7 CUB7        0.0000 
     65 DU         25.0300  -12.5500    0.5900 H         7 CUB7        0.0000 
     66 DU         23.8400  -10.9500    1.3000 H         7 CUB7        0.0000 
     67 DU         25.2900  -11.3300    1.4200 H         7 CUB7        0.0000 
     68 DU         24.4000   -8.9400    0.9000 H         7 CUB7        0.0000 
     69 DU         26.1000   -8.1000    1.8500 H         7 CUB7        0.0000 
@<TRIPOS>BOND
@<TRIPOS>SUBSTRUCTURE
     1 SER1        1 GROUP   
     2 ALA2        5 GROUP   
     3 ASP3       22 GROUP   
     4 LYS4       26 GROUP   
     5 PHE5       28 GROUP   
     6 GLY6       42 GROUP   
     7 CUB7       55 GROUP   
@<TRIPOS>SET

