#    Name: 6v33_3_0FX
#    Modification time : Fri May 22 19:27:46 2020

@<TRIPOS>MOLECULE
6v33_3_0FX
   35    37     1     0     0
SMALL
NO_CHARGES


@<TRIPOS>ATOM
      1 O4P        20.4960  -15.0650    0.4410 O.co2     1 0FX301      0.0000 
      2 P2         21.6220  -15.7250   -0.2050 P.3       1 0FX301      0.0000 
      3 O3P        21.4140  -15.9210   -1.6630 O.co2     1 0FX301      0.0000 
      4 O1G        22.9830  -14.9960    0.2240 O.3       1 0FX301      0.0000 
      5 C1G        23.7040  -14.2490   -0.7430 C.3       1 0FX301      0.0000 
      6 C2G        25.1680  -14.6050   -0.5780 C.3       1 0FX301      0.0000 
      7 O2G        25.3420  -16.0000   -0.7800 O.3       1 0FX301      0.0000 
      8 C3G        25.6470  -14.1630    0.7980 C.3       1 0FX301      0.0000 
      9 O3G        27.0200  -14.4350    0.9520 O.3       1 0FX301      0.0000 
     10 C4G        25.4650  -12.6900    0.9200 C.3       1 0FX301      0.0000 
     11 N4A        25.8100  -12.2460    2.2750 N.4       1 0FX301      0.0000 
     12 C5G        24.0140  -12.2880    0.6610 C.3       1 0FX301      0.0000 
     13 C6G        23.9080  -10.7640    0.6740 C.3       1 0FX301      0.0000 
     14 O5G        23.4950  -12.8050   -0.5700 O.3       1 0FX301      0.0000 
     15 OPP        21.7420  -17.2630    0.2090 O.3       1 0FX301      0.0000 
     16 P          22.7550  -17.8720    1.2870 P.3       1 0FX301      0.0000 
     17 O1P        24.2220  -17.6830    1.0150 O.co2     1 0FX301      0.0000 
     18 O2P        22.3900  -19.2930    1.1670 O.co2     1 0FX301      0.0000 
     19 O5         22.4220  -17.1370    2.6600 O.3       1 0FX301      0.0000 
     20 C5         21.0470  -17.2510    2.9980 C.3       1 0FX301      0.0000 
     21 C4         20.8510  -17.4180    4.4690 C.3       1 0FX301      0.0000 
     22 O4         21.1540  -18.8070    4.7860 O.3       1 0FX301      0.0000 
     23 C3         21.6550  -16.5540    5.3980 C.3       1 0FX301      0.0000 
     24 O3         21.0530  -15.3330    5.8500 O.3       1 0FX301      0.0000 
     25 C2         21.8140  -17.4420    6.6200 C.3       1 0FX301      0.0000 
     26 C1         21.7780  -18.8540    6.0500 C.3       1 0FX301      0.0000 
     27 N11        23.1070  -19.5480    6.0020 N.am      1 0FX301      0.0000 
     28 C61        23.8010  -19.6210    4.8470 C.2       1 0FX301      0.0000 
     29 C51        25.0390  -20.2640    4.8060 C.2       1 0FX301      0.0000 
     30 C5A        25.7880  -20.3240    3.4750 C.3       1 0FX301      0.0000 
     31 C21        23.5910  -20.1590    7.1150 C.2       1 0FX301      0.0000 
     32 O21        22.9200  -20.1400    8.2760 O.2       1 0FX301      0.0000 
     33 N31        24.7560  -20.8340    7.1240 N.am      1 0FX301      0.0000 
     34 C41        25.4610  -20.9200    5.9630 C.2       1 0FX301      0.0000 
     35 O41        26.6320  -21.5630    6.0370 O.2       1 0FX301      0.0000 
@<TRIPOS>BOND
     1    1    2 ar   
     2    2    3 ar   
     3    2    4 1    
     4    2   15 1    
     5    4    5 1    
     6    5    6 1    
     7    5   14 1    
     8    6    7 1    
     9    6    8 1    
    10    8    9 1    
    11    8   10 1    
    12   10   11 1    
    13   10   12 1    
    14   12   13 1    
    15   12   14 1    
    16   15   16 1    
    17   16   17 ar   
    18   16   18 ar   
    19   16   19 1    
    20   19   20 1    
    21   20   21 1    
    22   21   22 1    
    23   21   23 1    
    24   22   26 1    
    25   23   24 1    
    26   23   25 1    
    27   25   26 1    
    28   26   27 1    
    29   27   28 1    
    30   27   31 1    
    31   28   29 2    
    32   29   30 1    
    33   29   34 1    
    34   31   32 2    
    35   31   33 1    
    36   33   34 1    
    37   34   35 2    
@<TRIPOS>SUBSTRUCTURE
     1 0FX301      1 GROUP   
@<TRIPOS>SET

