#    Name: 6v33_2_FOL
#    Modification time : Fri May 22 19:27:43 2020

@<TRIPOS>MOLECULE
6v33_2_FOL
   23    25     1     0     0
SMALL
NO_CHARGES


@<TRIPOS>ATOM
      1 N1          5.4210  -51.6160   40.9050 N.pl3     1 FOL302      0.0000 
      2 C2          6.0690  -51.9170   42.0340 C.2       1 FOL302      0.0000 
      3 NA2         5.3180  -52.1780   43.1550 N.pl3     1 FOL302      0.0000 
      4 N3          7.4180  -52.0260   42.0260 N.2       1 FOL302      0.0000 
      5 C4          8.1600  -51.7690   40.9050 C.2       1 FOL302      0.0000 
      6 O4          9.4340  -51.8720   40.9690 O.2       1 FOL302      0.0000 
      7 C4A         7.4660  -51.4210   39.7240 C.ar      1 FOL302      0.0000 
      8 N5          8.1200  -51.1330   38.5740 N.ar      1 FOL302      0.0000 
      9 C6          7.4170  -50.5180   37.4380 C.ar      1 FOL302      0.0000 
     10 C7          5.9740  -51.0740   37.2980 C.ar      1 FOL302      0.0000 
     11 N8          5.3160  -51.0300   38.6420 N.ar      1 FOL302      0.0000 
     12 C8A         6.0550  -51.3270   39.7530 C.ar      1 FOL302      0.0000 
     13 C9          7.5350  -48.9890   37.6050 C.3       1 FOL302      0.0000 
     14 N10         6.5450  -48.2080   36.8150 N.pl3     1 FOL302      0.0000 
     15 C11         3.9220  -45.3960   38.4880 C.ar      1 FOL302      0.0000 
     16 C12         3.8950  -45.6770   37.1190 C.ar      1 FOL302      0.0000 
     17 C13         4.7710  -46.6240   36.5650 C.ar      1 FOL302      0.0000 
     18 C14         5.6960  -47.2860   37.3630 C.ar      1 FOL302      0.0000 
     19 C15         5.7090  -46.9780   38.7300 C.ar      1 FOL302      0.0000 
     20 C16         4.8440  -46.0470   39.2710 C.ar      1 FOL302      0.0000 
     21 C           3.0600  -44.3650   39.1720 C.2       1 FOL302      0.0000 
     22 O           3.5750  -43.2410   39.2800 O.2       1 FOL302      0.0000 
     23 N           1.8400  -44.6590   39.6560 N.am      1 FOL302      0.0000 
@<TRIPOS>BOND
     1    1    2 1    
     2    1   12 1    
     3    2    3 1    
     4    2    4 2    
     5    4    5 1    
     6    5    6 2    
     7    5    7 1    
     8    7    8 ar   
     9    7   12 ar   
    10    8    9 ar   
    11    9   10 ar   
    12    9   13 1    
    13   10   11 ar   
    14   11   12 ar   
    15   13   14 1    
    16   14   18 1    
    17   15   16 ar   
    18   15   20 ar   
    19   15   21 1    
    20   16   17 ar   
    21   17   18 ar   
    22   18   19 ar   
    23   19   20 ar   
    24   21   22 2    
    25   21   23 am   
@<TRIPOS>SUBSTRUCTURE
     1 FOL302      1 GROUP   
@<TRIPOS>SET

