#    Name: 6ui9_2_ACO
#    Modification time : Fri May 22 19:33:31 2020

@<TRIPOS>MOLECULE
6ui9_2_ACO
   51    53     1     0     1
SMALL
NO_CHARGES


@<TRIPOS>ATOM
      1 N1A       -13.2920   17.2180   24.6900 N.ar      1 ACO1202     0.0000 
      2 C2A       -13.7090   17.5390   25.9260 C.ar      1 ACO1202     0.0000 
      3 N3A       -13.3660   18.6750   26.5560 N.ar      1 ACO1202     0.0000 
      4 C4A       -12.5580   19.5820   25.9600 C.ar      1 ACO1202     0.0000 
      5 C5A       -12.0600   19.3030   24.6070 C.ar      1 ACO1202     0.0000 
      6 C6A       -12.4820   18.0310   23.9800 C.ar      1 ACO1202     0.0000 
      7 N6A       -12.0700   17.6940   22.7360 N.pl3     1 ACO1202     0.0000 
      8 N7A       -11.2900   20.3490   24.2570 N.2       1 ACO1202     0.0000 
      9 C8A       -11.2950   21.2230   25.2950 C.2       1 ACO1202     0.0000 
     10 N9A       -12.0510   20.7650   26.3100 N.pl3     1 ACO1202     0.0000 
     11 C1B       -12.2850   21.4530   27.6030 C.3       1 ACO1202     0.0000 
     12 C2B       -11.0210   22.1700   28.0480 C.3       1 ACO1202     0.0000 
     13 O2B       -10.4420   21.4790   29.1640 O.3       1 ACO1202     0.0000 
     14 C3B       -11.4430   23.6030   28.3580 C.3       1 ACO1202     0.0000 
     15 O3B       -11.2390   23.9880   29.7200 O.3       1 ACO1202     0.0000 
     16 P3B       -12.0590   23.2810   30.9100 P.3       1 ACO1202     0.0000 
     17 O7A       -13.2290   24.2050   31.1450 O.co2     1 ACO1202     0.0000 
     18 O8A       -12.4340   21.9350   30.3410 O.co2     1 ACO1202     0.0000 
     19 O9A       -11.0700   23.2230   32.0480 O.co2     1 ACO1202     0.0000 
     20 C4B       -12.9230   23.6880   28.0170 C.3       1 ACO1202     0.0000 
     21 O4B       -13.3110   22.4350   27.4520 O.3       1 ACO1202     0.0000 
     22 C5B       -13.2040   24.8060   27.0230 C.3       1 ACO1202     0.0000 
     23 O5B       -12.6550   26.0220   27.5270 O.3       1 ACO1202     0.0000 
     24 P1A       -11.2550   26.5850   26.9670 P.3       1 ACO1202     0.0000 
     25 O1A       -11.3260   26.6110   25.4590 O.co2     1 ACO1202     0.0000 
     26 O2A       -10.1260   25.8570   27.6550 O.co2     1 ACO1202     0.0000 
     27 O3A       -11.2600   28.1040   27.4970 O.3       1 ACO1202     0.0000 
     28 P2A       -11.6560   29.2970   26.4960 P.3       1 ACO1202     0.0000 
     29 O4A       -10.8740   29.1130   25.2190 O.co2     1 ACO1202     0.0000 
     30 O5A       -13.1620   29.3900   26.4500 O.co2     1 ACO1202     0.0000 
     31 O6A       -11.0880   30.5980   27.2540 O.3       1 ACO1202     0.0000 
     32 CBP       -11.8970   32.6470   28.2210 C.3       1 ACO1202     0.0000 
     33 CCP       -11.5910   31.8930   26.9350 C.3       1 ACO1202     0.0000 
     34 CDP       -10.6090   33.2070   28.8020 C.3       1 ACO1202     0.0000 
     35 CEP       -12.5590   31.7130   29.2240 C.3       1 ACO1202     0.0000 
     36 CAP       -12.8470   33.7980   27.9160 C.3       1 ACO1202     0.0000 
     37 OAP       -13.3310   34.3380   29.1530 O.3       1 ACO1202     0.0000 
     38 C9P       -12.1160   34.8420   27.1180 C.2       1 ACO1202     0.0000 
     39 O9P       -11.2910   34.5010   26.2880 O.2       1 ACO1202     0.0000 
     40 N8P       -12.4030   36.1210   27.3540 N.am      1 ACO1202     0.0000 
     41 C7P       -13.7460   36.5650   27.6760 C.3       1 ACO1202     0.0000 
     42 C6P       -13.7810   37.3910   28.9570 C.3       1 ACO1202     0.0000 
     43 C5P       -12.7210   38.4670   28.9000 C.2       1 ACO1202     0.0000 
     44 O5P       -11.5410   38.1720   28.8060 O.2       1 ACO1202     0.0000 
     45 N4P       -13.1490   39.7240   28.9590 N.am      1 ACO1202     0.0000 
     46 C3P       -14.4000   40.1310   28.3460 C.3       1 ACO1202     0.0000 
     47 C2P       -14.1960   40.6780   26.9390 C.3       1 ACO1202     0.0000 
     48 S1P       -13.0820   42.0420   26.9930 S.3       1 ACO1202     0.0000 
     49 C         -12.9800   42.3970   25.3690 C.2       1 ACO1202     0.0000 
     50 O         -12.7040   41.5040   24.5850 O.2       1 ACO1202     0.0000 
     51 CH3       -13.2300   43.8040   24.9140 C.3       1 ACO1202     0.0000 
@<TRIPOS>BOND
     1    1    2 ar   
     2    1    6 ar   
     3    2    3 ar   
     4    3    4 ar   
     5    4    5 ar   
     6    4   10 1    
     7    5    6 ar   
     8    5    8 1    
     9    6    7 1    
    10    8    9 2    
    11    9   10 1    
    12   10   11 1    
    13   11   12 1    
    14   11   21 1    
    15   12   13 1    
    16   12   14 1    
    17   14   15 1    
    18   14   20 1    
    19   15   16 1    
    20   16   17 ar   
    21   16   18 ar   
    22   16   19 ar   
    23   20   21 1    
    24   20   22 1    
    25   22   23 1    
    26   23   24 1    
    27   24   25 ar   
    28   24   26 ar   
    29   24   27 1    
    30   27   28 1    
    31   28   29 ar   
    32   28   30 ar   
    33   28   31 1    
    34   31   33 1    
    35   32   33 1    
    36   32   34 1    
    37   32   35 1    
    38   32   36 1    
    39   36   37 1    
    40   36   38 1    
    41   38   39 2    
    42   38   40 am   
    43   40   41 1    
    44   41   42 1    
    45   42   43 1    
    46   43   44 2    
    47   43   45 am   
    48   45   46 1    
    49   46   47 1    
    50   47   48 1    
    51   48   49 1    
    52   49   50 2    
    53   49   51 1    
@<TRIPOS>SUBSTRUCTURE
     1 ACO1202     1 GROUP   
@<TRIPOS>SET
ATOM$ORANGE STATIC     ATOMS   COLORGROUP SYSTEM 
46 2 2 4 4 5 5 6 6 9 9 11 11 12 12 14 14 20 \
20 22 22 32 32 33 33 34 34 35 35 36 36 38 38 41 41 42 \
42 43 43 46 46 47 47 49 49 51 51 

