#    Name: 6ui9_3_ACO
#    Modification time : Fri May 22 19:33:43 2020

@<TRIPOS>MOLECULE
6ui9_3_ACO
   51    53     1     0     1
SMALL
NO_CHARGES


@<TRIPOS>ATOM
      1 N1A        13.1010  -17.1980   24.2900 N.ar      1 ACO1201     0.0000 
      2 C2A        13.3420  -17.3460   25.6050 C.ar      1 ACO1201     0.0000 
      3 N3A        13.0910  -18.4760   26.2860 N.ar      1 ACO1201     0.0000 
      4 C4A        12.5670  -19.5580   25.6650 C.ar      1 ACO1201     0.0000 
      5 C5A        12.2750  -19.4750   24.2290 C.ar      1 ACO1201     0.0000 
      6 C6A        12.5780  -18.1980   23.5470 C.ar      1 ACO1201     0.0000 
      7 N6A        12.3390  -18.0360   22.2240 N.pl3     1 ACO1201     0.0000 
      8 N7A        11.7690  -20.6690   23.8700 N.2       1 ACO1201     0.0000 
      9 C8A        11.7390  -21.4490   24.9810 C.2       1 ACO1201     0.0000 
     10 N9A        12.2140  -20.7850   26.0490 N.pl3     1 ACO1201     0.0000 
     11 C1B        12.3330  -21.3170   27.4260 C.3       1 ACO1201     0.0000 
     12 C2B        11.0020  -21.8600   27.9130 C.3       1 ACO1201     0.0000 
     13 O2B        10.2330  -20.8340   28.5570 O.3       1 ACO1201     0.0000 
     14 C3B        11.3930  -22.9950   28.8430 C.3       1 ACO1201     0.0000 
     15 O3B        11.5150  -22.5480   30.1920 O.3       1 ACO1201     0.0000 
     16 P3B        11.9050  -23.5520   31.3840 P.3       1 ACO1201     0.0000 
     17 O7A        13.1500  -24.2490   30.8940 O.co2     1 ACO1201     0.0000 
     18 O8A        12.1280  -22.6360   32.5620 O.co2     1 ACO1201     0.0000 
     19 O9A        10.6990  -24.4480   31.5120 O.co2     1 ACO1201     0.0000 
     20 C4B        12.7610  -23.4350   28.3450 C.3       1 ACO1201     0.0000 
     21 O4B        13.2430  -22.4150   27.4640 O.3       1 ACO1201     0.0000 
     22 C5B        12.6950  -24.7610   27.5980 C.3       1 ACO1201     0.0000 
     23 O5B        11.4510  -24.8780   26.9120 O.3       1 ACO1201     0.0000 
     24 P1A        10.8240  -26.3270   26.6020 P.3       1 ACO1201     0.0000 
     25 O1A        10.6380  -26.4450   25.1090 O.co2     1 ACO1201     0.0000 
     26 O2A         9.6490  -26.5400   27.5250 O.co2     1 ACO1201     0.0000 
     27 O3A        12.0100  -27.3150   27.0560 O.3       1 ACO1201     0.0000 
     28 P2A        12.1640  -28.7850   26.4240 P.3       1 ACO1201     0.0000 
     29 O4A        11.7840  -28.7200   24.9650 O.co2     1 ACO1201     0.0000 
     30 O5A        13.5150  -29.3230   26.8240 O.co2     1 ACO1201     0.0000 
     31 O6A        11.0370  -29.6260   27.2060 O.3       1 ACO1201     0.0000 
     32 CBP        10.6160  -31.9950   27.3170 C.3       1 ACO1201     0.0000 
     33 CCP        10.3510  -30.7000   26.5640 C.3       1 ACO1201     0.0000 
     34 CDP         9.5820  -33.0430   26.9330 C.3       1 ACO1201     0.0000 
     35 CEP        10.5630  -31.7420   28.8150 C.3       1 ACO1201     0.0000 
     36 CAP        12.0010  -32.5100   26.9490 C.3       1 ACO1201     0.0000 
     37 OAP        12.9260  -31.4170   26.9420 O.3       1 ACO1201     0.0000 
     38 C9P        12.4350  -33.5350   27.9540 C.2       1 ACO1201     0.0000 
     39 O9P        13.0320  -33.2000   28.9640 O.2       1 ACO1201     0.0000 
     40 N8P        12.1350  -34.8000   27.6780 N.am      1 ACO1201     0.0000 
     41 C7P        13.1520  -35.7570   27.2840 C.3       1 ACO1201     0.0000 
     42 C6P        13.5160  -36.7080   28.4170 C.3       1 ACO1201     0.0000 
     43 C5P        12.5940  -37.9040   28.3920 C.2       1 ACO1201     0.0000 
     44 O5P        11.5000  -37.8310   27.8590 O.2       1 ACO1201     0.0000 
     45 N4P        13.0410  -39.0140   28.9740 N.am      1 ACO1201     0.0000 
     46 C3P        12.4500  -40.3060   28.6860 C.3       1 ACO1201     0.0000 
     47 C2P        13.3450  -41.1540   27.7890 C.3       1 ACO1201     0.0000 
     48 S1P        12.4580  -42.5770   27.2460 S.3       1 ACO1201     0.0000 
     49 C          13.4370  -43.0710   25.9920 C.2       1 ACO1201     0.0000 
     50 O          14.4130  -43.7590   26.2390 O.2       1 ACO1201     0.0000 
     51 CH3        13.0920  -42.6560   24.5930 C.3       1 ACO1201     0.0000 
@<TRIPOS>BOND
     1    1    2 ar   
     2    1    6 ar   
     3    2    3 ar   
     4    3    4 ar   
     5    4    5 ar   
     6    4   10 1    
     7    5    6 ar   
     8    5    8 1    
     9    6    7 1    
    10    8    9 2    
    11    9   10 1    
    12   10   11 1    
    13   11   12 1    
    14   11   21 1    
    15   12   13 1    
    16   12   14 1    
    17   14   15 1    
    18   14   20 1    
    19   15   16 1    
    20   16   17 ar   
    21   16   18 ar   
    22   16   19 ar   
    23   20   21 1    
    24   20   22 1    
    25   22   23 1    
    26   23   24 1    
    27   24   25 ar   
    28   24   26 ar   
    29   24   27 1    
    30   27   28 1    
    31   28   29 ar   
    32   28   30 ar   
    33   28   31 1    
    34   31   33 1    
    35   32   33 1    
    36   32   34 1    
    37   32   35 1    
    38   32   36 1    
    39   36   37 1    
    40   36   38 1    
    41   38   39 2    
    42   38   40 am   
    43   40   41 1    
    44   41   42 1    
    45   42   43 1    
    46   43   44 2    
    47   43   45 am   
    48   45   46 1    
    49   46   47 1    
    50   47   48 1    
    51   48   49 1    
    52   49   50 2    
    53   49   51 1    
@<TRIPOS>SUBSTRUCTURE
     1 ACO1201     1 GROUP   
@<TRIPOS>SET
ATOM$ORANGE STATIC     ATOMS   COLORGROUP SYSTEM 
46 2 2 4 4 5 5 6 6 9 9 11 11 12 12 14 14 20 \
20 22 22 32 32 33 33 34 34 35 35 36 36 38 38 41 41 42 \
42 43 43 46 46 47 47 49 49 51 51 

