#    Name: 6ui9_1_ACO
#    Modification time : Fri May 22 19:33:17 2020

@<TRIPOS>MOLECULE
6ui9_1_ACO
   51    53     1     0     1
SMALL
NO_CHARGES


@<TRIPOS>ATOM
      1 N1A       -13.2960  -17.2280  -24.7590 N.ar      1 ACO1201     0.0000 
      2 C2A       -13.7260  -17.4450  -26.0090 C.ar      1 ACO1201     0.0000 
      3 N3A       -13.4530  -18.6190  -26.5880 N.ar      1 ACO1201     0.0000 
      4 C4A       -12.7660  -19.5560  -25.9340 C.ar      1 ACO1201     0.0000 
      5 C5A       -12.3460  -19.3380  -24.7020 C.ar      1 ACO1201     0.0000 
      6 C6A       -12.6220  -18.1520  -24.1190 C.ar      1 ACO1201     0.0000 
      7 N6A       -12.3600  -17.5320  -22.8570 N.pl3     1 ACO1201     0.0000 
      8 N7A       -11.6810  -20.4360  -24.2700 N.2       1 ACO1201     0.0000 
      9 C8A       -11.6990  -21.3300  -25.2430 C.2       1 ACO1201     0.0000 
     10 N9A       -12.3680  -20.7870  -26.2790 N.pl3     1 ACO1201     0.0000 
     11 C1B       -12.5810  -21.5050  -27.4950 C.3       1 ACO1201     0.0000 
     12 C2B       -11.4650  -21.9920  -27.9740 C.3       1 ACO1201     0.0000 
     13 O2B       -10.7890  -20.9900  -28.8110 O.3       1 ACO1201     0.0000 
     14 C3B       -11.9730  -23.1460  -28.8410 C.3       1 ACO1201     0.0000 
     15 O3B       -12.3790  -22.6350  -30.0020 O.3       1 ACO1201     0.0000 
     16 P3B       -11.7460  -23.2050  -31.4430 P.3       1 ACO1201     0.0000 
     17 O7A       -11.8890  -24.6990  -31.4320 O.co2     1 ACO1201     0.0000 
     18 O8A       -12.5150  -22.6350  -32.6090 O.co2     1 ACO1201     0.0000 
     19 O9A       -10.3070  -22.8160  -31.5730 O.co2     1 ACO1201     0.0000 
     20 C4B       -13.2410  -23.6800  -28.0750 C.3       1 ACO1201     0.0000 
     21 O4B       -13.4650  -22.8380  -27.1330 O.3       1 ACO1201     0.0000 
     22 C5B       -12.9840  -25.0680  -27.4990 C.3       1 ACO1201     0.0000 
     23 O5B       -11.7990  -25.0450  -26.7240 O.3       1 ACO1201     0.0000 
     24 P1A       -10.8870  -26.4270  -26.7340 P.3       1 ACO1201     0.0000 
     25 O1A       -10.3320  -26.7070  -25.3460 O.co2     1 ACO1201     0.0000 
     26 O2A        -9.7420  -26.2880  -27.7380 O.co2     1 ACO1201     0.0000 
     27 O3A       -11.9300  -27.6410  -27.2460 O.3       1 ACO1201     0.0000 
     28 P2A       -12.2250  -29.0920  -26.5190 P.3       1 ACO1201     0.0000 
     29 O4A       -11.9180  -29.0450  -25.0670 O.co2     1 ACO1201     0.0000 
     30 O5A       -13.6850  -29.4440  -26.6950 O.co2     1 ACO1201     0.0000 
     31 O6A       -11.3130  -30.2490  -27.2930 O.3       1 ACO1201     0.0000 
     32 CBP       -10.6370  -32.5520  -27.1900 C.3       1 ACO1201     0.0000 
     33 CCP       -10.4820  -31.1310  -26.5670 C.3       1 ACO1201     0.0000 
     34 CDP        -9.8350  -33.5440  -26.3700 C.3       1 ACO1201     0.0000 
     35 CEP       -10.1370  -32.5150  -28.6570 C.3       1 ACO1201     0.0000 
     36 CAP       -12.1450  -32.8320  -27.2160 C.3       1 ACO1201     0.0000 
     37 OAP       -12.6840  -31.9080  -28.1050 O.3       1 ACO1201     0.0000 
     38 C9P       -12.6220  -34.2100  -27.7420 C.2       1 ACO1201     0.0000 
     39 O9P       -13.1470  -34.2270  -28.8300 O.2       1 ACO1201     0.0000 
     40 N8P       -12.5090  -35.4620  -26.9350 N.am      1 ACO1201     0.0000 
     41 C7P       -12.9980  -36.7850  -27.4120 C.3       1 ACO1201     0.0000 
     42 C6P       -12.2710  -37.3150  -28.6500 C.3       1 ACO1201     0.0000 
     43 C5P       -12.1940  -38.8670  -28.6390 C.2       1 ACO1201     0.0000 
     44 O5P       -11.1780  -39.3790  -28.4080 O.2       1 ACO1201     0.0000 
     45 N4P       -13.3610  -39.6830  -28.9210 N.am      1 ACO1201     0.0000 
     46 C3P       -13.2240  -41.1920  -28.8770 C.3       1 ACO1201     0.0000 
     47 C2P       -13.5100  -41.5970  -27.4290 C.3       1 ACO1201     0.0000 
     48 S1P       -12.7600  -43.1860  -27.0040 S.3       1 ACO1201     0.0000 
     49 C         -13.0940  -43.4570  -25.2560 C.2       1 ACO1201     0.0000 
     50 O         -13.8940  -42.7950  -24.7070 O.2       1 ACO1201     0.0000 
     51 CH3       -12.3490  -44.5130  -24.4980 C.3       1 ACO1201     0.0000 
@<TRIPOS>BOND
     1    1    2 ar   
     2    1    6 ar   
     3    2    3 ar   
     4    3    4 ar   
     5    4    5 ar   
     6    4   10 1    
     7    5    6 ar   
     8    5    8 1    
     9    6    7 1    
    10    8    9 2    
    11    9   10 1    
    12   10   11 1    
    13   11   12 1    
    14   11   21 1    
    15   12   13 1    
    16   12   14 1    
    17   14   15 1    
    18   14   20 1    
    19   15   16 1    
    20   16   17 ar   
    21   16   18 ar   
    22   16   19 ar   
    23   20   21 1    
    24   20   22 1    
    25   22   23 1    
    26   23   24 1    
    27   24   25 ar   
    28   24   26 ar   
    29   24   27 1    
    30   27   28 1    
    31   28   29 ar   
    32   28   30 ar   
    33   28   31 1    
    34   31   33 1    
    35   32   33 1    
    36   32   34 1    
    37   32   35 1    
    38   32   36 1    
    39   36   37 1    
    40   36   38 1    
    41   38   39 2    
    42   38   40 am   
    43   40   41 1    
    44   41   42 1    
    45   42   43 1    
    46   43   44 2    
    47   43   45 am   
    48   45   46 1    
    49   46   47 1    
    50   47   48 1    
    51   48   49 1    
    52   49   50 2    
    53   49   51 1    
@<TRIPOS>SUBSTRUCTURE
     1 ACO1201     1 GROUP   
@<TRIPOS>SET
ATOM$ORANGE STATIC     ATOMS   COLORGROUP SYSTEM 
46 2 2 4 4 5 5 6 6 9 9 11 11 12 12 14 14 20 \
20 22 22 32 32 33 33 34 34 35 35 36 36 38 38 41 41 42 \
42 43 43 46 46 47 47 49 49 51 51 

