#    Name: 6ui9_4_ACO
#    Modification time : Fri May 22 19:33:56 2020

@<TRIPOS>MOLECULE
6ui9_4_ACO
   51    53     1     0     1
SMALL
NO_CHARGES


@<TRIPOS>ATOM
      1 N1A        13.2900   17.1790  -24.7600 N.ar      1 ACO1201     0.0000 
      2 C2A        13.7200   17.4020  -26.0090 C.ar      1 ACO1201     0.0000 
      3 N3A        13.4550   18.5790  -26.5820 N.ar      1 ACO1201     0.0000 
      4 C4A        12.7780   19.5190  -25.9220 C.ar      1 ACO1201     0.0000 
      5 C5A        12.3580   19.2950  -24.6900 C.ar      1 ACO1201     0.0000 
      6 C6A        12.6260   18.1040  -24.1140 C.ar      1 ACO1201     0.0000 
      7 N6A        12.3650   17.4770  -22.8540 N.pl3     1 ACO1201     0.0000 
      8 N7A        11.7030   20.3960  -24.2500 N.2       1 ACO1201     0.0000 
      9 C8A        11.7240   21.2960  -25.2160 C.2       1 ACO1201     0.0000 
     10 N9A        12.3850   20.7540  -26.2570 N.pl3     1 ACO1201     0.0000 
     11 C1B        12.5930   21.4810  -27.4660 C.3       1 ACO1201     0.0000 
     12 C2B        11.4700   21.9680  -27.9290 C.3       1 ACO1201     0.0000 
     13 O2B        10.8080   20.9980  -28.8090 O.3       1 ACO1201     0.0000 
     14 C3B        11.9650   23.1430  -28.7760 C.3       1 ACO1201     0.0000 
     15 O3B        12.3550   22.6480  -29.9470 O.3       1 ACO1201     0.0000 
     16 P3B        11.6720   23.2060  -31.3630 P.3       1 ACO1201     0.0000 
     17 O7A        11.8720   24.6890  -31.4060 O.co2     1 ACO1201     0.0000 
     18 O8A        12.3770   22.5950  -32.5430 O.co2     1 ACO1201     0.0000 
     19 O9A        10.2160   22.8760  -31.3990 O.co2     1 ACO1201     0.0000 
     20 C4B        13.2480   23.6600  -28.0250 C.3       1 ACO1201     0.0000 
     21 O4B        13.4710   22.8140  -27.0880 O.3       1 ACO1201     0.0000 
     22 C5B        12.9990   25.0390  -27.4200 C.3       1 ACO1201     0.0000 
     23 O5B        11.7790   25.0200  -26.6940 O.3       1 ACO1201     0.0000 
     24 P1A        10.8370   26.3810  -26.7560 P.3       1 ACO1201     0.0000 
     25 O1A        10.2520   26.6860  -25.3840 O.co2     1 ACO1201     0.0000 
     26 O2A         9.7120   26.1990  -27.7760 O.co2     1 ACO1201     0.0000 
     27 O3A        11.8650   27.6000  -27.2840 O.3       1 ACO1201     0.0000 
     28 P2A        12.1990   29.0320  -26.5420 P.3       1 ACO1201     0.0000 
     29 O4A        11.8900   28.9870  -25.0880 O.co2     1 ACO1201     0.0000 
     30 O5A        13.6660   29.3520  -26.7170 O.co2     1 ACO1201     0.0000 
     31 O6A        11.3030   30.2000  -27.3140 O.3       1 ACO1201     0.0000 
     32 CBP        10.6220   32.4970  -27.1820 C.3       1 ACO1201     0.0000 
     33 CCP        10.4650   31.0680  -26.5780 C.3       1 ACO1201     0.0000 
     34 CDP         9.8250   33.4740  -26.3390 C.3       1 ACO1201     0.0000 
     35 CEP        10.1200   32.4880  -28.6470 C.3       1 ACO1201     0.0000 
     36 CAP        12.1300   32.7800  -27.2060 C.3       1 ACO1201     0.0000 
     37 OAP        12.6700   31.8590  -28.0970 O.3       1 ACO1201     0.0000 
     38 C9P        12.6050   34.1560  -27.7370 C.2       1 ACO1201     0.0000 
     39 O9P        13.1400   34.1690  -28.8230 O.2       1 ACO1201     0.0000 
     40 N8P        12.4860   35.4090  -26.9330 N.am      1 ACO1201     0.0000 
     41 C7P        12.9740   36.7330  -27.4080 C.3       1 ACO1201     0.0000 
     42 C6P        12.2520   37.2580  -28.6500 C.3       1 ACO1201     0.0000 
     43 C5P        12.1790   38.8110  -28.6560 C.2       1 ACO1201     0.0000 
     44 O5P        11.1690   39.3270  -28.4140 O.2       1 ACO1201     0.0000 
     45 N4P        13.3410   39.6220  -28.9710 N.am      1 ACO1201     0.0000 
     46 C3P        13.2050   41.1330  -28.9460 C.3       1 ACO1201     0.0000 
     47 C2P        13.5420   41.5760  -27.5200 C.3       1 ACO1201     0.0000 
     48 S1P        12.7150   43.1250  -27.0860 S.3       1 ACO1201     0.0000 
     49 C          13.0190   43.3990  -25.3350 C.2       1 ACO1201     0.0000 
     50 O          13.8050   42.7380  -24.7660 O.2       1 ACO1201     0.0000 
     51 CH3        12.2620   44.4620  -24.5990 C.3       1 ACO1201     0.0000 
@<TRIPOS>BOND
     1    1    2 ar   
     2    1    6 ar   
     3    2    3 ar   
     4    3    4 ar   
     5    4    5 ar   
     6    4   10 1    
     7    5    6 ar   
     8    5    8 1    
     9    6    7 1    
    10    8    9 2    
    11    9   10 1    
    12   10   11 1    
    13   11   12 1    
    14   11   21 1    
    15   12   13 1    
    16   12   14 1    
    17   14   15 1    
    18   14   20 1    
    19   15   16 1    
    20   16   17 ar   
    21   16   18 ar   
    22   16   19 ar   
    23   20   21 1    
    24   20   22 1    
    25   22   23 1    
    26   23   24 1    
    27   24   25 ar   
    28   24   26 ar   
    29   24   27 1    
    30   27   28 1    
    31   28   29 ar   
    32   28   30 ar   
    33   28   31 1    
    34   31   33 1    
    35   32   33 1    
    36   32   34 1    
    37   32   35 1    
    38   32   36 1    
    39   36   37 1    
    40   36   38 1    
    41   38   39 2    
    42   38   40 am   
    43   40   41 1    
    44   41   42 1    
    45   42   43 1    
    46   43   44 2    
    47   43   45 am   
    48   45   46 1    
    49   46   47 1    
    50   47   48 1    
    51   48   49 1    
    52   49   50 2    
    53   49   51 1    
@<TRIPOS>SUBSTRUCTURE
     1 ACO1201     1 GROUP   
@<TRIPOS>SET
ATOM$ORANGE STATIC     ATOMS   COLORGROUP SYSTEM 
46 2 2 4 4 5 5 6 6 9 9 11 11 12 12 14 14 20 \
20 22 22 32 32 33 33 34 34 35 35 36 36 38 38 41 41 42 \
42 43 43 46 46 47 47 49 49 51 51 

