#    Name: 6du3_2_ASP_LEU_PRO_PRO_SEP
#    Modification time : Fri May 22 19:23:45 2020

@<TRIPOS>MOLECULE
6du3_2_ASP_LEU_PRO_PRO_SEP
   37    38     5     0     0
SMALL
NO_CHARGES


@<TRIPOS>ATOM
      1 N         -21.4650  -42.9470   -1.4690 N.4       1 ASP859      0.0000 
      2 CA        -21.4050  -42.0290   -0.3350 C.3       1 ASP859      0.0000 
      3 C         -22.8230  -41.5970    0.0620 C.2       1 ASP859      0.0000 
      4 O         -23.2410  -41.7690    1.2210 O.2       1 ASP859      0.0000 
      5 CB        -20.5400  -40.8030   -0.6630 C.3       1 ASP859      0.0000 
      6 N         -23.5620  -41.0540   -0.9090 N.am      2 LEU860      0.0000 
      7 CA        -24.9190  -40.5540   -0.6710 C.3       2 LEU860      0.0000 
      8 C         -25.9440  -41.6620   -0.9130 C.2       2 LEU860      0.0000 
      9 O         -25.5770  -42.8160   -1.1650 O.2       2 LEU860      0.0000 
     10 CB        -25.2170  -39.3370   -1.5650 C.3       2 LEU860      0.0000 
     11 CG        -24.6350  -37.9610   -1.2080 C.3       2 LEU860      0.0000 
     12 CD1       -23.1110  -37.9770   -1.1850 C.3       2 LEU860      0.0000 
     13 CD2       -25.1250  -36.9400   -2.2200 C.3       2 LEU860      0.0000 
     14 N         -28.3530  -43.8630   -2.7710 N.am      3 PRO862      0.0000 
     15 CA        -28.4700  -44.3680   -4.1520 C.3       3 PRO862      0.0000 
     16 C         -29.9150  -44.6140   -4.6140 C.2       3 PRO862      0.0000 
     17 O         -30.7420  -45.0260   -3.8010 O.2       3 PRO862      0.0000 
     18 CB        -27.7040  -45.7010   -4.1020 C.3       3 PRO862      0.0000 
     19 CG        -26.9510  -45.6980   -2.7900 C.3       3 PRO862      0.0000 
     20 CD        -27.8090  -44.8940   -1.8700 C.3       3 PRO862      0.0000 
     21 N         -30.2090  -44.3930   -5.9100 N.am      4 PRO863      0.0000 
     22 CA        -31.5740  -44.5910   -6.4250 C.3       4 PRO863      0.0000 
     23 C         -31.8290  -45.9860   -7.0150 C.2       4 PRO863      0.0000 
     24 O         -30.8940  -46.7520   -7.2630 O.2       4 PRO863      0.0000 
     25 CB        -31.6770  -43.5210   -7.5100 C.3       4 PRO863      0.0000 
     26 CG        -30.2680  -43.4590   -8.0680 C.3       4 PRO863      0.0000 
     27 CD        -29.3230  -43.7830   -6.9220 C.3       4 PRO863      0.0000 
     28 N         -27.2250  -41.2990   -0.8340 N.am      5 SEP861      0.0000 
     29 CA        -28.3500  -42.2460   -0.9150 C.3       5 SEP861      0.0000 
     30 CB        -29.5710  -41.6330   -0.2140 C.3       5 SEP861      0.0000 
     31 OG        -30.4950  -42.6130    0.2420 O.3       5 SEP861      0.0000 
     32 C         -28.7080  -42.6300   -2.3580 C.2       5 SEP861      0.0000 
     33 O         -29.3230  -41.8380   -3.0840 O.2       5 SEP861      0.0000 
     34 P         -31.8020  -41.9210    0.9190 P.3       5 SEP861      0.0000 
     35 O1P       -31.3940  -40.6250    1.7950 O.co2     5 SEP861      0.0000 
     36 O2P       -32.8470  -41.4820   -0.2400 O.co2     5 SEP861      0.0000 
     37 O3P       -32.4530  -43.0120    1.9070 O.co2     5 SEP861      0.0000 
@<TRIPOS>BOND
     1    1    2 1    
     2    2    3 1    
     3    2    5 1    
     4    3    4 2    
     5    3    6 am   
     6    6    7 1    
     7    7    8 1    
     8    7   10 1    
     9    8    9 2    
    10    8   28 du   
    11   10   11 1    
    12   11   12 1    
    13   11   13 1    
    14   14   15 1    
    15   14   20 1    
    16   14   32 am   
    17   15   16 1    
    18   15   18 1    
    19   16   17 2    
    20   16   21 am   
    21   18   19 1    
    22   19   20 1    
    23   21   22 1    
    24   21   27 1    
    25   22   23 1    
    26   22   25 1    
    27   23   24 2    
    28   25   26 1    
    29   26   27 1    
    30   28   29 1    
    31   29   30 1    
    32   29   32 1    
    33   30   31 1    
    34   31   34 1    
    35   32   33 2    
    36   34   35 ar   
    37   34   36 ar   
    38   34   37 ar   
@<TRIPOS>SUBSTRUCTURE
     1 ASP859      1 RESIDUE 
     2 LEU860      6 RESIDUE 
     3 PRO862     14 RESIDUE 
     4 PRO863     21 RESIDUE 
     5 SEP861     28 RESIDUE 
@<TRIPOS>SET

