#    Name: 5yf2_2_SAH_CAVITY_N1_ALL
#    Modification time : Fri May 22 19:12:41 2020

@<TRIPOS>MOLECULE
5yf2_2_SAH_CAVITY_N1_ALL
   97     0     6     0     0
SMALL
NO_CHARGES


@<TRIPOS>ATOM
      1 OG        -63.0100   22.5300    0.9300 O.3       1 SER1        0.0000 
      2 OG        -64.2900   23.0600    1.5000 O.3       1 SER1        0.0000 
      3 OG        -62.7400   21.7900    2.2100 O.3       1 SER1        0.0000 
      4 OG        -60.9900   23.1900    0.9000 O.3       1 SER1        0.0000 
      5 OG        -62.2700   23.7200    1.4700 O.3       1 SER1        0.0000 
      6 OG        -58.7100   23.1100    2.1500 O.3       1 SER1        0.0000 
      7 OG        -56.4600   26.2100   -3.5600 O.3       1 SER1        0.0000 
      8 OG        -54.1300   22.7200    0.9900 O.3       1 SER1        0.0000 
      9 OG        -52.3800   24.1200   -0.3200 O.3       1 SER1        0.0000 
     10 OG        -53.6600   24.6500    0.2500 O.3       1 SER1        0.0000 
     11 OG        -53.4000   23.9100    1.5300 O.3       1 SER1        0.0000 
     12 OG        -53.1400   23.1700    2.8100 O.3       1 SER1        0.0000 
     13 OG        -51.6000   21.9000    3.5200 O.3       1 SER1        0.0000 
     14 OG        -51.0700   20.4200    6.0800 O.3       1 SER1        0.0000 
     15 N         -62.5300   24.4600    0.1900 N.am      2 ALA2        0.0000 
     16 N         -63.8200   24.9900    0.7600 N.am      2 ALA2        0.0000 
     17 N         -54.6000   20.7800    1.7300 N.am      2 ALA2        0.0000 
     18 N         -55.8900   21.3100    2.3000 N.am      2 ALA2        0.0000 
     19 O         -53.3700   23.6700   -2.1400 O.2       2 ALA2        0.0000 
     20 O         -53.1100   22.9300   -0.8600 O.2       2 ALA2        0.0000 
     21 N         -52.8500   22.1900    0.4200 N.am      2 ALA2        0.0000 
     22 N         -52.5900   21.4500    1.7000 N.am      2 ALA2        0.0000 
     23 N         -53.8700   21.9800    2.2700 N.am      2 ALA2        0.0000 
     24 N         -55.1600   22.5100    2.8400 N.am      2 ALA2        0.0000 
     25 N         -56.4400   23.0400    3.4000 N.am      2 ALA2        0.0000 
     26 N         -53.6100   21.2400    3.5500 N.am      2 ALA2        0.0000 
     27 N         -52.0700   19.9700    4.2600 N.am      2 ALA2        0.0000 
     28 N         -51.8100   19.2300    5.5300 N.am      2 ALA2        0.0000 
     29 N         -53.0900   19.7600    6.1000 N.am      2 ALA2        0.0000 
     30 O         -52.6400   24.8600   -1.6000 O.2       2 ALA2        0.0000 
     31 N         -54.6800   24.4400    2.1000 N.am      2 ALA2        0.0000 
     32 N         -54.4200   23.7000    3.3800 N.am      2 ALA2        0.0000 
     33 N         -52.8800   22.4300    4.0900 N.am      2 ALA2        0.0000 
     34 N         -54.1600   22.9600    4.6600 N.am      2 ALA2        0.0000 
     35 N         -51.3400   21.1600    4.8000 N.am      2 ALA2        0.0000 
     36 N         -52.6200   21.6900    5.3700 N.am      2 ALA2        0.0000 
     37 N         -52.3600   20.9500    6.6400 N.am      2 ALA2        0.0000 
     38 NZ        -60.1800   20.7300    1.0700 N.4       3 LYS4        0.0000 
     39 NZ        -57.1400   21.6000   -0.8000 N.4       3 LYS4        0.0000 
     40 NZ        -58.4200   22.1300   -0.2300 N.4       3 LYS4        0.0000 
     41 NZ        -55.6000   20.3300   -0.0900 N.4       3 LYS4        0.0000 
     42 NZ        -58.1600   21.3900    1.0500 N.4       3 LYS4        0.0000 
     43 NZ        -56.1500   22.0500    1.0200 N.4       3 LYS4        0.0000 
     44 CZ        -63.5300   24.0100   -1.6300 C.ar      4 PHE5        0.0000 
     45 CZ        -66.0900   25.0700   -0.4900 C.ar      4 PHE5        0.0000 
     46 CZ        -61.9800   22.7400   -0.9200 C.ar      4 PHE5        0.0000 
     47 CZ        -65.8300   24.3300    0.7900 C.ar      4 PHE5        0.0000 
     48 CZ        -61.4600   21.2600    1.6400 C.ar      4 PHE5        0.0000 
     49 CZ        -59.4500   21.9200    1.6100 C.ar      4 PHE5        0.0000 
     50 CZ        -60.7300   22.4500    2.1800 C.ar      4 PHE5        0.0000 
     51 CZ        -56.2000   25.4700   -2.2800 C.ar      4 PHE5        0.0000 
     52 CZ        -57.4800   26.0000   -1.7100 C.ar      4 PHE5        0.0000 
     53 CZ        -55.4700   26.6600   -1.7400 C.ar      4 PHE5        0.0000 
     54 CZ        -56.7500   27.1900   -1.1700 C.ar      4 PHE5        0.0000 
     55 CA        -63.4800   20.6000    1.6700 C.3       5 GLY6        0.0000 
     56 CA        -61.9300   19.3300    2.3800 C.3       5 GLY6        0.0000 
     57 CA        -60.4400   21.4700   -0.2100 C.3       5 GLY6        0.0000 
     58 CA        -61.7200   22.0000    0.3600 C.3       5 GLY6        0.0000 
     59 CA        -57.6600   23.0800   -3.3600 C.3       5 GLY6        0.0000 
     60 CA        -56.1200   21.8100   -2.6500 C.3       5 GLY6        0.0000 
     61 CA        -57.4000   22.3400   -2.0800 C.3       5 GLY6        0.0000 
     62 CA        -58.6900   22.8700   -1.5100 C.3       5 GLY6        0.0000 
     63 CA        -55.8600   21.0700   -1.3700 C.3       5 GLY6        0.0000 
     64 CA        -53.8400   21.7300   -1.4000 C.3       5 GLY6        0.0000 
     65 CA        -55.1300   22.2600   -0.8300 C.3       5 GLY6        0.0000 
     66 CA        -57.6900   23.3200    0.3100 C.3       5 GLY6        0.0000 
     67 CA        -58.9800   23.8500    0.8800 C.3       5 GLY6        0.0000 
     68 CA        -53.5800   20.9900   -0.1200 C.3       5 GLY6        0.0000 
     69 CA        -54.8700   21.5200    0.4500 C.3       5 GLY6        0.0000 
     70 CA        -57.1700   21.8400    2.8600 C.3       5 GLY6        0.0000 
     71 CA        -57.2200   25.2600   -0.4300 C.3       5 GLY6        0.0000 
     72 CA        -58.5000   25.7900    0.1400 C.3       5 GLY6        0.0000 
     73 CA        -56.9600   24.5200    0.8500 C.3       5 GLY6        0.0000 
     74 CA        -56.7000   23.7800    2.1300 C.3       5 GLY6        0.0000 
     75 CA        -52.3300   20.7100    2.9800 C.3       5 GLY6        0.0000 
     76 CA        -52.9000   25.6000   -2.8700 C.3       5 GLY6        0.0000 
     77 CA        -56.4900   26.4500    0.1100 C.3       5 GLY6        0.0000 
     78 CA        -56.2300   25.7100    1.3900 C.3       5 GLY6        0.0000 
     79 CA        -55.9700   24.9700    2.6700 C.3       5 GLY6        0.0000 
     80 DU        -63.2700   23.2700   -0.3500 H         6 CUB7        0.0000 
     81 DU        -59.7100   22.6600    0.3400 H         6 CUB7        0.0000 
     82 DU        -56.9300   24.2700   -2.8200 H         6 CUB7        0.0000 
     83 DU        -55.3900   23.0000   -2.1100 H         6 CUB7        0.0000 
     84 DU        -56.6700   23.5300   -1.5400 H         6 CUB7        0.0000 
     85 DU        -57.9500   24.0600   -0.9700 H         6 CUB7        0.0000 
     86 DU        -56.4100   22.7900   -0.2600 H         6 CUB7        0.0000 
     87 DU        -57.4300   22.5800    1.5900 H         6 CUB7        0.0000 
     88 DU        -55.9400   24.7300   -1.0000 H         6 CUB7        0.0000 
     89 DU        -54.3900   23.4600   -0.2900 H         6 CUB7        0.0000 
     90 DU        -55.6800   23.9900    0.2800 H         6 CUB7        0.0000 
     91 DU        -55.4200   23.2500    1.5600 H         6 CUB7        0.0000 
     92 DU        -54.4500   26.8700   -3.5800 H         6 CUB7        0.0000 
     93 DU        -54.1800   26.1300   -2.3100 H         6 CUB7        0.0000 
     94 DU        -53.9200   25.3900   -1.0300 H         6 CUB7        0.0000 
     95 DU        -55.2100   25.9200   -0.4600 H         6 CUB7        0.0000 
     96 DU        -54.9500   25.1800    0.8200 H         6 CUB7        0.0000 
     97 DU        -53.7100   28.0600   -3.0400 H         6 CUB7        0.0000 
@<TRIPOS>BOND
@<TRIPOS>SUBSTRUCTURE
     1 SER1        1 GROUP   
     2 ALA2       15 GROUP   
     3 LYS4       38 GROUP   
     4 PHE5       44 GROUP   
     5 GLY6       55 GROUP   
     6 CUB7       80 GROUP   
@<TRIPOS>SET

