#    Name: 5yf2_2_SAH
#    Modification time : Fri May 22 19:12:39 2020

@<TRIPOS>MOLECULE
5yf2_2_SAH
   26    28     1     0     0
SMALL
NO_CHARGES


@<TRIPOS>ATOM
      1 N         -52.5630   19.7470    5.9790 N.4       1 SAH501      0.0000 
      2 CA        -51.8040   20.2550    4.8300 C.3       1 SAH501      0.0000 
      3 CB        -52.7210   20.7950    3.7200 C.3       1 SAH501      0.0000 
      4 CG        -53.3960   22.1680    3.8720 C.3       1 SAH501      0.0000 
      5 SD        -53.9330   22.9140    2.2930 S.3       1 SAH501      0.0000 
      6 C         -50.8160   21.3450    5.2340 C.2       1 SAH501      0.0000 
      7 O         -49.7070   21.4110    4.7030 O.co2     1 SAH501      0.0000 
      8 OXT       -51.0900   22.1830    6.0890 O.co2     1 SAH501      0.0000 
      9 C5'       -55.7010   22.9440    2.7220 C.3       1 SAH501      0.0000 
     10 C4'       -56.4880   21.9140    1.9140 C.3       1 SAH501      0.0000 
     11 O4'       -57.8770   21.8900    2.2170 O.3       1 SAH501      0.0000 
     12 C3'       -56.3740   22.1770    0.4240 C.3       1 SAH501      0.0000 
     13 O3'       -55.6490   21.0920   -0.1100 O.3       1 SAH501      0.0000 
     14 C2'       -57.8220   22.2700   -0.0720 C.3       1 SAH501      0.0000 
     15 O2'       -58.0420   21.7130   -1.3500 O.3       1 SAH501      0.0000 
     16 C1'       -58.5900   21.5440    1.0320 C.3       1 SAH501      0.0000 
     17 N9        -60.0540   21.8060    1.1010 N.pl3     1 SAH501      0.0000 
     18 C8        -60.7340   22.9310    0.6990 C.2       1 SAH501      0.0000 
     19 N7        -62.0560   22.7530    0.9440 N.2       1 SAH501      0.0000 
     20 C5        -62.2430   21.5270    1.5020 C.ar      1 SAH501      0.0000 
     21 C6        -63.3850   20.8430    1.9460 C.ar      1 SAH501      0.0000 
     22 N6        -64.5870   21.4150    1.8520 N.pl3     1 SAH501      0.0000 
     23 N1        -63.2660   19.5660    2.4820 N.ar      1 SAH501      0.0000 
     24 C2        -62.0180   18.9760    2.5740 C.ar      1 SAH501      0.0000 
     25 N3        -60.8930   19.6570    2.1300 N.ar      1 SAH501      0.0000 
     26 C4        -60.9920   20.9170    1.6020 C.ar      1 SAH501      0.0000 
@<TRIPOS>BOND
     1    1    2 1    
     2    2    3 1    
     3    2    6 1    
     4    3    4 1    
     5    4    5 1    
     6    5    9 1    
     7    6    7 ar   
     8    6    8 ar   
     9    9   10 1    
    10   10   11 1    
    11   10   12 1    
    12   11   16 1    
    13   12   13 1    
    14   12   14 1    
    15   14   15 1    
    16   14   16 1    
    17   16   17 1    
    18   17   18 1    
    19   17   26 1    
    20   18   19 2    
    21   19   20 1    
    22   20   21 ar   
    23   20   26 ar   
    24   21   22 1    
    25   21   23 ar   
    26   23   24 ar   
    27   24   25 ar   
    28   25   26 ar   
@<TRIPOS>SUBSTRUCTURE
     1 SAH501      1 GROUP   
@<TRIPOS>SET

