#    Name: 5yf2_1_SAH
#    Modification time : Fri May 22 19:12:33 2020

@<TRIPOS>MOLECULE
5yf2_1_SAH
   26    28     1     0     0
SMALL
NO_CHARGES


@<TRIPOS>ATOM
      1 N         -37.0690   54.6740   -3.5770 N.4       1 SAH501      0.0000 
      2 CA        -38.4120   54.4060   -3.0430 C.3       1 SAH501      0.0000 
      3 CB        -39.3960   54.0870   -4.1720 C.3       1 SAH501      0.0000 
      4 CG        -39.1360   52.8300   -5.0030 C.3       1 SAH501      0.0000 
      5 SD        -40.6430   52.0880   -5.7050 S.3       1 SAH501      0.0000 
      6 C         -38.4430   53.2680   -2.0110 C.2       1 SAH501      0.0000 
      7 O         -37.8000   52.2250   -2.1490 O.co2     1 SAH501      0.0000 
      8 OXT       -39.1300   53.3650   -0.9940 O.co2     1 SAH501      0.0000 
      9 C5'       -39.9770   52.2290   -7.3860 C.3       1 SAH501      0.0000 
     10 C4'       -40.4760   53.4770   -8.1170 C.3       1 SAH501      0.0000 
     11 O4'       -39.7660   53.6460   -9.3310 O.3       1 SAH501      0.0000 
     12 C3'       -41.9590   53.4290   -8.4890 C.3       1 SAH501      0.0000 
     13 O3'       -42.6550   54.4630   -7.8270 O.3       1 SAH501      0.0000 
     14 C2'       -41.9990   53.6260  -10.0000 C.3       1 SAH501      0.0000 
     15 O2'       -43.0490   54.4730  -10.4050 O.3       1 SAH501      0.0000 
     16 C1'       -40.6390   54.2490  -10.2730 C.3       1 SAH501      0.0000 
     17 N9        -40.1220   54.1210  -11.6530 N.pl3     1 SAH501      0.0000 
     18 C8        -40.1730   53.0380  -12.4960 C.2       1 SAH501      0.0000 
     19 N7        -39.5590   53.3730  -13.6570 N.2       1 SAH501      0.0000 
     20 C5        -39.1110   54.6520  -13.5700 C.ar      1 SAH501      0.0000 
     21 C6        -38.4180   55.4900  -14.4530 C.ar      1 SAH501      0.0000 
     22 N6        -38.0670   55.0640  -15.6680 N.pl3     1 SAH501      0.0000 
     23 N1        -38.0980   56.7790  -14.0560 N.ar      1 SAH501      0.0000 
     24 C2        -38.4560   57.2290  -12.7960 C.ar      1 SAH501      0.0000 
     25 N3        -39.1390   56.3990  -11.9290 N.ar      1 SAH501      0.0000 
     26 C4        -39.4630   55.1330  -12.3100 C.ar      1 SAH501      0.0000 
@<TRIPOS>BOND
     1    1    2 1    
     2    2    3 1    
     3    2    6 1    
     4    3    4 1    
     5    4    5 1    
     6    5    9 1    
     7    6    7 ar   
     8    6    8 ar   
     9    9   10 1    
    10   10   11 1    
    11   10   12 1    
    12   11   16 1    
    13   12   13 1    
    14   12   14 1    
    15   14   15 1    
    16   14   16 1    
    17   16   17 1    
    18   17   18 1    
    19   17   26 1    
    20   18   19 2    
    21   19   20 1    
    22   20   21 ar   
    23   20   26 ar   
    24   21   22 1    
    25   21   23 ar   
    26   23   24 ar   
    27   24   25 ar   
    28   25   26 ar   
@<TRIPOS>SUBSTRUCTURE
     1 SAH501      1 GROUP   
@<TRIPOS>SET

