#    Name: 5yf2_1_SAH_CAVITY_N1_ALL
#    Modification time : Fri May 22 19:12:35 2020

@<TRIPOS>MOLECULE
5yf2_1_SAH_CAVITY_N1_ALL
  153     0     7     0     0
SMALL
NO_CHARGES


@<TRIPOS>ATOM
      1 OG        -44.7100   47.9700   -9.2000 O.3       1 SER1        0.0000 
      2 OG        -47.0200   48.2900   -6.7900 O.3       1 SER1        0.0000 
      3 OG        -43.4800   50.8500  -13.0700 O.3       1 SER1        0.0000 
      4 OG        -44.7600   51.3800  -12.5000 O.3       1 SER1        0.0000 
      5 OG        -43.2200   50.1100  -11.7900 O.3       1 SER1        0.0000 
      6 OG        -42.9600   49.3700  -10.5100 O.3       1 SER1        0.0000 
      7 OG        -42.7000   48.6300   -9.2300 O.3       1 SER1        0.0000 
      8 OG        -43.9800   49.1600   -8.6600 O.3       1 SER1        0.0000 
      9 OG        -46.5500   50.2200   -7.5300 O.3       1 SER1        0.0000 
     10 OG        -47.8300   50.7500   -6.9600 O.3       1 SER1        0.0000 
     11 OG        -39.4200   51.9300  -16.7900 O.3       1 SER1        0.0000 
     12 OG        -40.7100   52.4600  -16.2200 O.3       1 SER1        0.0000 
     13 OG        -40.4400   51.7200  -14.9400 O.3       1 SER1        0.0000 
     14 OG        -45.8100   51.4100   -6.9900 O.3       1 SER1        0.0000 
     15 OG        -47.1000   51.9400   -6.4200 O.3       1 SER1        0.0000 
     16 OG        -39.9700   53.6500  -15.6800 O.3       1 SER1        0.0000 
     17 OG        -39.7100   52.9100  -14.4000 O.3       1 SER1        0.0000 
     18 OG        -42.2600   50.8100   -6.3100 O.3       1 SER1        0.0000 
     19 OG        -37.9600   54.3200  -15.7100 O.3       1 SER1        0.0000 
     20 OG        -39.2400   54.8500  -15.1400 O.3       1 SER1        0.0000 
     21 OG        -38.9800   54.1100  -13.8600 O.3       1 SER1        0.0000 
     22 OG        -41.5200   52.0000   -5.7600 O.3       1 SER1        0.0000 
     23 OG        -42.8100   52.5300   -5.2000 O.3       1 SER1        0.0000 
     24 OG        -40.7900   53.1900   -5.2200 O.3       1 SER1        0.0000 
     25 OG        -42.0700   53.7200   -4.6600 O.3       1 SER1        0.0000 
     26 OG        -39.8000   53.6400   -3.4100 O.3       1 SER1        0.0000 
     27 OG        -39.5400   52.9000   -2.1300 O.3       1 SER1        0.0000 
     28 OG        -37.5200   53.5700   -2.1500 O.3       1 SER1        0.0000 
     29 OG        -38.8100   54.1000   -1.5900 O.3       1 SER1        0.0000 
     30 OG        -36.7900   54.7600   -1.6100 O.3       1 SER1        0.0000 
     31 N         -42.2000   50.3200  -13.6400 N.am      2 ALA2        0.0000 
     32 O         -45.0800   52.6000   -6.4500 O.2       2 ALA2        0.0000 
     33 N         -39.2200   51.6800   -8.1800 N.am      2 ALA2        0.0000 
     34 N         -40.5000   52.2100   -7.6100 N.am      2 ALA2        0.0000 
     35 N         -40.2400   51.4700   -6.3300 N.am      2 ALA2        0.0000 
     36 O         -38.5100   56.0400  -14.6000 O.2       2 ALA2        0.0000 
     37 N         -39.7700   53.4000   -7.0700 N.am      2 ALA2        0.0000 
     38 N         -41.0500   53.9300   -6.5000 N.am      2 ALA2        0.0000 
     39 N         -39.5100   52.6600   -5.7900 N.am      2 ALA2        0.0000 
     40 N         -39.2500   51.9200   -4.5100 N.am      2 ALA2        0.0000 
     41 O         -37.7800   57.2300  -14.0600 O.2       2 ALA2        0.0000 
     42 N         -40.3200   55.1200   -5.9600 N.am      2 ALA2        0.0000 
     43 N         -40.0600   54.3800   -4.6800 N.am      2 ALA2        0.0000 
     44 N         -38.5200   53.1100   -3.9700 N.am      2 ALA2        0.0000 
     45 N         -38.2500   52.3700   -2.7000 N.am      2 ALA2        0.0000 
     46 N         -39.3300   55.5800   -4.1400 N.am      2 ALA2        0.0000 
     47 N         -37.7800   54.3100   -3.4300 N.am      2 ALA2        0.0000 
     48 N         -39.0700   54.8400   -2.8600 N.am      2 ALA2        0.0000 
     49 N         -37.0500   55.5000   -2.8900 N.am      2 ALA2        0.0000 
     50 N         -38.3300   56.0300   -2.3200 N.am      2 ALA2        0.0000 
     51 OD1       -46.0500   51.9100  -11.9300 O.co2     3 ASP3        0.0000 
     52 NZ        -39.9400   53.4100  -19.3500 N.4       4 LYS4        0.0000 
     53 NZ        -41.2300   53.9400  -18.7800 N.4       4 LYS4        0.0000 
     54 NZ        -40.5000   55.1300  -18.2400 N.4       4 LYS4        0.0000 
     55 NZ        -38.9500   53.8600  -17.5300 N.4       4 LYS4        0.0000 
     56 NZ        -40.2300   54.3900  -16.9600 N.4       4 LYS4        0.0000 
     57 NZ        -43.3000   53.7600  -11.4200 N.4       4 LYS4        0.0000 
     58 NZ        -39.5000   55.5900  -16.4200 N.4       4 LYS4        0.0000 
     59 NZ        -41.2900   54.4300  -11.4500 N.4       4 LYS4        0.0000 
     60 NZ        -41.0200   53.6900  -10.1700 N.4       4 LYS4        0.0000 
     61 NZ        -42.3100   54.2200   -9.6000 N.4       4 LYS4        0.0000 
     62 NZ        -42.0500   53.4800   -8.3200 N.4       4 LYS4        0.0000 
     63 NZ        -37.2300   55.5100  -15.1700 N.4       4 LYS4        0.0000 
     64 NZ        -40.5500   55.6200  -10.9100 N.4       4 LYS4        0.0000 
     65 NZ        -40.2900   54.8800   -9.6300 N.4       4 LYS4        0.0000 
     66 NZ        -41.3100   54.6700   -7.7800 N.4       4 LYS4        0.0000 
     67 CZ        -43.7100   51.3500  -18.0100 C.ar      5 PHE5        0.0000 
     68 CZ        -46.2600   49.2400   -9.9100 C.ar      5 PHE5        0.0000 
     69 CZ        -46.0000   48.5000   -8.6400 C.ar      5 PHE5        0.0000 
     70 CZ        -40.6800   52.2200  -19.8900 C.ar      5 PHE5        0.0000 
     71 CZ        -43.2400   53.2800  -18.7500 C.ar      5 PHE5        0.0000 
     72 CZ        -41.7000   52.0100  -18.0400 C.ar      5 PHE5        0.0000 
     73 CZ        -41.4400   51.2700  -16.7600 C.ar      5 PHE5        0.0000 
     74 CZ        -42.7200   51.8000  -16.1900 C.ar      5 PHE5        0.0000 
     75 CZ        -44.0000   52.3300  -15.6300 C.ar      5 PHE5        0.0000 
     76 CZ        -42.4600   51.0600  -14.9200 C.ar      5 PHE5        0.0000 
     77 CZ        -45.0300   52.1200  -13.7800 C.ar      5 PHE5        0.0000 
     78 CZ        -44.5000   50.6400  -11.2200 C.ar      5 PHE5        0.0000 
     79 CZ        -44.2400   49.9000   -9.9400 C.ar      5 PHE5        0.0000 
     80 CZ        -45.5300   50.4300   -9.3700 C.ar      5 PHE5        0.0000 
     81 CZ        -42.5100   54.4700  -18.2100 C.ar      5 PHE5        0.0000 
     82 CZ        -42.2500   53.7300  -16.9300 C.ar      5 PHE5        0.0000 
     83 CZ        -41.9900   52.9900  -15.6500 C.ar      5 PHE5        0.0000 
     84 CZ        -43.2700   53.5200  -15.0900 C.ar      5 PHE5        0.0000 
     85 CZ        -43.0100   52.7800  -13.8100 C.ar      5 PHE5        0.0000 
     86 CZ        -44.2900   53.3100  -13.2400 C.ar      5 PHE5        0.0000 
     87 CZ        -45.5800   53.8400  -12.6700 C.ar      5 PHE5        0.0000 
     88 CZ        -41.5200   54.9200  -16.3900 C.ar      5 PHE5        0.0000 
     89 CZ        -41.2600   54.1800  -15.1100 C.ar      5 PHE5        0.0000 
     90 CZ        -42.2800   53.9700  -13.2700 C.ar      5 PHE5        0.0000 
     91 CZ        -43.5600   54.5000  -12.7000 C.ar      5 PHE5        0.0000 
     92 CZ        -40.0000   53.9000  -12.0200 C.ar      5 PHE5        0.0000 
     93 CZ        -39.7400   53.1600  -10.7400 C.ar      5 PHE5        0.0000 
     94 CZ        -39.4800   52.4200   -9.4600 C.ar      5 PHE5        0.0000 
     95 CZ        -36.9700   54.7700  -13.8900 C.ar      5 PHE5        0.0000 
     96 CZ        -38.2500   55.3000  -13.3200 C.ar      5 PHE5        0.0000 
     97 CZ        -39.2700   55.0900  -11.4800 C.ar      5 PHE5        0.0000 
     98 CZ        -39.0100   54.3500  -10.2000 C.ar      5 PHE5        0.0000 
     99 CZ        -38.4900   52.8700   -7.6400 C.ar      5 PHE5        0.0000 
    100 CA        -47.5400   49.7700   -9.3500 C.3       6 GLY6        0.0000 
    101 CA        -48.5600   49.5600   -7.5000 C.3       6 GLY6        0.0000 
    102 CA        -45.7900   51.1700  -10.6500 C.3       6 GLY6        0.0000 
    103 CA        -47.0700   51.7000  -10.0800 C.3       6 GLY6        0.0000 
    104 CA        -46.8100   50.9600   -8.8100 C.3       6 GLY6        0.0000 
    105 CA        -48.0900   51.4900   -8.2400 C.3       6 GLY6        0.0000 
    106 CA        -41.4700   51.5100  -13.1000 C.3       6 GLY6        0.0000 
    107 CA        -45.3200   53.1000  -11.3900 C.3       6 GLY6        0.0000 
    108 CA        -46.6000   53.6300  -10.8200 C.3       6 GLY6        0.0000 
    109 CA        -42.4900   51.3000  -11.2500 C.3       6 GLY6        0.0000 
    110 CA        -42.2300   50.5600   -9.9700 C.3       6 GLY6        0.0000 
    111 CA        -41.9700   49.8200   -8.6900 C.3       6 GLY6        0.0000 
    112 CA        -40.7300   52.7000  -12.5600 C.3       6 GLY6        0.0000 
    113 CA        -44.5800   54.2900  -10.8500 C.3       6 GLY6        0.0000 
    114 CA        -40.4700   51.9600  -11.2800 C.3       6 GLY6        0.0000 
    115 CA        -41.7600   52.4900  -10.7100 C.3       6 GLY6        0.0000 
    116 CA        -44.3200   53.5500   -9.5700 C.3       6 GLY6        0.0000 
    117 CA        -41.5000   51.7500   -9.4300 C.3       6 GLY6        0.0000 
    118 CA        -41.2300   51.0200   -8.1500 C.3       6 GLY6        0.0000 
    119 CA        -40.2600   54.6400  -13.2900 C.3       6 GLY6        0.0000 
    120 CA        -41.5500   55.1700  -12.7300 C.3       6 GLY6        0.0000 
    121 CA        -40.7600   52.9500   -8.8900 C.3       6 GLY6        0.0000 
    122 CA        -43.3300   54.0100   -7.7500 C.3       6 GLY6        0.0000 
    123 CA        -43.0700   53.2700   -6.4700 C.3       6 GLY6        0.0000 
    124 CA        -44.3500   53.8000   -5.9100 C.3       6 GLY6        0.0000 
    125 CA        -39.5300   55.8300  -12.7500 C.3       6 GLY6        0.0000 
    126 CA        -40.0300   54.1400   -8.3500 C.3       6 GLY6        0.0000 
    127 CA        -42.3400   54.4600   -5.9300 C.3       6 GLY6        0.0000 
    128 CA        -41.3400   54.9100   -4.1200 C.3       6 GLY6        0.0000 
    129 DU        -48.0100   47.8300   -8.6100 H         7 CUB7        0.0000 
    130 DU        -47.2800   49.0300   -8.0700 H         7 CUB7        0.0000 
    131 DU        -41.9600   52.7500  -19.3200 H         7 CUB7        0.0000 
    132 DU        -42.9800   52.5400  -17.4700 H         7 CUB7        0.0000 
    133 DU        -43.7400   51.5900  -14.3500 H         7 CUB7        0.0000 
    134 DU        -45.2600   49.6900   -8.1000 H         7 CUB7        0.0000 
    135 DU        -39.6800   52.6700  -18.0700 H         7 CUB7        0.0000 
    136 DU        -40.9700   53.2000  -17.5000 H         7 CUB7        0.0000 
    137 DU        -41.7300   52.2500  -14.3800 H         7 CUB7        0.0000 
    138 DU        -42.7500   52.0400  -12.5300 H         7 CUB7        0.0000 
    139 DU        -44.0300   52.5700  -11.9600 H         7 CUB7        0.0000 
    140 DU        -43.7700   51.8300  -10.6800 H         7 CUB7        0.0000 
    141 DU        -45.0500   52.3600  -10.1100 H         7 CUB7        0.0000 
    142 DU        -43.5100   51.0900   -9.4000 H         7 CUB7        0.0000 
    143 DU        -43.2500   50.3500   -8.1200 H         7 CUB7        0.0000 
    144 DU        -44.5300   50.8800   -7.5600 H         7 CUB7        0.0000 
    145 DU        -42.9900   49.6100   -6.8500 H         7 CUB7        0.0000 
    146 DU        -41.0000   53.4400  -13.8400 H         7 CUB7        0.0000 
    147 DU        -42.0200   53.2300  -11.9900 H         7 CUB7        0.0000 
    148 DU        -43.0400   53.0200  -10.1400 H         7 CUB7        0.0000 
    149 DU        -42.7800   52.2800   -8.8600 H         7 CUB7        0.0000 
    150 DU        -44.0600   52.8100   -8.2900 H         7 CUB7        0.0000 
    151 DU        -42.5200   51.5500   -7.5800 H         7 CUB7        0.0000 
    152 DU        -43.8000   52.0700   -7.0200 H         7 CUB7        0.0000 
    153 DU        -41.7800   52.7400   -7.0400 H         7 CUB7        0.0000 
@<TRIPOS>BOND
@<TRIPOS>SUBSTRUCTURE
     1 SER1        1 GROUP   
     2 ALA2       31 GROUP   
     3 ASP3       51 GROUP   
     4 LYS4       52 GROUP   
     5 PHE5       67 GROUP   
     6 GLY6      100 GROUP   
     7 CUB7      129 GROUP   
@<TRIPOS>SET

