#    Name: 6mvg_2_FMN_CAVITY_N1_8
#    Modification time : Fri May 22 19:26:39 2020

@<TRIPOS>MOLECULE
6mvg_2_FMN_CAVITY_N1_8
   73     0     6     0     0
SMALL
NO_CHARGES


@<TRIPOS>ATOM
      1 N          73.0400   14.4800   71.4000 N.am      1 ALA2        0.0000 
      2 O          73.6200   16.8500   69.1100 O.2       1 ALA2        0.0000 
      3 N          74.9600   15.9700   70.5000 N.am      1 ALA2        0.0000 
      4 N          73.5100   16.3500   70.5200 N.am      1 ALA2        0.0000 
      5 N          73.3900   15.8400   71.9200 N.am      1 ALA2        0.0000 
      6 N          68.9200   16.4500   73.3800 N.am      1 ALA2        0.0000 
      7 N          67.4700   16.8200   73.4000 N.am      1 ALA2        0.0000 
      8 N          64.5600   17.5700   73.4400 N.am      1 ALA2        0.0000 
      9 N          68.8100   15.9400   74.7900 N.am      1 ALA2        0.0000 
     10 O          73.9800   18.2200   69.6300 O.2       1 ALA2        0.0000 
     11 N          74.3300   19.5800   70.1500 N.am      1 ALA2        0.0000 
     12 OD1        68.5700   15.0900   72.8600 O.co2     2 ASP3        0.0000 
     13 OD1        67.7000   17.8400   70.5900 O.co2     2 ASP3        0.0000 
     14 OD1        66.2400   18.2100   70.6100 O.co2     2 ASP3        0.0000 
     15 OD1        67.5800   17.3300   71.9900 O.co2     2 ASP3        0.0000 
     16 OD1        66.1300   17.7000   72.0100 O.co2     2 ASP3        0.0000 
     17 OD1        64.6800   18.0800   72.0300 O.co2     2 ASP3        0.0000 
     18 NZ         65.0300   19.4400   72.5500 N.4       3 LYS4        0.0000 
     19 NZ         73.1000   20.9700   67.3500 N.4       3 LYS4        0.0000 
     20 NZ         65.3900   20.8000   73.0700 N.4       3 LYS4        0.0000 
     21 CZ         71.4700   14.3400   72.8300 C.ar      4 PHE5        0.0000 
     22 CZ         72.1700   17.2300   69.1300 C.ar      4 PHE5        0.0000 
     23 CZ         66.3600   18.7200   69.2000 C.ar      4 PHE5        0.0000 
     24 CZ         70.6000   17.0900   70.5500 C.ar      4 PHE5        0.0000 
     25 CZ         69.1500   17.4600   70.5700 C.ar      4 PHE5        0.0000 
     26 CZ         70.3800   16.0800   73.3700 C.ar      4 PHE5        0.0000 
     27 CZ         70.2600   15.5700   74.7700 C.ar      4 PHE5        0.0000 
     28 CZ         72.6400   19.1000   68.2400 C.ar      4 PHE5        0.0000 
     29 CZ         71.1800   19.4700   68.2600 C.ar      4 PHE5        0.0000 
     30 CZ         72.5200   18.5900   69.6500 C.ar      4 PHE5        0.0000 
     31 CZ         71.0700   18.9600   69.6700 C.ar      4 PHE5        0.0000 
     32 CZ         69.6200   19.3300   69.6800 C.ar      4 PHE5        0.0000 
     33 CZ         68.1600   19.7100   69.7000 C.ar      4 PHE5        0.0000 
     34 CZ         70.9600   18.4500   71.0700 C.ar      4 PHE5        0.0000 
     35 CZ         69.5000   18.8300   71.0900 C.ar      4 PHE5        0.0000 
     36 CZ         71.6500   21.3400   67.3700 C.ar      4 PHE5        0.0000 
     37 CZ         70.2000   21.7100   67.3900 C.ar      4 PHE5        0.0000 
     38 CZ         71.5400   20.8300   68.7800 C.ar      4 PHE5        0.0000 
     39 CZ         70.0900   21.2000   68.8000 C.ar      4 PHE5        0.0000 
     40 CZ         69.9700   20.7000   70.2000 C.ar      4 PHE5        0.0000 
     41 CZ         72.7700   19.4400   71.5700 C.ar      4 PHE5        0.0000 
     42 CZ         69.8600   20.1900   71.6100 C.ar      4 PHE5        0.0000 
     43 CZ         68.4100   20.5600   71.6300 C.ar      4 PHE5        0.0000 
     44 CZ         70.4400   22.5600   69.3200 C.ar      4 PHE5        0.0000 
     45 CZ         68.8800   22.4300   70.7400 C.ar      4 PHE5        0.0000 
     46 CA         70.0200   14.7100   72.8500 C.3       5 GLY6        0.0000 
     47 CA         72.0500   16.7200   70.5300 C.3       5 GLY6        0.0000 
     48 CA         71.9400   16.2100   71.9400 C.3       5 GLY6        0.0000 
     49 CA         70.4900   16.5800   71.9600 C.3       5 GLY6        0.0000 
     50 CA         69.0400   16.9600   71.9800 C.3       5 GLY6        0.0000 
     51 CA         71.8300   15.7000   73.3500 C.3       5 GLY6        0.0000 
     52 CA         74.0900   18.7200   68.2200 C.3       5 GLY6        0.0000 
     53 CA         73.8600   17.7100   71.0400 C.3       5 GLY6        0.0000 
     54 CA         72.4100   18.0800   71.0500 C.3       5 GLY6        0.0000 
     55 CA         72.3000   17.5700   72.4600 C.3       5 GLY6        0.0000 
     56 CA         70.8400   17.9500   72.4800 C.3       5 GLY6        0.0000 
     57 CA         69.3900   18.3200   72.5000 C.3       5 GLY6        0.0000 
     58 CA         67.9400   18.6900   72.5100 C.3       5 GLY6        0.0000 
     59 CA         66.4900   19.0600   72.5300 C.3       5 GLY6        0.0000 
     60 CA         70.7300   17.4400   73.8900 C.3       5 GLY6        0.0000 
     61 CA         69.2800   17.8100   73.9000 C.3       5 GLY6        0.0000 
     62 CA         67.8300   18.1800   73.9200 C.3       5 GLY6        0.0000 
     63 CA         66.3700   18.5600   73.9400 C.3       5 GLY6        0.0000 
     64 CA         64.9200   18.9300   73.9600 C.3       5 GLY6        0.0000 
     65 CA         70.6200   16.9300   75.2900 C.3       5 GLY6        0.0000 
     66 CA         69.1700   17.3000   75.3100 C.3       5 GLY6        0.0000 
     67 CA         74.4400   20.0800   68.7400 C.3       5 GLY6        0.0000 
     68 CA         72.9900   20.4600   68.7600 C.3       5 GLY6        0.0000 
     69 CA         69.7500   19.6800   73.0200 C.3       5 GLY6        0.0000 
     70 CA         66.8400   20.4300   73.0500 C.3       5 GLY6        0.0000 
     71 CA         72.0100   22.7000   67.8900 C.3       5 GLY6        0.0000 
     72 DU         68.0500   19.2000   71.1100 H         6 CUB7        0.0000 
     73 DU         66.6000   19.5700   71.1300 H         6 CUB7        0.0000 
@<TRIPOS>BOND
@<TRIPOS>SUBSTRUCTURE
     1 ALA2        1 GROUP   
     2 ASP3       12 GROUP   
     3 LYS4       18 GROUP   
     4 PHE5       21 GROUP   
     5 GLY6       46 GROUP   
     6 CUB7       72 GROUP   
@<TRIPOS>SET

