#    Name: 6mvg_2_FMN
#    Modification time : Fri May 22 19:26:38 2020

@<TRIPOS>MOLECULE
6mvg_2_FMN
   31    33     1     0     1
SMALL
NO_CHARGES


@<TRIPOS>ATOM
      1 N1         70.1360   21.6980   68.3680 N.2       1 FMN801      0.0000 
      2 C2         70.9970   22.2420   67.4350 C.2       1 FMN801      0.0000 
      3 O2         70.6300   23.2100   66.7580 O.2       1 FMN801      0.0000 
      4 N3         72.2540   21.6780   67.2750 N.am      1 FMN801      0.0000 
      5 C4         72.6440   20.5820   68.0430 C.2       1 FMN801      0.0000 
      6 O4         73.7630   20.0730   67.9180 O.2       1 FMN801      0.0000 
      7 C4A        71.7710   20.0400   68.9700 C.2       1 FMN801      0.0000 
      8 N5         72.1580   18.9580   69.7340 N.2       1 FMN801      0.0000 
      9 C5A        71.2760   18.4420   70.6660 C.ar      1 FMN801      0.0000 
     10 C6         71.6820   17.3540   71.4330 C.ar      1 FMN801      0.0000 
     11 C7         70.8140   16.8280   72.3670 C.ar      1 FMN801      0.0000 
     12 C7M        71.2240   15.6660   73.1990 C.3       1 FMN801      0.0000 
     13 C8         69.5640   17.3740   72.5420 C.ar      1 FMN801      0.0000 
     14 C8M        68.6510   16.7700   73.5590 C.3       1 FMN801      0.0000 
     15 C9         69.1480   18.4600   71.7770 C.ar      1 FMN801      0.0000 
     16 C9A        69.9960   19.0100   70.8270 C.ar      1 FMN801      0.0000 
     17 N10        69.6310   20.1170   70.0640 N.pl3     1 FMN801      0.0000 
     18 C10        70.5150   20.6060   69.1310 C.2       1 FMN801      0.0000 
     19 C1'        68.2980   20.8080   70.0340 C.3       1 FMN801      0.0000 
     20 C2'        67.6950   21.6220   71.1540 C.3       1 FMN801      0.0000 
     21 O2'        67.2730   20.7360   72.1770 O.3       1 FMN801      0.0000 
     22 C3'        66.5480   22.4090   70.4740 C.3       1 FMN801      0.0000 
     23 O3'        67.1010   23.1830   69.4170 O.3       1 FMN801      0.0000 
     24 C4'        65.6790   23.2430   71.4440 C.3       1 FMN801      0.0000 
     25 O4'        64.3220   22.8880   71.2680 O.3       1 FMN801      0.0000 
     26 C5'        65.7720   24.7820   71.3790 C.3       1 FMN801      0.0000 
     27 O5'        67.0870   25.3320   71.4750 O.3       1 FMN801      0.0000 
     28 P          67.5900   26.4040   72.6050 P.3       1 FMN801      0.0000 
     29 O1P        68.6460   27.2970   71.9870 O.co2     1 FMN801      0.0000 
     30 O2P        66.4440   27.2410   73.1280 O.co2     1 FMN801      0.0000 
     31 O3P        68.2440   25.6640   73.7720 O.co2     1 FMN801      0.0000 
@<TRIPOS>BOND
     1    1    2 1    
     2    1   18 2    
     3    2    3 2    
     4    2    4 am   
     5    4    5 am   
     6    5    6 2    
     7    5    7 1    
     8    7    8 2    
     9    7   18 1    
    10    8    9 1    
    11    9   10 ar   
    12    9   16 ar   
    13   10   11 ar   
    14   11   12 1    
    15   11   13 ar   
    16   13   14 1    
    17   13   15 ar   
    18   15   16 ar   
    19   16   17 1    
    20   17   18 1    
    21   17   19 1    
    22   19   20 1    
    23   20   21 1    
    24   20   22 1    
    25   22   23 1    
    26   22   24 1    
    27   24   25 1    
    28   24   26 1    
    29   26   27 1    
    30   27   28 1    
    31   28   29 ar   
    32   28   30 ar   
    33   28   31 ar   
@<TRIPOS>SUBSTRUCTURE
     1 FMN801      1 GROUP   
@<TRIPOS>SET
ATOM$ORANGE STATIC     ATOMS   COLORGROUP SYSTEM 
34 2 2 5 5 7 7 9 9 10 10 11 11 12 12 13 13 14 \
14 15 15 16 16 18 18 19 19 20 20 22 22 24 24 26 26 

