#    Name: 6mvg_3_FMN_CAVITY_N1_4
#    Modification time : Fri May 22 19:27:02 2020

@<TRIPOS>MOLECULE
6mvg_3_FMN_CAVITY_N1_4
   55     0     6     0     0
SMALL
NO_CHARGES


@<TRIPOS>ATOM
      1 OG         67.9800   36.4900   82.1400 O.3       1 SER1        0.0000 
      2 OG         65.0700   37.2400   82.1800 O.3       1 SER1        0.0000 
      3 OD1        64.4900   34.8600   84.4700 O.co2     2 ASP3        0.0000 
      4 OD1        66.1900   35.3400   86.3800 O.co2     2 ASP3        0.0000 
      5 OD1        64.7400   35.7100   86.4000 O.co2     2 ASP3        0.0000 
      6 OD1        64.6200   35.2000   87.8100 O.co2     2 ASP3        0.0000 
      7 NZ         67.1600   33.2600   82.5100 N.4       3 LYS4        0.0000 
      8 NZ         67.6200   35.1300   81.6200 N.4       3 LYS4        0.0000 
      9 NZ         67.5100   34.6200   83.0300 N.4       3 LYS4        0.0000 
     10 NZ         67.6100   40.7800   88.4600 N.4       3 LYS4        0.0000 
     11 NZ         66.1600   41.1600   88.4800 N.4       3 LYS4        0.0000 
     12 NZ         67.5000   40.2800   89.8700 N.4       3 LYS4        0.0000 
     13 NZ         66.0500   40.6500   89.8900 N.4       3 LYS4        0.0000 
     14 CZ         66.5300   36.8600   82.1600 C.ar      4 PHE5        0.0000 
     15 CZ         66.4100   36.3600   83.5700 C.ar      4 PHE5        0.0000 
     16 CZ         68.3400   37.8500   82.6600 C.ar      4 PHE5        0.0000 
     17 CZ         66.8800   38.2200   82.6800 C.ar      4 PHE5        0.0000 
     18 CZ         68.2200   37.3400   84.0700 C.ar      4 PHE5        0.0000 
     19 CZ         66.7700   37.7200   84.0900 C.ar      4 PHE5        0.0000 
     20 CZ         66.6600   37.2100   85.4900 C.ar      4 PHE5        0.0000 
     21 CZ         67.0100   38.5700   86.0100 C.ar      4 PHE5        0.0000 
     22 CZ         65.4500   38.4300   87.4400 C.ar      4 PHE5        0.0000 
     23 CZ         67.3700   39.9300   86.5300 C.ar      4 PHE5        0.0000 
     24 CZ         67.2600   39.4200   87.9400 C.ar      4 PHE5        0.0000 
     25 CZ         65.8000   39.8000   87.9600 C.ar      4 PHE5        0.0000 
     26 CZ         64.2400   39.6600   89.3800 C.ar      4 PHE5        0.0000 
     27 CZ         62.6700   39.5300   90.8100 C.ar      4 PHE5        0.0000 
     28 CZ         64.5900   41.0200   89.9000 C.ar      4 PHE5        0.0000 
     29 CZ         64.4800   40.5100   91.3100 C.ar      4 PHE5        0.0000 
     30 CA         67.0400   32.7500   83.9200 C.3       5 GLY6        0.0000 
     31 CA         65.5900   33.1200   83.9300 C.3       5 GLY6        0.0000 
     32 CA         67.4000   34.1100   84.4400 C.3       5 GLY6        0.0000 
     33 CA         65.9500   34.4900   84.4500 C.3       5 GLY6        0.0000 
     34 CA         67.2900   33.6100   85.8400 C.3       5 GLY6        0.0000 
     35 CA         65.8300   33.9800   85.8600 C.3       5 GLY6        0.0000 
     36 CA         67.6400   34.9700   86.3600 C.3       5 GLY6        0.0000 
     37 CA         65.2200   37.4200   90.2500 C.3       5 GLY6        0.0000 
     38 CA         67.1400   38.9100   89.3500 C.3       5 GLY6        0.0000 
     39 CA         65.5800   38.7800   90.7700 C.3       5 GLY6        0.0000 
     40 CA         67.7300   41.2900   87.0500 C.3       5 GLY6        0.0000 
     41 CA         65.9300   40.1400   91.2900 C.3       5 GLY6        0.0000 
     42 DU         66.0600   34.9900   83.0500 H         6 CUB7        0.0000 
     43 DU         67.8700   35.9800   83.5500 H         6 CUB7        0.0000 
     44 DU         66.3000   35.8500   84.9700 H         6 CUB7        0.0000 
     45 DU         68.1100   36.8400   85.4800 H         6 CUB7        0.0000 
     46 DU         66.5400   36.7000   86.9000 H         6 CUB7        0.0000 
     47 DU         65.0900   37.0700   86.9200 H         6 CUB7        0.0000 
     48 DU         63.5300   36.9400   88.3400 H         6 CUB7        0.0000 
     49 DU         63.4100   36.4300   89.7500 H         6 CUB7        0.0000 
     50 DU         66.9000   38.0600   87.4200 H         6 CUB7        0.0000 
     51 DU         66.7900   37.5500   88.8300 H         6 CUB7        0.0000 
     52 DU         65.3300   37.9300   88.8500 H         6 CUB7        0.0000 
     53 DU         63.7700   37.7900   90.2700 H         6 CUB7        0.0000 
     54 DU         65.6900   39.2900   89.3700 H         6 CUB7        0.0000 
     55 DU         64.1200   39.1500   90.7900 H         6 CUB7        0.0000 
@<TRIPOS>BOND
@<TRIPOS>SUBSTRUCTURE
     1 SER1        1 GROUP   
     2 ASP3        3 GROUP   
     3 LYS4        7 GROUP   
     4 PHE5       14 GROUP   
     5 GLY6       30 GROUP   
     6 CUB7       42 GROUP   
@<TRIPOS>SET

