#    Name: 6mvg_3_FMN
#    Modification time : Fri May 22 19:27:00 2020

@<TRIPOS>MOLECULE
6mvg_3_FMN
   31    33     1     0     1
SMALL
NO_CHARGES


@<TRIPOS>ATOM
      1 N1         63.2450   41.3500   87.5240 N.2       1 FMN801      0.0000 
      2 C2         64.4340   41.7710   88.1070 C.2       1 FMN801      0.0000 
      3 O2         65.1170   40.9960   88.7830 O.2       1 FMN801      0.0000 
      4 N3         64.8630   43.0800   87.9450 N.am      1 FMN801      0.0000 
      5 C4         64.1190   43.9820   87.2110 C.2       1 FMN801      0.0000 
      6 O4         64.5130   45.1450   87.0650 O.2       1 FMN801      0.0000 
      7 C4A        62.9290   43.5800   86.6170 C.2       1 FMN801      0.0000 
      8 N5         62.1900   44.4950   85.8740 N.2       1 FMN801      0.0000 
      9 C5A        61.0060   44.1030   85.2770 C.ar      1 FMN801      0.0000 
     10 C6         60.2520   45.0090   84.5300 C.ar      1 FMN801      0.0000 
     11 C7         59.0490   44.6040   83.9400 C.ar      1 FMN801      0.0000 
     12 C7M        58.2560   45.6030   83.1410 C.3       1 FMN801      0.0000 
     13 C8         58.6110   43.2750   84.0980 C.ar      1 FMN801      0.0000 
     14 C8M        57.3310   42.7540   83.4980 C.3       1 FMN801      0.0000 
     15 C9         59.3690   42.3890   84.8490 C.ar      1 FMN801      0.0000 
     16 C9A        60.5600   42.7910   85.4370 C.ar      1 FMN801      0.0000 
     17 N10        61.2980   41.8680   86.1690 N.pl3     1 FMN801      0.0000 
     18 C10        62.4870   42.2570   86.7800 C.2       1 FMN801      0.0000 
     19 C1'        60.7660   40.4750   86.3500 C.3       1 FMN801      0.0000 
     20 C2'        61.2220   39.3590   85.4260 C.3       1 FMN801      0.0000 
     21 O2'        60.7880   39.5790   84.0940 O.3       1 FMN801      0.0000 
     22 C3'        60.5560   38.1140   86.0280 C.3       1 FMN801      0.0000 
     23 O3'        60.8430   38.0480   87.4200 O.3       1 FMN801      0.0000 
     24 C4'        60.8780   36.8180   85.2580 C.3       1 FMN801      0.0000 
     25 O4'        60.1990   35.6840   85.7810 O.3       1 FMN801      0.0000 
     26 C5'        62.3710   36.5340   85.1610 C.3       1 FMN801      0.0000 
     27 O5'        62.5490   35.7930   83.9760 O.3       1 FMN801      0.0000 
     28 P          63.9170   35.8610   83.1130 P.3       1 FMN801      0.0000 
     29 O1P        65.0660   36.2270   84.0440 O.co2     1 FMN801      0.0000 
     30 O2P        64.1020   34.4930   82.4840 O.co2     1 FMN801      0.0000 
     31 O3P        63.8490   36.8680   81.9740 O.co2     1 FMN801      0.0000 
@<TRIPOS>BOND
     1    1    2 1    
     2    1   18 2    
     3    2    3 2    
     4    2    4 am   
     5    4    5 am   
     6    5    6 2    
     7    5    7 1    
     8    7    8 2    
     9    7   18 1    
    10    8    9 1    
    11    9   10 ar   
    12    9   16 ar   
    13   10   11 ar   
    14   11   12 1    
    15   11   13 ar   
    16   13   14 1    
    17   13   15 ar   
    18   15   16 ar   
    19   16   17 1    
    20   17   18 1    
    21   17   19 1    
    22   19   20 1    
    23   20   21 1    
    24   20   22 1    
    25   22   23 1    
    26   22   24 1    
    27   24   25 1    
    28   24   26 1    
    29   26   27 1    
    30   27   28 1    
    31   28   29 ar   
    32   28   30 ar   
    33   28   31 ar   
@<TRIPOS>SUBSTRUCTURE
     1 FMN801      1 GROUP   
@<TRIPOS>SET
ATOM$ORANGE STATIC     ATOMS   COLORGROUP SYSTEM 
34 2 2 5 5 7 7 9 9 10 10 11 11 12 12 13 13 14 \
14 15 15 16 16 18 18 19 19 20 20 22 22 24 24 26 26 

