#    Name: 6hks_4_ARG_ARG_GLU_THR_GLN_LEU
#    Modification time : Fri May 22 19:26:44 2020

@<TRIPOS>MOLECULE
6hks_4_ARG_ARG_GLU_THR_GLN_LEU
   56    55     6     0     0
SMALL
NO_CHARGES


@<TRIPOS>ATOM
      1 N          12.6180   52.7460   35.3080 N.4       1 ARG2        0.0000 
      2 CA         12.5500   52.3780   36.7180 C.3       1 ARG2        0.0000 
      3 C          12.5530   50.8600   36.8960 C.2       1 ARG2        0.0000 
      4 O          12.7140   50.3520   38.0120 O.2       1 ARG2        0.0000 
      5 CB         11.3060   52.9810   37.3620 C.3       1 ARG2        0.0000 
      6 CG         11.5770   54.2360   38.1730 C.3       1 ARG2        0.0000 
      7 CD         10.9080   54.1470   39.5330 C.3       1 ARG2        0.0000 
      8 NE         11.2830   52.9220   40.2330 N.pl3     1 ARG2        0.0000 
      9 CZ         10.5940   52.3950   41.2410 C.cat     1 ARG2        0.0000 
     10 NH1        11.0140   51.2770   41.8200 N.pl3     1 ARG2        0.0000 
     11 NH2         9.4860   52.9870   41.6690 N.pl3     1 ARG2        0.0000 
     12 N          12.3740   50.1440   35.7850 N.am      2 ARG3        0.0000 
     13 CA         12.3490   48.6860   35.7720 C.3       2 ARG3        0.0000 
     14 C          13.0710   48.1770   34.5320 C.2       2 ARG3        0.0000 
     15 O          12.7270   48.5730   33.4140 O.2       2 ARG3        0.0000 
     16 CB         10.9140   48.1670   35.7950 C.3       2 ARG3        0.0000 
     17 CG         10.7910   46.6890   36.0460 C.3       2 ARG3        0.0000 
     18 CD         10.3980   46.4170   37.4840 C.3       2 ARG3        0.0000 
     19 NE         10.5230   44.9970   37.7860 N.pl3     2 ARG3        0.0000 
     20 CZ          9.5920   44.0980   37.4920 C.cat     2 ARG3        0.0000 
     21 NH1         8.4710   44.4830   36.9000 N.pl3     2 ARG3        0.0000 
     22 NH2         9.7760   42.8210   37.7940 N.pl3     2 ARG3        0.0000 
     23 N          14.0710   47.3100   34.7320 N.am      3 GLU4        0.0000 
     24 CA         14.8890   46.7790   33.6430 C.3       3 GLU4        0.0000 
     25 C          15.2190   45.3260   33.9380 C.2       3 GLU4        0.0000 
     26 O          15.7890   45.0240   34.9890 O.2       3 GLU4        0.0000 
     27 CB         16.1760   47.5910   33.4680 C.3       3 GLU4        0.0000 
     28 CG         17.1040   47.0160   32.4160 C.3       3 GLU4        0.0000 
     29 CD         18.4070   47.8020   32.2510 C.2       3 GLU4        0.0000 
     30 OE1        18.6420   48.7500   33.0360 O.co2     3 GLU4        0.0000 
     31 OE2        19.1970   47.4620   31.3320 O.co2     3 GLU4        0.0000 
     32 N          14.8940   44.4320   33.0080 N.am      4 THR5        0.0000 
     33 CA         14.9910   42.9910   33.2240 C.3       4 THR5        0.0000 
     34 C          15.9320   42.3530   32.2120 C.2       4 THR5        0.0000 
     35 O          15.9330   42.7380   31.0370 O.2       4 THR5        0.0000 
     36 CB         13.5990   42.3470   33.1180 C.3       4 THR5        0.0000 
     37 OG1        12.7260   42.9740   34.0630 O.3       4 THR5        0.0000 
     38 CG2        13.6650   40.8450   33.3930 C.3       4 THR5        0.0000 
     39 N          16.7230   41.3690   32.6650 N.am      5 GLN6        0.0000 
     40 CA         17.6870   40.6700   31.8120 C.3       5 GLN6        0.0000 
     41 C          17.0490   39.4130   31.2440 C.2       5 GLN6        0.0000 
     42 O          16.6110   38.5410   32.0020 O.2       5 GLN6        0.0000 
     43 CB         18.9570   40.2700   32.5720 C.3       5 GLN6        0.0000 
     44 CG         19.8040   41.3890   33.1290 C.3       5 GLN6        0.0000 
     45 CD         20.8730   40.8730   34.1100 C.2       5 GLN6        0.0000 
     46 OE1        21.1710   39.6730   34.1510 O.2       5 GLN6        0.0000 
     47 NE2        21.4330   41.7770   34.9110 N.am      5 GLN6        0.0000 
     48 N          17.0420   39.2980   29.9210 N.am      6 LEU7        0.0000 
     49 CA         16.4480   38.1440   29.2560 C.3       6 LEU7        0.0000 
     50 C          17.5050   37.3480   28.5110 C.2       6 LEU7        0.0000 
     51 O          17.2630   36.1990   28.1390 O.2       6 LEU7        0.0000 
     52 CB         15.3490   38.5730   28.2770 C.3       6 LEU7        0.0000 
     53 CG         14.0290   39.1750   28.7700 C.3       6 LEU7        0.0000 
     54 CD1        13.5120   38.4500   30.0050 C.3       6 LEU7        0.0000 
     55 CD2        14.1610   40.6730   29.0140 C.3       6 LEU7        0.0000 
     56 OXT        18.6070   37.8410   28.2470 O.3       6 LEU7        0.0000 
@<TRIPOS>BOND
     1    1    2 1    
     2    2    3 1    
     3    2    5 1    
     4    3    4 2    
     5    3   12 am   
     6    5    6 1    
     7    6    7 1    
     8    7    8 1    
     9    8    9 ar   
    10    9   10 ar   
    11    9   11 ar   
    12   12   13 1    
    13   13   14 1    
    14   13   16 1    
    15   14   15 2    
    16   14   23 am   
    17   16   17 1    
    18   17   18 1    
    19   18   19 1    
    20   19   20 ar   
    21   20   21 ar   
    22   20   22 ar   
    23   23   24 1    
    24   24   25 1    
    25   24   27 1    
    26   25   26 2    
    27   25   32 am   
    28   27   28 1    
    29   28   29 1    
    30   29   30 ar   
    31   29   31 ar   
    32   32   33 1    
    33   33   34 1    
    34   33   36 1    
    35   34   35 2    
    36   34   39 am   
    37   36   37 1    
    38   36   38 1    
    39   39   40 1    
    40   40   41 1    
    41   40   43 1    
    42   41   42 2    
    43   41   48 am   
    44   43   44 1    
    45   44   45 1    
    46   45   46 2    
    47   45   47 am   
    48   48   49 1    
    49   49   50 1    
    50   49   52 1    
    51   50   51 2    
    52   50   56 1    
    53   52   53 1    
    54   53   54 1    
    55   53   55 1    
@<TRIPOS>SUBSTRUCTURE
     1 ARG2        1 RESIDUE 
     2 ARG3       12 RESIDUE 
     3 GLU4       23 RESIDUE 
     4 THR5       32 RESIDUE 
     5 GLN6       39 RESIDUE 
     6 LEU7       48 RESIDUE 
@<TRIPOS>SET

