#    Name: 6cd1_2_PLG
#    Modification time : Fri May 22 19:32:21 2020

@<TRIPOS>MOLECULE
6cd1_2_PLG
   20    20     1     0     0
SMALL
NO_CHARGES


@<TRIPOS>ATOM
      1 N1         24.3340   20.2540   91.7480 N.ar      1 PLG601      0.0000 
      2 C2         24.6910   19.1420   92.4640 C.ar      1 PLG601      0.0000 
      3 C2A        26.1300   18.9660   92.9820 C.3       1 PLG601      0.0000 
      4 C3         23.7260   18.1780   92.7120 C.ar      1 PLG601      0.0000 
      5 O3         24.0700   17.0290   93.4400 O.3       1 PLG601      0.0000 
      6 C4         22.4380   18.3540   92.2340 C.ar      1 PLG601      0.0000 
      7 C4A        21.3990   17.2530   92.4900 C.3       1 PLG601      0.0000 
      8 C5         22.1090   19.4980   91.5160 C.ar      1 PLG601      0.0000 
      9 C6         23.0850   20.4590   91.2730 C.ar      1 PLG601      0.0000 
     10 C5A        20.7120   19.7380   90.9310 C.3       1 PLG601      0.0000 
     11 OP4        19.7240   19.9750   91.9110 O.3       1 PLG601      0.0000 
     12 P          18.1620   19.9040   91.3500 P.3       1 PLG601      0.0000 
     13 OP1        18.0030   20.5050   89.9310 O.co2     1 PLG601      0.0000 
     14 OP2        17.8290   18.4420   91.3680 O.co2     1 PLG601      0.0000 
     15 OP3        17.2180   20.6730   92.2620 O.co2     1 PLG601      0.0000 
     16 C          21.4280   13.9860   93.9020 C.2       1 PLG601      0.0000 
     17 O          22.6250   14.1310   94.2210 O.co2     1 PLG601      0.0000 
     18 OXT        20.7190   13.0580   94.4100 O.co2     1 PLG601      0.0000 
     19 CA         20.8210   14.9420   92.8660 C.3       1 PLG601      0.0000 
     20 N          21.7520   16.0430   92.6150 N.4       1 PLG601      0.0000 
@<TRIPOS>BOND
     1    1    2 ar   
     2    1    9 ar   
     3    2    3 1    
     4    2    4 ar   
     5    4    5 1    
     6    4    6 ar   
     7    6    7 1    
     8    6    8 ar   
     9    7   20 1    
    10    8    9 ar   
    11    8   10 1    
    12   10   11 1    
    13   11   12 1    
    14   12   13 ar   
    15   12   14 ar   
    16   12   15 ar   
    17   16   17 ar   
    18   16   18 ar   
    19   16   19 1    
    20   19   20 1    
@<TRIPOS>SUBSTRUCTURE
     1 PLG601      1 GROUP   
@<TRIPOS>SET

