#    Name: 6cd1_2_PLG_CAVITY_N1_12
#    Modification time : Fri May 22 19:32:22 2020

@<TRIPOS>MOLECULE
6cd1_2_PLG_CAVITY_N1_12
   80     0     7     0     0
SMALL
NO_CHARGES


@<TRIPOS>ATOM
      1 OG         25.2000    5.5200   86.7400 O.3       1 SER1        0.0000 
      2 OG         25.5500    6.6100   85.7800 O.3       1 SER1        0.0000 
      3 OG         24.0700    5.8500   89.0600 O.3       1 SER1        0.0000 
      4 OG         24.4200    6.9500   88.1000 O.3       1 SER1        0.0000 
      5 OG         26.1100    7.4200   86.9200 O.3       1 SER1        0.0000 
      6 OG         24.9800    7.7600   89.2300 O.3       1 SER1        0.0000 
      7 OG         26.3300    7.1300   89.0100 O.3       1 SER1        0.0000 
      8 OG         22.0800   11.2500   92.1700 O.3       1 SER1        0.0000 
      9 OG         22.4300   12.3500   91.2100 O.3       1 SER1        0.0000 
     10 OG         21.6500   13.7800   92.5600 O.3       1 SER1        0.0000 
     11 OG         22.2100   14.5900   93.6900 O.3       1 SER1        0.0000 
     12 OG         22.5700   15.6800   92.7300 O.3       1 SER1        0.0000 
     13 N          22.9400    4.2400   86.7900 N.am      2 ALA2        0.0000 
     14 N          23.7100    4.7500   90.0200 N.am      2 ALA2        0.0000 
     15 N          26.6800    8.2300   88.0500 N.am      2 ALA2        0.0000 
     16 O          22.5100    8.7200   91.7700 O.2       2 ALA2        0.0000 
     17 N          23.8500    8.0900   91.5400 N.am      2 ALA2        0.0000 
     18 N          25.2000    7.4600   91.3200 N.am      2 ALA2        0.0000 
     19 N          24.2000    9.1900   90.5900 N.am      2 ALA2        0.0000 
     20 O          25.5500    8.5600   90.3600 O.2       2 ALA2        0.0000 
     21 O          26.8900    7.9400   90.1400 O.2       2 ALA2        0.0000 
     22 N          25.9000    9.6600   89.4000 N.am      2 ALA2        0.0000 
     23 O          23.0700    9.5200   92.9000 O.2       2 ALA2        0.0000 
     24 N          23.4200   10.6200   91.9400 N.am      2 ALA2        0.0000 
     25 N          24.7700   10.0000   91.7200 N.am      2 ALA2        0.0000 
     26 N          26.1100    9.3700   91.4900 N.am      2 ALA2        0.0000 
     27 N          25.1200   11.0900   90.7600 N.am      2 ALA2        0.0000 
     28 N          26.4600   10.4700   90.5300 N.am      2 ALA2        0.0000 
     29 N          24.1300   12.8200   90.0200 N.am      2 ALA2        0.0000 
     30 N          25.4700   12.1900   89.8000 N.am      2 ALA2        0.0000 
     31 N          25.3300   10.8000   92.8500 N.am      2 ALA2        0.0000 
     32 OD1        22.6400   12.0500   93.3000 O.co2     3 ASP3        0.0000 
     33 OD1        23.9900   11.4300   93.0700 O.co2     3 ASP3        0.0000 
     34 OD1        21.2200   16.3100   92.9600 O.co2     3 ASP3        0.0000 
     35 NZ         20.6600   15.5000   91.8300 N.4       4 LYS4        0.0000 
     36 CZ         21.5900    4.8600   87.0200 C.ar      5 PHE5        0.0000 
     37 CZ         21.9400    5.9600   86.0600 C.ar      5 PHE5        0.0000 
     38 CZ         22.3000    7.0600   85.1000 C.ar      5 PHE5        0.0000 
     39 CZ         22.1600    5.6700   88.1500 C.ar      5 PHE5        0.0000 
     40 CZ         22.5100    6.7700   87.1900 C.ar      5 PHE5        0.0000 
     41 CZ         21.5200    8.4900   86.4600 C.ar      5 PHE5        0.0000 
     42 CZ         21.7300    8.2000   88.5500 C.ar      5 PHE5        0.0000 
     43 CZ         22.7800   13.4400   90.2500 C.ar      5 PHE5        0.0000 
     44 CZ         22.0000   14.8800   91.6000 C.ar      5 PHE5        0.0000 
     45 CZ         23.3500   14.2500   91.3800 C.ar      5 PHE5        0.0000 
     46 CA         21.8100    4.5700   89.1100 C.3       6 GLY6        0.0000 
     47 CA         23.1500    3.9400   88.8800 C.3       6 GLY6        0.0000 
     48 CA         21.8700    9.5900   85.5000 C.3       6 GLY6        0.0000 
     49 CA         23.2100    8.9600   85.2700 C.3       6 GLY6        0.0000 
     50 CA         24.5600    8.3400   85.0500 C.3       6 GLY6        0.0000 
     51 CA         25.9000    7.7100   84.8200 C.3       6 GLY6        0.0000 
     52 CA         24.7700    8.0500   87.1400 C.3       6 GLY6        0.0000 
     53 CA         22.4300   10.4000   86.6300 C.3       6 GLY6        0.0000 
     54 CA         23.7800    9.7700   86.4000 C.3       6 GLY6        0.0000 
     55 CA         26.4700    8.5200   85.9600 C.3       6 GLY6        0.0000 
     56 CA         24.6300    6.6600   90.1900 C.3       6 GLY6        0.0000 
     57 CA         25.3300    8.8500   88.2700 C.3       6 GLY6        0.0000 
     58 CA         23.0000   11.2000   87.7600 C.3       6 GLY6        0.0000 
     59 CA         24.3400   10.5800   87.5400 C.3       6 GLY6        0.0000 
     60 CA         24.9100   11.3900   88.6700 C.3       6 GLY6        0.0000 
     61 CA         23.7700   11.7200   90.9800 C.3       6 GLY6        0.0000 
     62 CA         22.9900   13.1500   92.3400 C.3       6 GLY6        0.0000 
     63 CA         24.3400   12.5300   92.1100 C.3       6 GLY6        0.0000 
     64 CA         25.6800   11.9000   91.8900 C.3       6 GLY6        0.0000 
     65 CA         23.5600   13.9600   93.4700 C.3       6 GLY6        0.0000 
     66 DU         23.2900    5.3300   85.8400 H         7 CUB7        0.0000 
     67 DU         23.6400    6.4300   84.8800 H         7 CUB7        0.0000 
     68 DU         23.5000    5.0400   87.9300 H         7 CUB7        0.0000 
     69 DU         23.8500    6.1400   86.9700 H         7 CUB7        0.0000 
     70 DU         22.8600    7.8700   86.2300 H         7 CUB7        0.0000 
     71 DU         24.2100    7.2400   86.0100 H         7 CUB7        0.0000 
     72 DU         22.7200    6.4800   89.2800 H         7 CUB7        0.0000 
     73 DU         23.0700    7.5700   88.3200 H         7 CUB7        0.0000 
     74 DU         22.0800    9.3000   87.5900 H         7 CUB7        0.0000 
     75 DU         23.4300    8.6700   87.3600 H         7 CUB7        0.0000 
     76 DU         23.6400    8.3800   89.4500 H         7 CUB7        0.0000 
     77 DU         23.9900    9.4800   88.5000 H         7 CUB7        0.0000 
     78 DU         22.8600    9.8100   90.8100 H         7 CUB7        0.0000 
     79 DU         23.2100   10.9100   89.8500 H         7 CUB7        0.0000 
     80 DU         24.5500   10.2900   89.6300 H         7 CUB7        0.0000 
@<TRIPOS>BOND
@<TRIPOS>SUBSTRUCTURE
     1 SER1        1 GROUP   
     2 ALA2       13 GROUP   
     3 ASP3       32 GROUP   
     4 LYS4       35 GROUP   
     5 PHE5       36 GROUP   
     6 GLY6       46 GROUP   
     7 CUB7       66 GROUP   
@<TRIPOS>SET

