#    Name: 6cd1_2_PLG_CAVITY_N1_8
#    Modification time : Fri May 22 19:32:22 2020

@<TRIPOS>MOLECULE
6cd1_2_PLG_CAVITY_N1_8
   43     0     7     0     0
SMALL
NO_CHARGES


@<TRIPOS>ATOM
      1 OG         22.0800   11.2500   92.1700 O.3       1 SER1        0.0000 
      2 OG         22.4300   12.3500   91.2100 O.3       1 SER1        0.0000 
      3 OG         21.6500   13.7800   92.5600 O.3       1 SER1        0.0000 
      4 OG         22.2100   14.5900   93.6900 O.3       1 SER1        0.0000 
      5 OG         22.5700   15.6800   92.7300 O.3       1 SER1        0.0000 
      6 O          22.5100    8.7200   91.7700 O.2       2 ALA2        0.0000 
      7 N          23.8500    8.0900   91.5400 N.am      2 ALA2        0.0000 
      8 N          25.2000    7.4600   91.3200 N.am      2 ALA2        0.0000 
      9 N          24.2000    9.1900   90.5900 N.am      2 ALA2        0.0000 
     10 O          25.5500    8.5600   90.3600 O.2       2 ALA2        0.0000 
     11 N          25.9000    9.6600   89.4000 N.am      2 ALA2        0.0000 
     12 O          23.0700    9.5200   92.9000 O.2       2 ALA2        0.0000 
     13 N          23.4200   10.6200   91.9400 N.am      2 ALA2        0.0000 
     14 N          24.7700   10.0000   91.7200 N.am      2 ALA2        0.0000 
     15 N          26.1100    9.3700   91.4900 N.am      2 ALA2        0.0000 
     16 N          25.1200   11.0900   90.7600 N.am      2 ALA2        0.0000 
     17 N          26.4600   10.4700   90.5300 N.am      2 ALA2        0.0000 
     18 N          24.1300   12.8200   90.0200 N.am      2 ALA2        0.0000 
     19 N          25.4700   12.1900   89.8000 N.am      2 ALA2        0.0000 
     20 N          25.3300   10.8000   92.8500 N.am      2 ALA2        0.0000 
     21 OD1        22.6400   12.0500   93.3000 O.co2     3 ASP3        0.0000 
     22 OD1        23.9900   11.4300   93.0700 O.co2     3 ASP3        0.0000 
     23 OD1        21.2200   16.3100   92.9600 O.co2     3 ASP3        0.0000 
     24 NZ         20.6600   15.5000   91.8300 N.4       4 LYS4        0.0000 
     25 CZ         21.7300    8.2000   88.5500 C.ar      5 PHE5        0.0000 
     26 CZ         22.7800   13.4400   90.2500 C.ar      5 PHE5        0.0000 
     27 CZ         22.0000   14.8800   91.6000 C.ar      5 PHE5        0.0000 
     28 CZ         23.3500   14.2500   91.3800 C.ar      5 PHE5        0.0000 
     29 CA         22.4300   10.4000   86.6300 C.3       6 GLY6        0.0000 
     30 CA         23.0000   11.2000   87.7600 C.3       6 GLY6        0.0000 
     31 CA         24.3400   10.5800   87.5400 C.3       6 GLY6        0.0000 
     32 CA         24.9100   11.3900   88.6700 C.3       6 GLY6        0.0000 
     33 CA         23.7700   11.7200   90.9800 C.3       6 GLY6        0.0000 
     34 CA         22.9900   13.1500   92.3400 C.3       6 GLY6        0.0000 
     35 CA         24.3400   12.5300   92.1100 C.3       6 GLY6        0.0000 
     36 CA         25.6800   11.9000   91.8900 C.3       6 GLY6        0.0000 
     37 CA         23.5600   13.9600   93.4700 C.3       6 GLY6        0.0000 
     38 DU         22.0800    9.3000   87.5900 H         7 CUB7        0.0000 
     39 DU         23.6400    8.3800   89.4500 H         7 CUB7        0.0000 
     40 DU         23.9900    9.4800   88.5000 H         7 CUB7        0.0000 
     41 DU         22.8600    9.8100   90.8100 H         7 CUB7        0.0000 
     42 DU         23.2100   10.9100   89.8500 H         7 CUB7        0.0000 
     43 DU         24.5500   10.2900   89.6300 H         7 CUB7        0.0000 
@<TRIPOS>BOND
@<TRIPOS>SUBSTRUCTURE
     1 SER1        1 GROUP   
     2 ALA2        6 GROUP   
     3 ASP3       21 GROUP   
     4 LYS4       24 GROUP   
     5 PHE5       25 GROUP   
     6 GLY6       29 GROUP   
     7 CUB7       38 GROUP   
@<TRIPOS>SET

