#    Name: 6cd1_2_PLG_CAVITY_N1_6
#    Modification time : Fri May 22 19:32:22 2020

@<TRIPOS>MOLECULE
6cd1_2_PLG_CAVITY_N1_6
   27     0     7     0     0
SMALL
NO_CHARGES


@<TRIPOS>ATOM
      1 OG         22.0800   11.2500   92.1700 O.3       1 SER1        0.0000 
      2 OG         22.4300   12.3500   91.2100 O.3       1 SER1        0.0000 
      3 OG         21.6500   13.7800   92.5600 O.3       1 SER1        0.0000 
      4 OG         22.2100   14.5900   93.6900 O.3       1 SER1        0.0000 
      5 OG         22.5700   15.6800   92.7300 O.3       1 SER1        0.0000 
      6 O          22.5100    8.7200   91.7700 O.2       2 ALA2        0.0000 
      7 O          23.0700    9.5200   92.9000 O.2       2 ALA2        0.0000 
      8 N          23.4200   10.6200   91.9400 N.am      2 ALA2        0.0000 
      9 N          24.7700   10.0000   91.7200 N.am      2 ALA2        0.0000 
     10 N          25.1200   11.0900   90.7600 N.am      2 ALA2        0.0000 
     11 N          24.1300   12.8200   90.0200 N.am      2 ALA2        0.0000 
     12 N          25.4700   12.1900   89.8000 N.am      2 ALA2        0.0000 
     13 N          25.3300   10.8000   92.8500 N.am      2 ALA2        0.0000 
     14 OD1        22.6400   12.0500   93.3000 O.co2     3 ASP3        0.0000 
     15 OD1        23.9900   11.4300   93.0700 O.co2     3 ASP3        0.0000 
     16 OD1        21.2200   16.3100   92.9600 O.co2     3 ASP3        0.0000 
     17 NZ         20.6600   15.5000   91.8300 N.4       4 LYS4        0.0000 
     18 CZ         22.7800   13.4400   90.2500 C.ar      5 PHE5        0.0000 
     19 CZ         22.0000   14.8800   91.6000 C.ar      5 PHE5        0.0000 
     20 CZ         23.3500   14.2500   91.3800 C.ar      5 PHE5        0.0000 
     21 CA         23.7700   11.7200   90.9800 C.3       6 GLY6        0.0000 
     22 CA         22.9900   13.1500   92.3400 C.3       6 GLY6        0.0000 
     23 CA         24.3400   12.5300   92.1100 C.3       6 GLY6        0.0000 
     24 CA         25.6800   11.9000   91.8900 C.3       6 GLY6        0.0000 
     25 CA         23.5600   13.9600   93.4700 C.3       6 GLY6        0.0000 
     26 DU         22.8600    9.8100   90.8100 H         7 CUB7        0.0000 
     27 DU         23.2100   10.9100   89.8500 H         7 CUB7        0.0000 
@<TRIPOS>BOND
@<TRIPOS>SUBSTRUCTURE
     1 SER1        1 GROUP   
     2 ALA2        6 GROUP   
     3 ASP3       14 GROUP   
     4 LYS4       17 GROUP   
     5 PHE5       18 GROUP   
     6 GLY6       21 GROUP   
     7 CUB7       26 GROUP   
@<TRIPOS>SET

