#    Name: 6qya_2_FFO
#    Modification time : Fri May 22 19:39:48 2020

@<TRIPOS>MOLECULE
6qya_2_FFO
   34    36     1     0     0
SMALL
NO_CHARGES


@<TRIPOS>ATOM
      1 N1        -13.4170  -18.9810   16.5390 N.2       1 FFO401      0.0000 
      2 C2        -13.1850  -17.9070   17.3220 C.2       1 FFO401      0.0000 
      3 NA2       -13.3390  -16.7070   16.7540 N.pl3     1 FFO401      0.0000 
      4 N3        -12.7750  -18.0090   18.5950 N.am      1 FFO401      0.0000 
      5 C4        -12.6250  -19.3060   19.1520 C.2       1 FFO401      0.0000 
      6 O4        -12.2620  -19.3800   20.3310 O.2       1 FFO401      0.0000 
      7 C4A       -12.8430  -20.4670   18.3820 C.2       1 FFO401      0.0000 
      8 N5        -12.7600  -21.7980   18.9000 N.am      1 FFO401      0.0000 
      9 C6        -13.6910  -22.7650   18.2550 C.3       1 FFO401      0.0000 
     10 C7        -13.6480  -22.7100   16.7220 C.3       1 FFO401      0.0000 
     11 N8        -13.5540  -21.3510   16.2220 N.pl3     1 FFO401      0.0000 
     12 C8A       -13.2360  -20.2890   17.0180 C.2       1 FFO401      0.0000 
     13 C9        -15.1500  -22.4810   18.6600 C.3       1 FFO401      0.0000 
     14 N10       -15.2880  -22.1040   20.0700 N.pl3     1 FFO401      0.0000 
     15 C11       -18.2520  -19.5440   21.5690 C.ar      1 FFO401      0.0000 
     16 C12       -17.3450  -20.1640   22.4160 C.ar      1 FFO401      0.0000 
     17 C13       -16.3990  -21.0430   21.9370 C.ar      1 FFO401      0.0000 
     18 C14       -16.2520  -21.2240   20.5300 C.ar      1 FFO401      0.0000 
     19 C15       -17.1210  -20.5610   19.6560 C.ar      1 FFO401      0.0000 
     20 C16       -18.1030  -19.7240   20.1800 C.ar      1 FFO401      0.0000 
     21 C         -19.3210  -18.5810   22.0340 C.2       1 FFO401      0.0000 
     22 O         -19.8850  -17.8510   21.2120 O.2       1 FFO401      0.0000 
     23 N         -19.6170  -18.4690   23.3550 N.am      1 FFO401      0.0000 
     24 CA        -20.5760  -17.4580   23.7870 C.3       1 FFO401      0.0000 
     25 CB        -22.0540  -17.9140   23.6670 C.3       1 FFO401      0.0000 
     26 CG        -22.2060  -19.3050   24.2260 C.3       1 FFO401      0.0000 
     27 CD        -23.6310  -19.8250   24.1600 C.2       1 FFO401      0.0000 
     28 OE1       -23.9630  -20.3990   23.1020 O.co2     1 FFO401      0.0000 
     29 OE2       -24.3970  -19.6640   25.1840 O.co2     1 FFO401      0.0000 
     30 CT        -20.3400  -17.0870   25.2670 C.2       1 FFO401      0.0000 
     31 O1        -20.9790  -16.1090   25.6970 O.co2     1 FFO401      0.0000 
     32 O2        -19.4190  -17.6560   25.8730 O.co2     1 FFO401      0.0000 
     33 C5A       -11.7580  -22.1660   19.8520 C.2       1 FFO401      0.0000 
     34 O5B       -11.6210  -23.2620   20.5220 O.2       1 FFO401      0.0000 
@<TRIPOS>BOND
     1    1    2 2    
     2    1   12 1    
     3    2    3 1    
     4    2    4 1    
     5    4    5 am   
     6    5    6 2    
     7    5    7 1    
     8    7    8 1    
     9    7   12 2    
    10    8    9 1    
    11    8   33 am   
    12    9   10 1    
    13    9   13 1    
    14   10   11 1    
    15   11   12 1    
    16   13   14 1    
    17   14   18 1    
    18   15   16 ar   
    19   15   20 ar   
    20   15   21 1    
    21   16   17 ar   
    22   17   18 ar   
    23   18   19 ar   
    24   19   20 ar   
    25   21   22 2    
    26   21   23 am   
    27   23   24 1    
    28   24   25 1    
    29   24   30 1    
    30   25   26 1    
    31   26   27 1    
    32   27   28 ar   
    33   27   29 ar   
    34   30   31 ar   
    35   30   32 ar   
    36   33   34 2    
@<TRIPOS>SUBSTRUCTURE
     1 FFO401      1 GROUP   
@<TRIPOS>SET

