#    Name: 6qya_1_FFO
#    Modification time : Fri May 22 19:39:41 2020

@<TRIPOS>MOLECULE
6qya_1_FFO
   34    36     1     0     0
SMALL
NO_CHARGES


@<TRIPOS>ATOM
      1 N1        -14.2770   17.8860   30.5070 N.2       1 FFO401      0.0000 
      2 C2        -13.9290   16.8110   29.7460 C.2       1 FFO401      0.0000 
      3 NA2       -14.1800   15.6110   30.2770 N.pl3     1 FFO401      0.0000 
      4 N3        -13.3700   16.9070   28.5260 N.am      1 FFO401      0.0000 
      5 C4        -13.1010   18.1990   28.0200 C.2       1 FFO401      0.0000 
      6 O4        -12.6140   18.2460   26.8810 O.2       1 FFO401      0.0000 
      7 C4A       -13.5130   19.3680   28.7440 C.2       1 FFO401      0.0000 
      8 N5        -13.3560   20.6880   28.2340 N.am      1 FFO401      0.0000 
      9 C6        -14.3240   21.6640   28.7530 C.3       1 FFO401      0.0000 
     10 C7        -14.3820   21.6260   30.2990 C.3       1 FFO401      0.0000 
     11 N8        -14.5200   20.2720   30.7940 N.pl3     1 FFO401      0.0000 
     12 C8A       -14.0770   19.2030   30.0490 C.2       1 FFO401      0.0000 
     13 C9        -15.7480   21.3740   28.2100 C.3       1 FFO401      0.0000 
     14 N10       -15.7670   21.0640   26.7780 N.pl3     1 FFO401      0.0000 
     15 C11       -18.4900   18.4130   24.8840 C.ar      1 FFO401      0.0000 
     16 C12       -17.4780   19.0330   24.1580 C.ar      1 FFO401      0.0000 
     17 C13       -16.6030   19.9110   24.7880 C.ar      1 FFO401      0.0000 
     18 C14       -16.6710   20.1630   26.1810 C.ar      1 FFO401      0.0000 
     19 C15       -17.6290   19.4920   26.9290 C.ar      1 FFO401      0.0000 
     20 C16       -18.4970   18.5940   26.2910 C.ar      1 FFO401      0.0000 
     21 C         -19.4600   17.4100   24.2930 C.2       1 FFO401      0.0000 
     22 O         -20.1880   16.7350   25.0350 O.2       1 FFO401      0.0000 
     23 N         -19.5630   17.2730   22.9570 N.am      1 FFO401      0.0000 
     24 CA        -20.5400   16.3530   22.4100 C.3       1 FFO401      0.0000 
     25 CB        -21.9860   16.8890   22.3820 C.3       1 FFO401      0.0000 
     26 CG        -22.0620   18.2340   21.6790 C.3       1 FFO401      0.0000 
     27 CD        -23.4870   18.7630   21.6490 C.2       1 FFO401      0.0000 
     28 OE1       -23.9160   19.2630   22.7070 O.co2     1 FFO401      0.0000 
     29 OE2       -24.1780   18.5960   20.5910 O.co2     1 FFO401      0.0000 
     30 CT        -20.1170   15.9900   20.9670 C.2       1 FFO401      0.0000 
     31 O1        -20.7010   15.0250   20.4610 O.co2     1 FFO401      0.0000 
     32 O2        -19.1350   16.5730   20.4580 O.co2     1 FFO401      0.0000 
     33 C5A       -12.2580   20.9660   27.3610 C.2       1 FFO401      0.0000 
     34 O5B       -11.9900   22.0980   26.8000 O.2       1 FFO401      0.0000 
@<TRIPOS>BOND
     1    1    2 2    
     2    1   12 1    
     3    2    3 1    
     4    2    4 1    
     5    4    5 am   
     6    5    6 2    
     7    5    7 1    
     8    7    8 1    
     9    7   12 2    
    10    8    9 1    
    11    8   33 am   
    12    9   10 1    
    13    9   13 1    
    14   10   11 1    
    15   11   12 1    
    16   13   14 1    
    17   14   18 1    
    18   15   16 ar   
    19   15   20 ar   
    20   15   21 1    
    21   16   17 ar   
    22   17   18 ar   
    23   18   19 ar   
    24   19   20 ar   
    25   21   22 2    
    26   21   23 am   
    27   23   24 1    
    28   24   25 1    
    29   24   30 1    
    30   25   26 1    
    31   26   27 1    
    32   27   28 ar   
    33   27   29 ar   
    34   30   31 ar   
    35   30   32 ar   
    36   33   34 2    
@<TRIPOS>SUBSTRUCTURE
     1 FFO401      1 GROUP   
@<TRIPOS>SET

