#    Name: 6n9v_2_TTP
#    Modification time : Fri May 22 19:36:47 2020

@<TRIPOS>MOLECULE
6n9v_2_TTP
   29    30     1     0     0
SMALL
NO_CHARGES


@<TRIPOS>ATOM
      1 PA        176.7810  159.0330  121.3020 P.3       1 TTP700      0.0000 
      2 O1A       176.9380  160.2740  120.4600 O.co2     1 TTP700      0.0000 
      3 O2A       177.9970  158.8560  122.1760 O.co2     1 TTP700      0.0000 
      4 O3A       175.4460  159.1800  122.2460 O.3       1 TTP700      0.0000 
      5 PB        175.0940  160.2060  123.4760 P.3       1 TTP700      0.0000 
      6 O1B       176.1980  161.2250  123.6010 O.co2     1 TTP700      0.0000 
      7 O2B       173.7820  160.8930  123.1940 O.co2     1 TTP700      0.0000 
      8 O3B       174.9900  159.3690  124.8840 O.3       1 TTP700      0.0000 
      9 PG        174.6870  159.8500  126.3730 P.3       1 TTP700      0.0000 
     10 O1G       175.8290  160.7170  126.8430 O.co2     1 TTP700      0.0000 
     11 O2G       174.5510  158.6480  127.2760 O.co2     1 TTP700      0.0000 
     12 O3G       173.4030  160.6410  126.3840 O.co2     1 TTP700      0.0000 
     13 O5'       176.5840  157.7220  120.3310 O.3       1 TTP700      0.0000 
     14 C5'       175.4090  156.9840  120.4930 C.3       1 TTP700      0.0000 
     15 C4'       175.1310  156.1140  119.2490 C.3       1 TTP700      0.0000 
     16 O4'       173.8270  156.4240  118.7270 O.3       1 TTP700      0.0000 
     17 C3'       176.0440  156.4910  118.0910 C.3       1 TTP700      0.0000 
     18 O3'       177.2950  155.7480  118.1840 O.3       1 TTP700      0.0000 
     19 C2'       175.2520  156.0360  116.8710 C.3       1 TTP700      0.0000 
     20 C1'       173.8030  156.0530  117.3600 C.3       1 TTP700      0.0000 
     21 N1        173.0230  157.0670  116.6360 N.am      1 TTP700      0.0000 
     22 C2        171.8830  156.6930  115.7620 C.2       1 TTP700      0.0000 
     23 O2        171.6230  155.5420  115.6660 O.2       1 TTP700      0.0000 
     24 N3        171.0920  157.5900  115.0440 N.am      1 TTP700      0.0000 
     25 C4        171.4480  158.8790  115.2040 C.2       1 TTP700      0.0000 
     26 O4        170.7850  159.7250  114.5910 O.2       1 TTP700      0.0000 
     27 C5        172.5660  159.3850  116.0480 C.2       1 TTP700      0.0000 
     28 C5M       172.8700  160.8760  116.1470 C.3       1 TTP700      0.0000 
     29 C6        173.3160  158.4570  116.7370 C.2       1 TTP700      0.0000 
@<TRIPOS>BOND
     1    1    2 ar   
     2    1    3 ar   
     3    1    4 1    
     4    1   13 1    
     5    4    5 1    
     6    5    6 ar   
     7    5    7 ar   
     8    5    8 1    
     9    8    9 1    
    10    9   10 ar   
    11    9   11 ar   
    12    9   12 ar   
    13   13   14 1    
    14   14   15 1    
    15   15   16 1    
    16   15   17 1    
    17   16   20 1    
    18   17   18 1    
    19   17   19 1    
    20   19   20 1    
    21   20   21 1    
    22   21   22 1    
    23   21   29 1    
    24   22   23 2    
    25   22   24 1    
    26   24   25 1    
    27   25   26 2    
    28   25   27 1    
    29   27   28 1    
    30   27   29 2    
@<TRIPOS>SUBSTRUCTURE
     1 TTP700      1 GROUP   
@<TRIPOS>SET

