#    Name: 6n9v_3_TTP
#    Modification time : Fri May 22 19:36:54 2020

@<TRIPOS>MOLECULE
6n9v_3_TTP
   29    30     1     0     0
SMALL
NO_CHARGES


@<TRIPOS>ATOM
      1 PA        166.8450  189.9810  125.7150 P.3       1 TTP700      0.0000 
      2 O1A       166.0150  191.2370  125.7850 O.co2     1 TTP700      0.0000 
      3 O2A       168.2740  190.2970  126.0810 O.co2     1 TTP700      0.0000 
      4 O3A       166.2460  188.8690  126.7630 O.3       1 TTP700      0.0000 
      5 PB        166.0890  188.8990  128.3950 P.3       1 TTP700      0.0000 
      6 O1B       164.6270  189.0310  128.7360 O.co2     1 TTP700      0.0000 
      7 O2B       166.8740  190.0630  128.9520 O.co2     1 TTP700      0.0000 
      8 O3B       166.6870  187.5090  129.0360 O.3       1 TTP700      0.0000 
      9 PG        168.1240  187.1620  129.6350 P.3       1 TTP700      0.0000 
     10 O1G       167.9600  186.5160  130.9870 O.co2     1 TTP700      0.0000 
     11 O2G       168.9200  188.4360  129.7710 O.co2     1 TTP700      0.0000 
     12 O3G       168.8390  186.2120  128.7060 O.co2     1 TTP700      0.0000 
     13 O5'       166.7870  189.3740  124.1900 O.3       1 TTP700      0.0000 
     14 C5'       167.1690  190.2220  123.1520 C.3       1 TTP700      0.0000 
     15 C4'       166.5840  189.6890  121.8330 C.3       1 TTP700      0.0000 
     16 O4'       165.2460  189.1970  122.0380 O.3       1 TTP700      0.0000 
     17 C3'       166.3490  190.8370  120.8670 C.3       1 TTP700      0.0000 
     18 O3'       167.5770  191.1290  120.1370 O.3       1 TTP700      0.0000 
     19 C2'       165.2970  190.2700  119.9260 C.3       1 TTP700      0.0000 
     20 C1'       164.5870  189.2260  120.7830 C.3       1 TTP700      0.0000 
     21 N1        163.1940  189.6310  121.0010 N.am      1 TTP700      0.0000 
     22 C2        162.0970  189.0960  120.1590 C.2       1 TTP700      0.0000 
     23 O2        162.3920  188.3290  119.3080 O.2       1 TTP700      0.0000 
     24 N3        160.7490  189.4220  120.2910 N.am      1 TTP700      0.0000 
     25 C4        160.4970  190.2980  121.2790 C.2       1 TTP700      0.0000 
     26 O4        159.3160  190.6290  121.4470 O.2       1 TTP700      0.0000 
     27 C5        161.5030  190.9090  122.1910 C.2       1 TTP700      0.0000 
     28 C5M       161.0800  191.8940  123.2760 C.3       1 TTP700      0.0000 
     29 C6        162.8240  190.5530  122.0190 C.2       1 TTP700      0.0000 
@<TRIPOS>BOND
     1    1    2 ar   
     2    1    3 ar   
     3    1    4 1    
     4    1   13 1    
     5    4    5 1    
     6    5    6 ar   
     7    5    7 ar   
     8    5    8 1    
     9    8    9 1    
    10    9   10 ar   
    11    9   11 ar   
    12    9   12 ar   
    13   13   14 1    
    14   14   15 1    
    15   15   16 1    
    16   15   17 1    
    17   16   20 1    
    18   17   18 1    
    19   17   19 1    
    20   19   20 1    
    21   20   21 1    
    22   21   22 1    
    23   21   29 1    
    24   22   23 2    
    25   22   24 1    
    26   24   25 1    
    27   25   26 2    
    28   25   27 1    
    29   27   28 1    
    30   27   29 2    
@<TRIPOS>SUBSTRUCTURE
     1 TTP700      1 GROUP   
@<TRIPOS>SET

