#    Name: 6n9v_5_TTP_CAVITY_N1_4
#    Modification time : Fri May 22 19:37:09 2020

@<TRIPOS>MOLECULE
6n9v_5_TTP_CAVITY_N1_4
  130     0     7     0     0
SMALL
NO_CHARGES


@<TRIPOS>ATOM
      1 OG        146.1100  178.9300  172.0800 O.3       1 SER1        0.0000 
      2 OG        136.6700  178.1000  173.6300 O.3       1 SER1        0.0000 
      3 OG        134.5700  178.1500  173.9100 O.3       1 SER1        0.0000 
      4 OG        135.6000  179.1500  173.4900 O.3       1 SER1        0.0000 
      5 OG        134.5300  180.1900  173.3500 O.3       1 SER1        0.0000 
      6 OG        146.3100  179.3300  173.5100 O.3       1 SER1        0.0000 
      7 OG        138.9700  178.4600  174.7800 O.3       1 SER1        0.0000 
      8 OG        137.9000  179.5000  174.6400 O.3       1 SER1        0.0000 
      9 OG        135.8000  179.5400  174.9200 O.3       1 SER1        0.0000 
     10 OG        134.7300  180.5900  174.7800 O.3       1 SER1        0.0000 
     11 OG        139.1700  178.8600  176.2100 O.3       1 SER1        0.0000 
     12 OG        138.1000  179.9000  176.0700 O.3       1 SER1        0.0000 
     13 OG        136.0000  179.9400  176.3500 O.3       1 SER1        0.0000 
     14 OG        139.3700  179.2500  177.6400 O.3       1 SER1        0.0000 
     15 OG        138.3000  180.3000  177.5000 O.3       1 SER1        0.0000 
     16 OG        136.2000  180.3400  177.7800 O.3       1 SER1        0.0000 
     17 OG        142.7100  180.6100  178.3700 O.3       1 SER1        0.0000 
     18 O         132.7000  177.6000  168.0400 O.2       2 ALA2        0.0000 
     19 O         132.9300  175.9500  170.0300 O.2       2 ALA2        0.0000 
     20 O         132.9000  177.9900  169.4700 O.2       2 ALA2        0.0000 
     21 N         133.9300  179.0000  169.0500 N.am      2 ALA2        0.0000 
     22 N         136.3400  173.2200  171.8900 N.am      2 ALA2        0.0000 
     23 N         138.3300  179.3100  169.9200 N.am      2 ALA2        0.0000 
     24 N         139.3700  180.3100  169.4900 N.am      2 ALA2        0.0000 
     25 N         136.2300  179.3500  170.2000 N.am      2 ALA2        0.0000 
     26 N         137.6000  172.5700  173.4600 N.am      2 ALA2        0.0000 
     27 N         136.5400  173.6100  173.3200 N.am      2 ALA2        0.0000 
     28 N         139.6000  178.6600  171.4900 N.am      2 ALA2        0.0000 
     29 N         138.5300  179.7100  171.3500 N.am      2 ALA2        0.0000 
     30 N         139.5700  180.7100  170.9300 N.am      2 ALA2        0.0000 
     31 N         136.7700  171.9700  175.3200 N.am      2 ALA2        0.0000 
     32 O         141.9400  176.9700  173.2000 O.2       2 ALA2        0.0000 
     33 O         142.9700  177.9700  172.7800 O.2       2 ALA2        0.0000 
     34 O         144.0100  178.9800  172.3600 O.2       2 ALA2        0.0000 
     35 O         145.0400  179.9800  171.9300 O.2       2 ALA2        0.0000 
     36 N         136.7400  174.0100  174.7500 N.am      2 ALA2        0.0000 
     37 O         140.8700  178.0200  173.0600 O.2       2 ALA2        0.0000 
     38 O         139.8000  179.0600  172.9200 O.2       2 ALA2        0.0000 
     39 N         138.7400  180.1000  172.7800 N.am      2 ALA2        0.0000 
     40 N         137.6700  181.1500  172.6400 N.am      2 ALA2        0.0000 
     41 N         133.4600  181.2300  173.2000 N.am      2 ALA2        0.0000 
     42 N         147.3400  180.3300  173.0900 N.am      2 ALA2        0.0000 
     43 O         142.1400  177.3700  174.6400 O.2       2 ALA2        0.0000 
     44 N         138.9400  180.5000  174.2100 N.am      2 ALA2        0.0000 
     45 N         136.8300  180.5500  174.5000 N.am      2 ALA2        0.0000 
     46 N         135.7700  181.5900  174.3500 N.am      2 ALA2        0.0000 
     47 O         140.2400  177.8100  176.3500 O.2       2 ALA2        0.0000 
     48 N         139.1400  180.9000  175.6500 N.am      2 ALA2        0.0000 
     49 N         140.1700  181.9000  175.2200 N.am      2 ALA2        0.0000 
     50 N         137.0300  180.9400  175.9300 N.am      2 ALA2        0.0000 
     51 N         135.9700  181.9900  175.7900 N.am      2 ALA2        0.0000 
     52 N         139.3400  181.3000  177.0800 N.am      2 ALA2        0.0000 
     53 N         140.3700  182.3000  176.6600 N.am      2 ALA2        0.0000 
     54 N         137.2300  181.3400  177.3600 N.am      2 ALA2        0.0000 
     55 N         138.2700  182.3400  176.9400 N.am      2 ALA2        0.0000 
     56 N         136.1700  182.3900  177.2200 N.am      2 ALA2        0.0000 
     57 N         143.7400  181.6100  177.9500 N.am      2 ALA2        0.0000 
     58 OD1       135.0700  173.8600  170.3200 O.co2     3 ASP3        0.0000 
     59 OD1       134.0000  174.9100  170.1800 O.co2     3 ASP3        0.0000 
     60 OD1       133.9600  176.9500  169.6100 O.co2     3 ASP3        0.0000 
     61 OD1       135.0000  177.9500  169.1900 O.co2     3 ASP3        0.0000 
     62 OD1       135.2700  174.2600  171.7500 O.co2     3 ASP3        0.0000 
     63 OD1       136.3000  175.2600  171.3300 O.co2     3 ASP3        0.0000 
     64 OD1       135.2300  176.3100  171.1900 O.co2     3 ASP3        0.0000 
     65 OD1       134.1600  177.3500  171.0400 O.co2     3 ASP3        0.0000 
     66 OD1       135.2000  178.3500  170.6200 O.co2     3 ASP3        0.0000 
     67 OD1       133.1000  178.3900  170.9000 O.co2     3 ASP3        0.0000 
     68 OD1       136.4700  177.7000  172.1900 O.co2     3 ASP3        0.0000 
     69 OD1       137.5000  178.7100  171.7700 O.co2     3 ASP3        0.0000 
     70 OD1       145.0800  177.9300  172.5000 O.co2     3 ASP3        0.0000 
     71 OD1       144.2400  177.3300  174.3500 O.co2     3 ASP3        0.0000 
     72 OD1       145.2800  178.3300  173.9300 O.co2     3 ASP3        0.0000 
     73 OD1       143.1700  178.3700  174.2100 O.co2     3 ASP3        0.0000 
     74 OD1       144.2100  179.3700  173.7900 O.co2     3 ASP3        0.0000 
     75 OD1       145.2400  180.3800  173.3700 O.co2     3 ASP3        0.0000 
     76 OD1       142.1100  179.4200  174.0700 O.co2     3 ASP3        0.0000 
     77 OD1       143.1400  180.4200  173.6500 O.co2     3 ASP3        0.0000 
     78 OD1       145.4400  180.7700  174.8000 O.co2     3 ASP3        0.0000 
     79 OD1       142.3100  179.8100  175.5000 O.co2     3 ASP3        0.0000 
     80 OD1       143.3400  180.8200  175.0800 O.co2     3 ASP3        0.0000 
     81 OD1       134.9300  180.9900  176.2100 O.co2     3 ASP3        0.0000 
     82 OD1       143.5400  181.2100  176.5100 O.co2     3 ASP3        0.0000 
     83 OD1       144.5700  182.2200  176.0900 O.co2     3 ASP3        0.0000 
     84 OD1       141.4400  181.2600  176.8000 O.co2     3 ASP3        0.0000 
     85 OD1       135.1300  181.3800  177.6400 O.co2     3 ASP3        0.0000 
     86 OD1       140.6000  180.6500  178.6500 O.co2     3 ASP3        0.0000 
     87 OD1       139.5400  181.7000  178.5100 O.co2     3 ASP3        0.0000 
     88 NZ        141.6400  181.6500  178.2300 N.4       4 LYS4        0.0000 
     89 NZ        142.6700  182.6600  177.8100 N.4       4 LYS4        0.0000 
     90 NZ        140.5700  182.7000  178.0900 N.4       4 LYS4        0.0000 
     91 CZ        134.2300  173.2600  172.1700 C.ar      5 PHE5        0.0000 
     92 CZ        134.2000  175.3000  171.6100 C.ar      5 PHE5        0.0000 
     93 CZ        133.1300  176.3500  171.4700 C.ar      5 PHE5        0.0000 
     94 CZ        134.4300  173.6600  173.6000 C.ar      5 PHE5        0.0000 
     95 CZ        135.4700  174.6600  173.1800 C.ar      5 PHE5        0.0000 
     96 CZ        135.4300  176.7000  172.6200 C.ar      5 PHE5        0.0000 
     97 CZ        134.3600  177.7500  172.4800 C.ar      5 PHE5        0.0000 
     98 CZ        133.3000  178.7900  172.3400 C.ar      5 PHE5        0.0000 
     99 CZ        135.6700  175.0600  174.6100 C.ar      5 PHE5        0.0000 
    100 CZ        135.6300  177.1000  174.0500 C.ar      5 PHE5        0.0000 
    101 CA        135.3000  172.2200  172.3100 C.3       6 GLY6        0.0000 
    102 CA        134.1300  179.3900  170.4800 C.3       6 GLY6        0.0000 
    103 CA        136.5700  171.5700  173.8900 C.3       6 GLY6        0.0000 
    104 CA        135.5000  172.6100  173.7400 C.3       6 GLY6        0.0000 
    105 CA        136.5000  175.6600  172.7600 C.3       6 GLY6        0.0000 
    106 CA        137.5400  176.6600  172.3400 C.3       6 GLY6        0.0000 
    107 CA        135.4000  178.7500  172.0500 C.3       6 GLY6        0.0000 
    108 CA        136.4300  179.7500  171.6300 C.3       6 GLY6        0.0000 
    109 CA        134.3300  179.7900  171.9100 C.3       6 GLY6        0.0000 
    110 CA        135.7000  173.0100  175.1800 C.3       6 GLY6        0.0000 
    111 CA        141.9100  179.0200  172.6400 C.3       6 GLY6        0.0000 
    112 CA        136.7000  176.0600  174.1900 C.3       6 GLY6        0.0000 
    113 CA        137.7400  177.0600  173.7700 C.3       6 GLY6        0.0000 
    114 CA        138.7700  178.0600  173.3400 C.3       6 GLY6        0.0000 
    115 CA        140.8400  180.0600  172.5000 C.3       6 GLY6        0.0000 
    116 CA        139.7700  181.1100  172.3600 C.3       6 GLY6        0.0000 
    117 CA        135.5600  181.1900  172.9200 C.3       6 GLY6        0.0000 
    118 CA        141.0700  178.4200  174.4900 C.3       6 GLY6        0.0000 
    119 CA        141.0400  180.4600  173.9300 C.3       6 GLY6        0.0000 
    120 CA        139.9700  181.5000  173.7900 C.3       6 GLY6        0.0000 
    121 CA        141.2700  178.8100  175.9300 C.3       6 GLY6        0.0000 
    122 CA        140.2000  179.8600  175.7900 C.3       6 GLY6        0.0000 
    123 CA        141.2400  180.8600  175.3600 C.3       6 GLY6        0.0000 
    124 CA        142.2700  181.8600  174.9400 C.3       6 GLY6        0.0000 
    125 CA        140.4000  180.2600  177.2200 C.3       6 GLY6        0.0000 
    126 CA        142.4700  182.2600  176.3700 C.3       6 GLY6        0.0000 
    127 CA        141.4000  183.3000  176.2300 C.3       6 GLY6        0.0000 
    128 DU        137.7000  179.1000  173.2000 H         7 CUB7        0.0000 
    129 DU        136.6300  180.1500  173.0600 H         7 CUB7        0.0000 
    130 DU        140.0000  179.4600  174.3500 H         7 CUB7        0.0000 
@<TRIPOS>BOND
@<TRIPOS>SUBSTRUCTURE
     1 SER1        1 GROUP   
     2 ALA2       18 GROUP   
     3 ASP3       58 GROUP   
     4 LYS4       88 GROUP   
     5 PHE5       91 GROUP   
     6 GLY6      101 GROUP   
     7 CUB7      128 GROUP   
@<TRIPOS>SET

