#    Name: 6n9v_1_TTP_CAVITY_N1_4
#    Modification time : Fri May 22 19:36:43 2020

@<TRIPOS>MOLECULE
6n9v_1_TTP_CAVITY_N1_4
  119     0     6     0     0
SMALL
NO_CHARGES


@<TRIPOS>ATOM
      1 OG        163.8100  131.7600  135.5900 O.3       1 SER1        0.0000 
      2 OG        164.0400  130.1100  137.5800 O.3       1 SER1        0.0000 
      3 OG        161.9400  130.1500  137.8700 O.3       1 SER1        0.0000 
      4 OG        162.9700  131.1600  137.4400 O.3       1 SER1        0.0000 
      5 OG        165.3100  129.4700  139.1600 O.3       1 SER1        0.0000 
      6 OG        164.2400  130.5100  139.0200 O.3       1 SER1        0.0000 
      7 OG        163.1700  131.5500  138.8700 O.3       1 SER1        0.0000 
      8 OG        163.1400  133.6000  138.3100 O.3       1 SER1        0.0000 
      9 OG        166.5400  130.8700  140.1700 O.3       1 SER1        0.0000 
     10 OG        165.4700  131.9100  140.0200 O.3       1 SER1        0.0000 
     11 OG        164.4100  132.9500  139.8800 O.3       1 SER1        0.0000 
     12 OG        165.4400  133.9500  139.4600 O.3       1 SER1        0.0000 
     13 OG        162.8000  140.3200  142.7700 O.3       1 SER1        0.0000 
     14 O         159.4400  129.4000  135.2800 O.2       2 ALA2        0.0000 
     15 N         161.6700  133.8500  135.3100 N.am      2 ALA2        0.0000 
     16 N         159.8400  130.2000  138.1500 N.am      2 ALA2        0.0000 
     17 N         160.8700  131.2000  137.7200 N.am      2 ALA2        0.0000 
     18 O         161.8700  134.2400  136.7400 O.2       2 ALA2        0.0000 
     19 N         162.1400  130.5500  139.3000 N.am      2 ALA2        0.0000 
     20 N         161.0700  131.6000  139.1600 N.am      2 ALA2        0.0000 
     21 N         161.0400  133.6400  138.5900 N.am      2 ALA2        0.0000 
     22 O         162.0700  134.6400  138.1700 O.2       2 ALA2        0.0000 
     23 N         163.4100  129.9100  140.8700 N.am      2 ALA2        0.0000 
     24 N         164.4400  130.9100  140.4500 N.am      2 ALA2        0.0000 
     25 N         162.3400  130.9500  140.7300 N.am      2 ALA2        0.0000 
     26 N         163.3700  131.9500  140.3100 N.am      2 ALA2        0.0000 
     27 N         161.2700  131.9900  140.5900 N.am      2 ALA2        0.0000 
     28 N         162.3000  133.0000  140.1700 N.am      2 ALA2        0.0000 
     29 O         165.4100  136.0000  138.9000 O.2       2 ALA2        0.0000 
     30 N         160.2000  133.0400  140.4500 N.am      2 ALA2        0.0000 
     31 N         161.2400  134.0400  140.0300 N.am      2 ALA2        0.0000 
     32 O         163.3000  136.0400  139.1800 O.2       2 ALA2        0.0000 
     33 O         164.3400  137.0400  138.7600 O.2       2 ALA2        0.0000 
     34 N         159.1300  134.0800  140.3100 N.am      2 ALA2        0.0000 
     35 N         160.1700  135.0800  139.8800 N.am      2 ALA2        0.0000 
     36 O         163.2700  138.0900  138.6200 O.2       2 ALA2        0.0000 
     37 N         165.7400  128.2200  142.5800 N.am      2 ALA2        0.0000 
     38 N         164.6800  129.2600  142.4400 N.am      2 ALA2        0.0000 
     39 N         165.7100  130.2600  142.0200 N.am      2 ALA2        0.0000 
     40 N         164.6400  131.3100  141.8800 N.am      2 ALA2        0.0000 
     41 N         165.6700  132.3100  141.4600 N.am      2 ALA2        0.0000 
     42 N         164.6100  133.3500  141.3200 N.am      2 ALA2        0.0000 
     43 N         162.5000  133.3900  141.6000 N.am      2 ALA2        0.0000 
     44 N         165.8800  132.7100  142.8900 N.am      2 ALA2        0.0000 
     45 O         166.9100  133.7100  142.4700 O.2       2 ALA2        0.0000 
     46 O         165.8400  134.7500  142.3300 O.2       2 ALA2        0.0000 
     47 O         161.5700  138.9300  141.7600 O.2       2 ALA2        0.0000 
     48 O         162.6000  139.9300  141.3400 O.2       2 ALA2        0.0000 
     49 OD1       159.4000  131.4500  134.7200 O.co2     3 ASP3        0.0000 
     50 OD1       160.4400  132.4500  134.3000 O.co2     3 ASP3        0.0000 
     51 OD1       161.4700  133.4500  133.8700 O.co2     3 ASP3        0.0000 
     52 OD1       159.6400  129.8000  136.7200 O.co2     3 ASP3        0.0000 
     53 OD1       158.5700  130.8400  136.5700 O.co2     3 ASP3        0.0000 
     54 OD1       159.6000  131.8400  136.1500 O.co2     3 ASP3        0.0000 
     55 OD1       160.6400  132.8400  135.7300 O.co2     3 ASP3        0.0000 
     56 OD1       159.8000  132.2400  137.5800 O.co2     3 ASP3        0.0000 
     57 OD1       160.8400  133.2400  137.1600 O.co2     3 ASP3        0.0000 
     58 OD1       165.3400  127.4200  139.7200 O.co2     3 ASP3        0.0000 
     59 OD1       166.3800  128.4200  139.3000 O.co2     3 ASP3        0.0000 
     60 OD1       164.2700  128.4700  139.5800 O.co2     3 ASP3        0.0000 
     61 OD1       163.2100  129.5100  139.4400 O.co2     3 ASP3        0.0000 
     62 OD1       158.9300  133.6800  138.8800 O.co2     3 ASP3        0.0000 
     63 OD1       165.5400  127.8200  141.1500 O.co2     3 ASP3        0.0000 
     64 OD1       164.4700  128.8600  141.0100 O.co2     3 ASP3        0.0000 
     65 OD1       166.7400  131.2600  141.6000 O.co2     3 ASP3        0.0000 
     66 OD1       166.7100  133.3100  141.0300 O.co2     3 ASP3        0.0000 
     67 OD1       164.5700  135.4000  140.7500 O.co2     3 ASP3        0.0000 
     68 OD1       163.5000  136.4400  140.6100 O.co2     3 ASP3        0.0000 
     69 OD1       164.5400  137.4400  140.1900 O.co2     3 ASP3        0.0000 
     70 OD1       165.5700  138.4400  139.7700 O.co2     3 ASP3        0.0000 
     71 OD1       164.5000  139.4900  139.6300 O.co2     3 ASP3        0.0000 
     72 OD1       166.9400  131.6600  143.0300 O.co2     3 ASP3        0.0000 
     73 OD1       167.9800  132.6600  142.6100 O.co2     3 ASP3        0.0000 
     74 OD1       164.7700  135.7900  142.1800 O.co2     3 ASP3        0.0000 
     75 OD1       163.7000  136.8400  142.0400 O.co2     3 ASP3        0.0000 
     76 OD1       161.6000  136.8800  142.3300 O.co2     3 ASP3        0.0000 
     77 OD1       163.6700  138.8800  141.4800 O.co2     3 ASP3        0.0000 
     78 OD1       164.7000  139.8800  141.0600 O.co2     3 ASP3        0.0000 
     79 OD1       162.8400  138.2800  143.3400 O.co2     3 ASP3        0.0000 
     80 OD1       163.8700  139.2800  142.9100 O.co2     3 ASP3        0.0000 
     81 OD1       161.7700  139.3200  143.1900 O.co2     3 ASP3        0.0000 
     82 CZ        163.6100  131.3600  134.1600 C.ar      4 PHE5        0.0000 
     83 CZ        160.4700  130.4000  134.8600 C.ar      4 PHE5        0.0000 
     84 CZ        161.5000  131.4000  134.4400 C.ar      4 PHE5        0.0000 
     85 CZ        162.5400  132.4000  134.0100 C.ar      4 PHE5        0.0000 
     86 CZ        162.7700  130.7600  136.0100 C.ar      4 PHE5        0.0000 
     87 CZ        160.6700  130.8000  136.2900 C.ar      4 PHE5        0.0000 
     88 CZ        161.7000  131.8000  135.8700 C.ar      4 PHE5        0.0000 
     89 CA        162.3400  132.0100  132.5800 C.3       5 GLY6        0.0000 
     90 CA        163.3700  133.0100  132.1600 C.3       5 GLY6        0.0000 
     91 CA        164.4100  134.0100  131.7400 C.3       5 GLY6        0.0000 
     92 CA        162.3000  134.0500  132.0200 C.3       5 GLY6        0.0000 
     93 CA        164.6400  132.3600  133.7300 C.3       5 GLY6        0.0000 
     94 CA        163.5700  133.4100  133.5900 C.3       5 GLY6        0.0000 
     95 CA        162.7400  132.8000  135.4500 C.3       5 GLY6        0.0000 
     96 CA        163.7700  133.8000  135.0200 C.3       5 GLY6        0.0000 
     97 CA        162.9400  133.2000  136.8800 C.3       5 GLY6        0.0000 
     98 CA        158.7700  131.2400  138.0100 C.3       5 GLY6        0.0000 
     99 CA        164.1700  134.6000  137.8900 C.3       5 GLY6        0.0000 
    100 CA        160.0000  132.6400  139.0200 C.3       5 GLY6        0.0000 
    101 CA        164.3700  135.0000  139.3200 C.3       5 GLY6        0.0000 
    102 CA        162.2700  135.0400  139.6000 C.3       5 GLY6        0.0000 
    103 CA        162.2400  137.0900  139.0400 C.3       5 GLY6        0.0000 
    104 CA        165.6400  134.3500  140.8900 C.3       5 GLY6        0.0000 
    105 CA        163.5400  134.4000  141.1800 C.3       5 GLY6        0.0000 
    106 CA        165.6100  136.4000  140.3300 C.3       5 GLY6        0.0000 
    107 CA        161.4400  134.4400  141.4600 C.3       5 GLY6        0.0000 
    108 CA        162.4700  135.4400  141.0300 C.3       5 GLY6        0.0000 
    109 CA        160.3700  135.4800  141.3200 C.3       5 GLY6        0.0000 
    110 CA        162.4400  137.4800  140.4700 C.3       5 GLY6        0.0000 
    111 CA        163.4700  138.4800  140.0500 C.3       5 GLY6        0.0000 
    112 CA        164.8100  133.7500  142.7500 C.3       5 GLY6        0.0000 
    113 CA        162.6700  135.8400  142.4700 C.3       5 GLY6        0.0000 
    114 CA        162.6400  137.8800  141.9000 C.3       5 GLY6        0.0000 
    115 DU        161.9000  132.2000  137.3000 H         6 CUB7        0.0000 
    116 DU        162.1000  132.6000  138.7300 H         6 CUB7        0.0000 
    117 DU        166.5800  128.8200  140.7300 H         6 CUB7        0.0000 
    118 DU        165.5100  129.8600  140.5900 H         6 CUB7        0.0000 
    119 DU        163.3400  134.0000  139.7400 H         6 CUB7        0.0000 
@<TRIPOS>BOND
@<TRIPOS>SUBSTRUCTURE
     1 SER1        1 GROUP   
     2 ALA2       14 GROUP   
     3 ASP3       49 GROUP   
     4 PHE5       82 GROUP   
     5 GLY6       89 GROUP   
     6 CUB7      115 GROUP   
@<TRIPOS>SET

