#    Name: 6n9v_3_TTP_CAVITY_N1_4
#    Modification time : Fri May 22 19:36:55 2020

@<TRIPOS>MOLECULE
6n9v_3_TTP_CAVITY_N1_4
  107     0     7     0     0
SMALL
NO_CHARGES


@<TRIPOS>ATOM
      1 OG        166.1800  190.3700  120.5300 O.3       1 SER1        0.0000 
      2 OG        167.2200  191.3700  120.1100 O.3       1 SER1        0.0000 
      3 OG        166.3800  190.7700  121.9600 O.3       1 SER1        0.0000 
      4 OG        167.4200  191.7700  121.5400 O.3       1 SER1        0.0000 
      5 OG        164.2800  190.8100  122.2500 O.3       1 SER1        0.0000 
      6 OG        165.3200  191.8100  121.8200 O.3       1 SER1        0.0000 
      7 OG        166.3500  192.8100  121.4000 O.3       1 SER1        0.0000 
      8 OG        167.3800  193.8100  120.9800 O.3       1 SER1        0.0000 
      9 OG        165.5500  190.1600  123.8200 O.3       1 SER1        0.0000 
     10 OG        166.5800  191.1700  123.4000 O.3       1 SER1        0.0000 
     11 OG        167.6200  192.1700  122.9700 O.3       1 SER1        0.0000 
     12 OG        168.6500  193.1700  122.5500 O.3       1 SER1        0.0000 
     13 OG        164.4800  191.2100  123.6800 O.3       1 SER1        0.0000 
     14 OG        167.5800  194.2100  122.4100 O.3       1 SER1        0.0000 
     15 OG        163.4100  192.2500  123.5400 O.3       1 SER1        0.0000 
     16 OG        167.8500  190.5200  124.9700 O.3       1 SER1        0.0000 
     17 OG        168.8900  191.5200  124.5500 O.3       1 SER1        0.0000 
     18 OG        165.7500  190.5600  125.2500 O.3       1 SER1        0.0000 
     19 OG        166.9900  191.9600  126.2600 O.3       1 SER1        0.0000 
     20 O         165.9800  189.9700  119.1000 O.2       2 ALA2        0.0000 
     21 N         165.1800  187.3200  121.5200 N.am      2 ALA2        0.0000 
     22 N         166.2200  188.3200  121.1000 N.am      2 ALA2        0.0000 
     23 N         167.2500  189.3300  120.6700 N.am      2 ALA2        0.0000 
     24 N         165.1500  189.3700  120.9600 N.am      2 ALA2        0.0000 
     25 O         169.2900  193.3700  119.2600 O.2       2 ALA2        0.0000 
     26 N         170.5900  190.6800  121.4000 N.am      2 ALA2        0.0000 
     27 N         165.3800  187.7200  122.9500 N.am      2 ALA2        0.0000 
     28 N         166.4200  188.7200  122.5300 N.am      2 ALA2        0.0000 
     29 N         167.4500  189.7200  122.1100 N.am      2 ALA2        0.0000 
     30 N         168.4900  190.7200  121.6800 N.am      2 ALA2        0.0000 
     31 N         169.5200  191.7300  121.2600 N.am      2 ALA2        0.0000 
     32 O         170.5500  192.7300  120.8400 O.2       2 ALA2        0.0000 
     33 N         164.3200  188.7700  122.8100 N.am      2 ALA2        0.0000 
     34 O         169.4900  193.7700  120.7000 O.2       2 ALA2        0.0000 
     35 N         167.6900  188.0800  124.1000 N.am      2 ALA2        0.0000 
     36 N         170.7900  191.0800  122.8300 N.am      2 ALA2        0.0000 
     37 N         165.5900  188.1200  124.3800 N.am      2 ALA2        0.0000 
     38 N         166.6200  189.1200  123.9600 N.am      2 ALA2        0.0000 
     39 N         167.6500  190.1200  123.5400 N.am      2 ALA2        0.0000 
     40 N         168.6900  191.1200  123.1100 N.am      2 ALA2        0.0000 
     41 N         169.7200  192.1200  122.6900 N.am      2 ALA2        0.0000 
     42 O         164.5200  189.1600  124.2400 O.2       2 ALA2        0.0000 
     43 N         160.2800  191.2900  124.2400 N.am      2 ALA2        0.0000 
     44 N         170.9900  191.4800  124.2700 N.am      2 ALA2        0.0000 
     45 N         160.4400  193.7400  125.1100 N.am      2 ALA2        0.0000 
     46 O         165.9900  188.9200  127.2500 O.2       2 ALA2        0.0000 
     47 O         165.9500  190.9600  126.6800 O.2       2 ALA2        0.0000 
     48 O         167.2900  186.2300  129.3800 O.2       2 ALA2        0.0000 
     49 OD1       164.1200  188.3700  121.3800 O.co2     3 ASP3        0.0000 
     50 OD1       168.2500  192.3700  119.6900 O.co2     3 ASP3        0.0000 
     51 OD1       163.0500  189.4100  121.2400 O.co2     3 ASP3        0.0000 
     52 OD1       168.2200  194.4200  119.1200 O.co2     3 ASP3        0.0000 
     53 OD1       160.9500  189.4500  121.5200 O.co2     3 ASP3        0.0000 
     54 OD1       163.2800  187.7600  123.2300 O.co2     3 ASP3        0.0000 
     55 OD1       162.2100  188.8100  123.0900 O.co2     3 ASP3        0.0000 
     56 OD1       161.1500  189.8500  122.9500 O.co2     3 ASP3        0.0000 
     57 OD1       160.0800  190.9000  122.8100 O.co2     3 ASP3        0.0000 
     58 OD1       169.9200  192.5200  124.1200 O.co2     3 ASP3        0.0000 
     59 OD1       168.8500  193.5700  123.9800 O.co2     3 ASP3        0.0000 
     60 OD1       168.1200  186.8300  127.5300 O.co2     3 ASP3        0.0000 
     61 OD1       171.1900  191.8800  125.7000 O.co2     3 ASP3        0.0000 
     62 OD1       167.0200  189.9200  126.8300 O.co2     3 ASP3        0.0000 
     63 OD1       170.1200  192.9200  125.5600 O.co2     3 ASP3        0.0000 
     64 OD1       168.3200  187.2300  128.9600 O.co2     3 ASP3        0.0000 
     65 OD1       166.2200  187.2700  129.2400 O.co2     3 ASP3        0.0000 
     66 OD1       167.2500  188.2700  128.8200 O.co2     3 ASP3        0.0000 
     67 OD1       170.3600  191.2700  127.5500 O.co2     3 ASP3        0.0000 
     68 OD1       171.3900  192.2700  127.1300 O.co2     3 ASP3        0.0000 
     69 OD1       167.2200  190.3200  128.2600 O.co2     3 ASP3        0.0000 
     70 NZ        168.4200  194.8100  120.5600 N.4       4 LYS4        0.0000 
     71 CZ        163.8800  190.0100  119.3800 C.ar      5 PHE5        0.0000 
     72 CZ        164.0800  190.4100  120.8100 C.ar      5 PHE5        0.0000 
     73 CZ        161.9800  190.4500  121.1000 C.ar      5 PHE5        0.0000 
     74 CZ        162.1800  190.8500  122.5300 C.ar      5 PHE5        0.0000 
     75 CZ        163.2100  191.8500  122.1100 C.ar      5 PHE5        0.0000 
     76 CZ        161.1100  191.9000  122.3900 C.ar      5 PHE5        0.0000 
     77 CZ        160.0400  192.9400  122.2500 C.ar      5 PHE5        0.0000 
     78 CA        163.9200  187.9700  119.9500 C.3       6 GLY6        0.0000 
     79 CA        164.9500  188.9700  119.5200 C.3       6 GLY6        0.0000 
     80 CA        162.8500  189.0100  119.8100 C.3       6 GLY6        0.0000 
     81 CA        159.0100  191.9400  122.6700 C.3       6 GLY6        0.0000 
     82 CA        166.6500  187.0800  124.5200 C.3       6 GLY6        0.0000 
     83 CA        163.4500  190.2100  124.1000 C.3       6 GLY6        0.0000 
     84 CA        162.3800  191.2500  123.9600 C.3       6 GLY6        0.0000 
     85 CA        161.3100  192.2900  123.8200 C.3       6 GLY6        0.0000 
     86 CA        162.3500  193.3000  123.4000 C.3       6 GLY6        0.0000 
     87 CA        159.2100  192.3400  124.1000 C.3       6 GLY6        0.0000 
     88 CA        160.2400  193.3400  123.6800 C.3       6 GLY6        0.0000 
     89 CA        158.1400  193.3800  123.9600 C.3       6 GLY6        0.0000 
     90 CA        166.8500  187.4700  125.9600 C.3       6 GLY6        0.0000 
     91 CA        167.8900  188.4800  125.5300 C.3       6 GLY6        0.0000 
     92 CA        168.9200  189.4800  125.1100 C.3       6 GLY6        0.0000 
     93 CA        169.9600  190.4800  124.6900 C.3       6 GLY6        0.0000 
     94 CA        165.7900  188.5200  125.8200 C.3       6 GLY6        0.0000 
     95 CA        161.5100  192.6900  125.2500 C.3       6 GLY6        0.0000 
     96 CA        159.4100  192.7400  125.5300 C.3       6 GLY6        0.0000 
     97 CA        167.0500  187.8700  127.3900 C.3       6 GLY6        0.0000 
     98 CA        168.0900  188.8700  126.9700 C.3       6 GLY6        0.0000 
     99 CA        169.1200  189.8700  126.5400 C.3       6 GLY6        0.0000 
    100 CA        170.1600  190.8800  126.1200 C.3       6 GLY6        0.0000 
    101 CA        168.0500  190.9200  126.4000 C.3       6 GLY6        0.0000 
    102 CA        169.0900  191.9200  125.9800 C.3       6 GLY6        0.0000 
    103 CA        171.4200  190.2300  127.6900 C.3       6 GLY6        0.0000 
    104 DU        165.3500  189.7700  122.3900 H         7 CUB7        0.0000 
    105 DU        168.4500  192.7700  121.1200 H         7 CUB7        0.0000 
    106 DU        163.2500  189.8100  122.6700 H         7 CUB7        0.0000 
    107 DU        166.8200  189.5200  125.3900 H         7 CUB7        0.0000 
@<TRIPOS>BOND
@<TRIPOS>SUBSTRUCTURE
     1 SER1        1 GROUP   
     2 ALA2       20 GROUP   
     3 ASP3       49 GROUP   
     4 LYS4       70 GROUP   
     5 PHE5       71 GROUP   
     6 GLY6       78 GROUP   
     7 CUB7      104 GROUP   
@<TRIPOS>SET

