#    Name: 6n9v_1_TTP
#    Modification time : Fri May 22 19:36:42 2020

@<TRIPOS>MOLECULE
6n9v_1_TTP
   29    30     1     0     0
SMALL
NO_CHARGES


@<TRIPOS>ATOM
      1 PA        164.4290  134.7940  139.8450 P.3       1 TTP700      0.0000 
      2 O1A       165.4370  135.1060  138.7670 O.co2     1 TTP700      0.0000 
      3 O2A       165.1500  134.5440  141.1450 O.co2     1 TTP700      0.0000 
      4 O3A       163.4060  136.0680  140.0180 O.3       1 TTP700      0.0000 
      5 PB        163.6960  137.6740  140.1880 P.3       1 TTP700      0.0000 
      6 O1B       165.1710  137.8870  140.4210 O.co2     1 TTP700      0.0000 
      7 O2B       163.2650  138.3950  138.9370 O.co2     1 TTP700      0.0000 
      8 O3B       162.8590  138.2580  141.4730 O.3       1 TTP700      0.0000 
      9 PG        163.1880  139.4490  142.4780 P.3       1 TTP700      0.0000 
     10 O1G       164.6750  139.4700  142.7350 O.co2     1 TTP700      0.0000 
     11 O2G       162.4430  139.2400  143.7730 O.co2     1 TTP700      0.0000 
     12 O3G       162.7600  140.7520  141.8510 O.co2     1 TTP700      0.0000 
     13 O5'       163.5500  133.4690  139.4270 O.3       1 TTP700      0.0000 
     14 C5'       162.3860  133.2040  140.1540 C.3       1 TTP700      0.0000 
     15 C4'       161.7270  131.9140  139.6260 C.3       1 TTP700      0.0000 
     16 O4'       160.9440  132.2130  138.4590 O.3       1 TTP700      0.0000 
     17 C3'       162.7870  130.9630  139.0870 C.3       1 TTP700      0.0000 
     18 O3'       163.2760  130.1050  140.1590 O.3       1 TTP700      0.0000 
     19 C2'       162.0170  130.1340  138.0620 C.3       1 TTP700      0.0000 
     20 C1'       160.8370  131.0310  137.6850 C.3       1 TTP700      0.0000 
     21 N1        160.9070  131.4200  136.2680 N.am      1 TTP700      0.0000 
     22 C2        159.7200  131.3340  135.3800 C.2       1 TTP700      0.0000 
     23 O2        158.7130  130.9360  135.8550 O.2       1 TTP700      0.0000 
     24 N3        159.6980  131.6820  134.0290 N.am      1 TTP700      0.0000 
     25 C4        160.8800  132.1270  133.5620 C.2       1 TTP700      0.0000 
     26 O4        160.9280  132.4530  132.3690 O.2       1 TTP700      0.0000 
     27 C5        162.1390  132.2620  134.3430 C.2       1 TTP700      0.0000 
     28 C5M       163.4190  132.7810  133.6940 C.3       1 TTP700      0.0000 
     29 C6        162.1080  131.9030  135.6730 C.2       1 TTP700      0.0000 
@<TRIPOS>BOND
     1    1    2 ar   
     2    1    3 ar   
     3    1    4 1    
     4    1   13 1    
     5    4    5 1    
     6    5    6 ar   
     7    5    7 ar   
     8    5    8 1    
     9    8    9 1    
    10    9   10 ar   
    11    9   11 ar   
    12    9   12 ar   
    13   13   14 1    
    14   14   15 1    
    15   15   16 1    
    16   15   17 1    
    17   16   20 1    
    18   17   18 1    
    19   17   19 1    
    20   19   20 1    
    21   20   21 1    
    22   21   22 1    
    23   21   29 1    
    24   22   23 2    
    25   22   24 1    
    26   24   25 1    
    27   25   26 2    
    28   25   27 1    
    29   27   28 1    
    30   27   29 2    
@<TRIPOS>SUBSTRUCTURE
     1 TTP700      1 GROUP   
@<TRIPOS>SET

