#    Name: 6n9v_5_TTP
#    Modification time : Fri May 22 19:37:08 2020

@<TRIPOS>MOLECULE
6n9v_5_TTP
   29    30     1     0     0
SMALL
NO_CHARGES


@<TRIPOS>ATOM
      1 PA        139.9960  178.8570  174.6280 P.3       1 TTP700      0.0000 
      2 O1A       139.8860  177.6750  175.5570 O.co2     1 TTP700      0.0000 
      3 O2A       139.8340  180.1290  175.4190 O.co2     1 TTP700      0.0000 
      4 O3A       141.4760  178.8480  173.9130 O.3       1 TTP700      0.0000 
      5 PB        142.9750  178.7680  174.5800 P.3       1 TTP700      0.0000 
      6 O1B       143.0570  177.5690  175.4880 O.co2     1 TTP700      0.0000 
      7 O2B       143.2240  180.0120  175.3930 O.co2     1 TTP700      0.0000 
      8 O3B       144.1240  178.6480  173.4120 O.3       1 TTP700      0.0000 
      9 PG        145.6920  178.9400  173.4620 P.3       1 TTP700      0.0000 
     10 O1G       146.4320  177.8760  172.6900 O.co2     1 TTP700      0.0000 
     11 O2G       146.1460  178.9260  174.9010 O.co2     1 TTP700      0.0000 
     12 O3G       145.9690  180.2930  172.8560 O.co2     1 TTP700      0.0000 
     13 O5'       138.8110  178.7830  173.4920 O.3       1 TTP700      0.0000 
     14 C5'       138.6190  179.9090  172.6890 C.3       1 TTP700      0.0000 
     15 C4'       137.1620  180.4230  172.7860 C.3       1 TTP700      0.0000 
     16 O4'       136.3040  179.6720  171.8930 O.3       1 TTP700      0.0000 
     17 C3'       136.6050  180.2680  174.2070 C.3       1 TTP700      0.0000 
     18 O3'       135.9070  181.4840  174.6030 O.3       1 TTP700      0.0000 
     19 C2'       135.6060  179.1300  174.0660 C.3       1 TTP700      0.0000 
     20 C1'       135.1730  179.2380  172.6190 C.3       1 TTP700      0.0000 
     21 N1        134.8170  177.9080  172.1050 N.am      1 TTP700      0.0000 
     22 C2        133.6300  177.6920  171.2370 C.2       1 TTP700      0.0000 
     23 O2        132.9690  178.6370  170.9710 O.2       1 TTP700      0.0000 
     24 N3        133.2310  176.4630  170.7110 N.am      1 TTP700      0.0000 
     25 C4        134.0320  175.4380  171.0570 C.2       1 TTP700      0.0000 
     26 O4        133.7310  174.3190  170.6210 O.2       1 TTP700      0.0000 
     27 C5        135.2460  175.5200  171.9160 C.2       1 TTP700      0.0000 
     28 C5M       136.0720  174.2790  172.2370 C.3       1 TTP700      0.0000 
     29 C6        135.5980  176.7570  172.4110 C.2       1 TTP700      0.0000 
@<TRIPOS>BOND
     1    1    2 ar   
     2    1    3 ar   
     3    1    4 1    
     4    1   13 1    
     5    4    5 1    
     6    5    6 ar   
     7    5    7 ar   
     8    5    8 1    
     9    8    9 1    
    10    9   10 ar   
    11    9   11 ar   
    12    9   12 ar   
    13   13   14 1    
    14   14   15 1    
    15   15   16 1    
    16   15   17 1    
    17   16   20 1    
    18   17   18 1    
    19   17   19 1    
    20   19   20 1    
    21   20   21 1    
    22   21   22 1    
    23   21   29 1    
    24   22   23 2    
    25   22   24 1    
    26   24   25 1    
    27   25   26 2    
    28   25   27 1    
    29   27   28 1    
    30   27   29 2    
@<TRIPOS>SUBSTRUCTURE
     1 TTP700      1 GROUP   
@<TRIPOS>SET

