#    Name: 6n9v_6_TTP
#    Modification time : Fri May 22 19:37:15 2020

@<TRIPOS>MOLECULE
6n9v_6_TTP
   29    30     1     0     0
SMALL
NO_CHARGES


@<TRIPOS>ATOM
      1 PA        160.9770  169.9560  255.8300 P.3       1 TTP801      0.0000 
      2 O1A       161.0500  171.3000  255.1460 O.co2     1 TTP801      0.0000 
      3 O2A       160.0450  169.0500  255.0600 O.co2     1 TTP801      0.0000 
      4 O3A       160.4100  170.1500  257.3640 O.3       1 TTP801      0.0000 
      5 PB        159.2680  169.3500  258.2430 P.3       1 TTP801      0.0000 
      6 O1B       159.8270  169.0120  259.6040 O.co2     1 TTP801      0.0000 
      7 O2B       158.8820  168.0770  257.5280 O.co2     1 TTP801      0.0000 
      8 O3B       157.9380  170.3070  258.4190 O.3       1 TTP801      0.0000 
      9 PG        156.5670  170.4220  257.6010 P.3       1 TTP801      0.0000 
     10 O1G       156.4870  169.3000  256.5930 O.co2     1 TTP801      0.0000 
     11 O2G       155.4010  170.3240  258.5550 O.co2     1 TTP801      0.0000 
     12 O3G       156.5190  171.7490  256.8820 O.co2     1 TTP801      0.0000 
     13 O5'       162.4810  169.2830  255.8800 O.3       1 TTP801      0.0000 
     14 C5'       162.6250  167.9430  255.5050 C.3       1 TTP801      0.0000 
     15 C4'       163.4890  167.2020  256.5500 C.3       1 TTP801      0.0000 
     16 O4'       164.8960  167.3420  256.2280 O.3       1 TTP801      0.0000 
     17 C3'       163.3240  167.8450  257.9270 C.3       1 TTP801      0.0000 
     18 O3'       162.2870  167.1500  258.6820 O.3       1 TTP801      0.0000 
     19 C2'       164.6810  167.6110  258.5680 C.3       1 TTP801      0.0000 
     20 C1'       165.6340  167.7110  257.3860 C.3       1 TTP801      0.0000 
     21 N1        166.0860  169.1020  257.2130 N.am      1 TTP801      0.0000 
     22 C2        167.5140  169.4850  257.3720 C.2       1 TTP801      0.0000 
     23 O2        168.2820  168.6240  257.6450 O.2       1 TTP801      0.0000 
     24 N3        168.0240  170.7780  257.2250 N.am      1 TTP801      0.0000 
     25 C4        167.0900  171.7010  256.9150 C.2       1 TTP801      0.0000 
     26 O4        167.4810  172.8690  256.7720 O.2       1 TTP801      0.0000 
     27 C5        165.6310  171.4490  256.7290 C.2       1 TTP801      0.0000 
     28 C5M       164.6720  172.5850  256.3780 C.3       1 TTP801      0.0000 
     29 C6        165.1790  170.1530  256.8850 C.2       1 TTP801      0.0000 
@<TRIPOS>BOND
     1    1    2 ar   
     2    1    3 ar   
     3    1    4 1    
     4    1   13 1    
     5    4    5 1    
     6    5    6 ar   
     7    5    7 ar   
     8    5    8 1    
     9    8    9 1    
    10    9   10 ar   
    11    9   11 ar   
    12    9   12 ar   
    13   13   14 1    
    14   14   15 1    
    15   15   16 1    
    16   15   17 1    
    17   16   20 1    
    18   17   18 1    
    19   17   19 1    
    20   19   20 1    
    21   20   21 1    
    22   21   22 1    
    23   21   29 1    
    24   22   23 2    
    25   22   24 1    
    26   24   25 1    
    27   25   26 2    
    28   25   27 1    
    29   27   28 1    
    30   27   29 2    
@<TRIPOS>SUBSTRUCTURE
     1 TTP801      1 GROUP   
@<TRIPOS>SET

