#    Name: 6n9v_4_TTP
#    Modification time : Fri May 22 19:37:00 2020

@<TRIPOS>MOLECULE
6n9v_4_TTP
   29    30     1     0     0
SMALL
NO_CHARGES


@<TRIPOS>ATOM
      1 PA        147.6960  198.8990  150.4470 P.3       1 TTP602      0.0000 
      2 O1A       146.7940  199.1200  151.6330 O.co2     1 TTP602      0.0000 
      3 O2A       148.7610  199.9660  150.4180 O.co2     1 TTP602      0.0000 
      4 O3A       148.4090  197.4250  150.5680 O.3       1 TTP602      0.0000 
      5 PB        149.4190  196.8120  151.7060 P.3       1 TTP602      0.0000 
      6 O1B       148.7110  195.7270  152.4750 O.co2     1 TTP602      0.0000 
      7 O2B       149.8370  197.9200  152.6390 O.co2     1 TTP602      0.0000 
      8 O3B       150.7560  196.1860  150.9890 O.3       1 TTP602      0.0000 
      9 PG        152.2730  196.1600  151.4770 P.3       1 TTP602      0.0000 
     10 O1G       152.5960  194.7940  152.0290 O.co2     1 TTP602      0.0000 
     11 O2G       152.4460  197.1960  152.5610 O.co2     1 TTP602      0.0000 
     12 O3G       153.1870  196.4730  150.3170 O.co2     1 TTP602      0.0000 
     13 O5'       146.8080  198.9570  149.0660 O.3       1 TTP602      0.0000 
     14 C5'       147.4520  199.3290  147.8840 C.3       1 TTP602      0.0000 
     15 C4'       146.5370  200.2780  147.0820 C.3       1 TTP602      0.0000 
     16 O4'       145.3880  199.5580  146.5690 O.3       1 TTP602      0.0000 
     17 C3'       146.0220  201.3990  147.9960 C.3       1 TTP602      0.0000 
     18 O3'       146.2400  202.6900  147.3560 O.3       1 TTP602      0.0000 
     19 C2'       144.5310  201.1130  148.0910 C.3       1 TTP602      0.0000 
     20 C1'       144.2530  200.3600  146.8100 C.3       1 TTP602      0.0000 
     21 N1        143.1010  199.4630  146.9770 N.am      1 TTP602      0.0000 
     22 C2        142.1220  199.2620  145.8820 C.2       1 TTP602      0.0000 
     23 O2        142.3070  199.8520  144.8730 O.2       1 TTP602      0.0000 
     24 N3        141.0020  198.4320  145.9450 N.am      1 TTP602      0.0000 
     25 C4        140.8630  197.7950  147.1220 C.2       1 TTP602      0.0000 
     26 O4        139.8860  197.0440  147.2420 O.2       1 TTP602      0.0000 
     27 C5        141.7710  197.9090  148.2970 C.2       1 TTP602      0.0000 
     28 C5M       141.4960  197.1300  149.5790 C.3       1 TTP602      0.0000 
     29 C6        142.8650  198.7430  148.1820 C.2       1 TTP602      0.0000 
@<TRIPOS>BOND
     1    1    2 ar   
     2    1    3 ar   
     3    1    4 1    
     4    1   13 1    
     5    4    5 1    
     6    5    6 ar   
     7    5    7 ar   
     8    5    8 1    
     9    8    9 1    
    10    9   10 ar   
    11    9   11 ar   
    12    9   12 ar   
    13   13   14 1    
    14   14   15 1    
    15   15   16 1    
    16   15   17 1    
    17   16   20 1    
    18   17   18 1    
    19   17   19 1    
    20   19   20 1    
    21   20   21 1    
    22   21   22 1    
    23   21   29 1    
    24   22   23 2    
    25   22   24 1    
    26   24   25 1    
    27   25   26 2    
    28   25   27 1    
    29   27   28 1    
    30   27   29 2    
@<TRIPOS>SUBSTRUCTURE
     1 TTP602      1 GROUP   
@<TRIPOS>SET

