#    Name: 6njz_1_BTN
#    Modification time : Fri May 22 19:26:49 2020

@<TRIPOS>MOLECULE
6njz_1_BTN
   30    31     1     0     0
SMALL
NO_CHARGES


@<TRIPOS>ATOM
      1 C11        20.1390   12.1010   22.0790 C.2       1 BTN18       0.0000 
      2 O11        19.9570   12.2560   23.3060 O.co2     1 BTN18       0.0000 
      3 C10        21.4730   11.6190   21.5510 C.3       1 BTN18       0.0000 
      4 C9         21.9680   10.4300   22.3710 C.3       1 BTN18       0.0000 
      5 C8         22.0340    9.1320   21.5670 C.3       1 BTN18       0.0000 
      6 C7         23.4120    8.9090   20.9540 C.3       1 BTN18       0.0000 
      7 C2         23.5030    7.5440   20.2710 C.3       1 BTN18       0.0000 
      8 S1         23.7910    6.3320   21.3780 S.3       1 BTN18       0.0000 
      9 C6         24.8110    5.3520   20.2540 C.3       1 BTN18       0.0000 
     10 C5         25.2930    6.2100   19.1200 C.3       1 BTN18       0.0000 
     11 N1         26.6740    6.6260   19.2520 N.am      1 BTN18       0.0000 
     12 C3         26.8380    7.9400   19.3190 C.2       1 BTN18       0.0000 
     13 O3         28.0710    8.6080   19.2490 O.2       1 BTN18       0.0000 
     14 N2         25.6410    8.5030   19.4120 N.am      1 BTN18       0.0000 
     15 C4         24.5460    7.5730   19.1790 C.3       1 BTN18       0.0000 
     16 H101       22.2020   12.4280   21.6010 H         1 BTN18       0.0000 
     17 H102       21.3700   11.3260   20.5060 H         1 BTN18       0.0000 
     18 H91        21.3020   10.2850   23.2220 H         1 BTN18       0.0000 
     19 H92        22.9610   10.6560   22.7590 H         1 BTN18       0.0000 
     20 H81        21.7910    8.2930   22.2200 H         1 BTN18       0.0000 
     21 H82        21.2880    9.1650   20.7730 H         1 BTN18       0.0000 
     22 H71        24.1710    8.9740   21.7340 H         1 BTN18       0.0000 
     23 H72        23.6150    9.6930   20.2240 H         1 BTN18       0.0000 
     24 H2         22.5410    7.3200   19.8110 H         1 BTN18       0.0000 
     25 H61        24.2300    4.5170   19.8620 H         1 BTN18       0.0000 
     26 H62        25.6650    4.9430   20.7930 H         1 BTN18       0.0000 
     27 H5         25.1470    5.6100   18.2210 H         1 BTN18       0.0000 
     28 HN1        27.4140    5.9850   19.2870 H         1 BTN18       0.0000 
     29 HN2        25.4960    9.4500   19.6160 H         1 BTN18       0.0000 
     30 H4         23.9810    7.8510   18.2890 H         1 BTN18       0.0000 
@<TRIPOS>BOND
     1    1    2 ar   
     2    1    3 1    
     3    3    4 1    
     4    3   16 1    
     5    3   17 1    
     6    4    5 1    
     7    4   18 1    
     8    4   19 1    
     9    5    6 1    
    10    5   20 1    
    11    5   21 1    
    12    6    7 1    
    13    6   22 1    
    14    6   23 1    
    15    7    8 1    
    16    7   15 1    
    17    7   24 1    
    18    8    9 1    
    19    9   10 1    
    20    9   25 1    
    21    9   26 1    
    22   10   11 1    
    23   10   15 1    
    24   10   27 1    
    25   11   12 am   
    26   11   28 1    
    27   12   13 2    
    28   12   14 am   
    29   14   15 1    
    30   14   29 1    
    31   15   30 1    
@<TRIPOS>SUBSTRUCTURE
     1 BTN18       1 GROUP   
@<TRIPOS>SET

