#    Name: 6njz_1_BTN_CAVITY_N1_4
#    Modification time : Fri May 22 19:26:50 2020

@<TRIPOS>MOLECULE
6njz_1_BTN_CAVITY_N1_4
   95     0     5     0     0
SMALL
NO_CHARGES


@<TRIPOS>ATOM
      1 OG         20.2300    6.0800   21.1300 O.3       1 SER1        0.0000 
      2 OG         26.0300    3.5900   17.0700 O.3       1 SER1        0.0000 
      3 OG         19.5800    7.5300   23.1800 O.3       1 SER1        0.0000 
      4 OG         20.6800    6.5100   23.1600 O.3       1 SER1        0.0000 
      5 OG         20.0400    8.0600   21.8500 O.3       1 SER1        0.0000 
      6 OG         20.5000    8.5900   20.5300 O.3       1 SER1        0.0000 
      7 OG         21.6100    7.5700   20.5100 O.3       1 SER1        0.0000 
      8 OG         20.9700    9.1200   19.2100 O.3       1 SER1        0.0000 
      9 OG         22.0700    8.1000   19.1800 O.3       1 SER1        0.0000 
     10 OG         26.9400    4.5600   17.7700 O.3       1 SER1        0.0000 
     11 OG         28.0400    3.5400   17.7500 O.3       1 SER1        0.0000 
     12 OG         19.6700   12.1200   19.9500 O.3       1 SER1        0.0000 
     13 OG         20.7700   11.1000   19.9300 O.3       1 SER1        0.0000 
     14 OG         21.2400   11.6300   18.6100 O.3       1 SER1        0.0000 
     15 OG         28.9500    4.5000   18.4600 O.3       1 SER1        0.0000 
     16 OG         29.4100    5.0300   17.1300 O.3       1 SER1        0.0000 
     17 OG         28.7500    6.4900   19.1800 O.3       1 SER1        0.0000 
     18 OG         29.8500    5.4700   19.1600 O.3       1 SER1        0.0000 
     19 OG         30.3200    6.0000   17.8400 O.3       1 SER1        0.0000 
     20 OG         29.0200    9.0000   18.5800 O.3       1 SER1        0.0000 
     21 OG         30.5900    8.5100   17.2400 O.3       1 SER1        0.0000 
     22 N          27.1100    2.4800   20.4000 N.am      2 ALA2        0.0000 
     23 N          27.5800    3.0100   19.0800 N.am      2 ALA2        0.0000 
     24 N          19.3800    9.5100   23.9000 N.am      2 ALA2        0.0000 
     25 N          20.9500    9.0300   22.5600 N.am      2 ALA2        0.0000 
     26 N          22.0500    8.0100   22.5400 N.am      2 ALA2        0.0000 
     27 N          22.9800    9.0700   19.8900 N.am      2 ALA2        0.0000 
     28 N          28.4800    3.9700   19.7800 N.am      2 ALA2        0.0000 
     29 N          22.3200   10.5200   21.9400 N.am      2 ALA2        0.0000 
     30 N          22.7800   11.0500   20.6100 N.am      2 ALA2        0.0000 
     31 N          23.8800   10.0300   20.5900 N.am      2 ALA2        0.0000 
     32 N          24.9800    9.0100   20.5700 N.am      2 ALA2        0.0000 
     33 N          28.5600    8.4700   19.9100 N.am      2 ALA2        0.0000 
     34 N          29.6600    7.4500   19.8900 N.am      2 ALA2        0.0000 
     35 N          30.1200    7.9800   18.5600 N.am      2 ALA2        0.0000 
     36 N          31.2200    6.9700   18.5400 N.am      2 ALA2        0.0000 
     37 N          31.4900    9.4800   17.9400 N.am      2 ALA2        0.0000 
     38 CZ         24.0200    3.6500   16.3900 C.ar      3 PHE5        0.0000 
     39 CZ         21.8000    5.5900   19.7800 C.ar      3 PHE5        0.0000 
     40 CZ         22.9000    4.5700   19.7600 C.ar      3 PHE5        0.0000 
     41 CZ         23.3700    5.1000   18.4400 C.ar      3 PHE5        0.0000 
     42 CZ         24.4700    4.0800   18.4200 C.ar      3 PHE5        0.0000 
     43 CZ         21.6300    7.6700   17.1600 C.ar      3 PHE5        0.0000 
     44 CZ         24.9300    4.6100   17.0900 C.ar      3 PHE5        0.0000 
     45 CZ         23.1700    7.0800   19.1600 C.ar      3 PHE5        0.0000 
     46 CZ         23.6400    7.6100   17.8400 C.ar      3 PHE5        0.0000 
     47 CZ         24.7400    6.5900   17.8200 C.ar      3 PHE5        0.0000 
     48 CZ         25.8400    5.5800   17.8000 C.ar      3 PHE5        0.0000 
     49 CZ         24.5400    8.5800   18.5400 C.ar      3 PHE5        0.0000 
     50 CZ         25.6400    7.5600   18.5200 C.ar      3 PHE5        0.0000 
     51 CZ         26.7400    6.5400   18.5000 C.ar      3 PHE5        0.0000 
     52 CZ         27.8500    5.5200   18.4800 C.ar      3 PHE5        0.0000 
     53 CZ         26.5500    8.5300   19.2300 C.ar      3 PHE5        0.0000 
     54 CZ         27.6500    7.5100   19.2000 C.ar      3 PHE5        0.0000 
     55 CZ         29.2200    7.0200   17.8600 C.ar      3 PHE5        0.0000 
     56 CZ         29.6800    7.5500   16.5300 C.ar      3 PHE5        0.0000 
     57 CA         24.0000    3.5500   19.7400 C.3       4 GLY6        0.0000 
     58 CA         25.1000    2.5300   19.7200 C.3       4 GLY6        0.0000 
     59 CA         21.1400    7.0400   21.8300 C.3       4 GLY6        0.0000 
     60 CA         22.2400    6.0200   21.8100 C.3       4 GLY6        0.0000 
     61 CA         23.3400    5.0100   21.7900 C.3       4 GLY6        0.0000 
     62 CA         24.9100    4.5200   20.4400 C.3       4 GLY6        0.0000 
     63 CA         26.0100    3.5000   20.4200 C.3       4 GLY6        0.0000 
     64 CA         21.4300    9.6500   17.8800 C.3       4 GLY6        0.0000 
     65 CA         22.5300    8.6300   17.8600 C.3       4 GLY6        0.0000 
     66 CA         23.1500    6.9900   22.5200 C.3       4 GLY6        0.0000 
     67 CA         24.2500    5.9700   22.4900 C.3       4 GLY6        0.0000 
     68 CA         25.3500    4.9500   22.4700 C.3       4 GLY6        0.0000 
     69 CA         24.7100    6.5000   21.1700 C.3       4 GLY6        0.0000 
     70 CA         25.8200    5.4800   21.1500 C.3       4 GLY6        0.0000 
     71 CA         26.9200    4.4600   21.1300 C.3       4 GLY6        0.0000 
     72 CA         26.2800    6.0100   19.8200 C.3       4 GLY6        0.0000 
     73 CA         27.3800    4.9900   19.8000 C.3       4 GLY6        0.0000 
     74 CA         22.3400   10.6200   18.5900 C.3       4 GLY6        0.0000 
     75 CA         23.4400    9.6000   18.5600 C.3       4 GLY6        0.0000 
     76 CA         24.0600    7.9500   23.2200 C.3       4 GLY6        0.0000 
     77 CA         25.1600    6.9400   23.2000 C.3       4 GLY6        0.0000 
     78 CA         23.4200    9.5000   21.9200 C.3       4 GLY6        0.0000 
     79 CA         24.5200    8.4800   21.9000 C.3       4 GLY6        0.0000 
     80 CA         25.6200    7.4700   21.8700 C.3       4 GLY6        0.0000 
     81 CA         26.0900    8.0000   20.5500 C.3       4 GLY6        0.0000 
     82 CA         27.1900    6.9800   20.5300 C.3       4 GLY6        0.0000 
     83 DU         25.5700    3.0600   18.3900 H         5 CUB7        0.0000 
     84 DU         22.7100    6.5500   20.4900 H         5 CUB7        0.0000 
     85 DU         23.8100    5.5300   20.4700 H         5 CUB7        0.0000 
     86 DU         24.2700    6.0600   19.1400 H         5 CUB7        0.0000 
     87 DU         25.3700    5.0500   19.1200 H         5 CUB7        0.0000 
     88 DU         26.4700    4.0300   19.1000 H         5 CUB7        0.0000 
     89 DU         20.3100   10.5700   21.2600 H         5 CUB7        0.0000 
     90 DU         21.4100    9.5600   21.2300 H         5 CUB7        0.0000 
     91 DU         22.5100    8.5400   21.2100 H         5 CUB7        0.0000 
     92 DU         23.6100    7.5200   21.1900 H         5 CUB7        0.0000 
     93 DU         21.8800   10.0900   19.9100 H         5 CUB7        0.0000 
     94 DU         24.0800    8.0500   19.8700 H         5 CUB7        0.0000 
     95 DU         25.1800    7.0300   19.8500 H         5 CUB7        0.0000 
@<TRIPOS>BOND
@<TRIPOS>SUBSTRUCTURE
     1 SER1        1 GROUP   
     2 ALA2       22 GROUP   
     3 PHE5       38 GROUP   
     4 GLY6       57 GROUP   
     5 CUB7       83 GROUP   
@<TRIPOS>SET

