#    Name: 5x68_1_FAD
#    Modification time : Fri May 22 19:18:03 2020

@<TRIPOS>MOLECULE
5x68_1_FAD
   53    58     1     0     1
SMALL
NO_CHARGES


@<TRIPOS>ATOM
      1 PA         33.0290  -14.7680  -60.5650 P.3       1 FAD401      0.0000 
      2 O1A        31.7520  -15.1780  -61.1960 O.co2     1 FAD401      0.0000 
      3 O2A        33.8660  -15.9420  -60.0650 O.co2     1 FAD401      0.0000 
      4 O5B        33.8850  -13.8610  -61.5740 O.3       1 FAD401      0.0000 
      5 C5B        35.1810  -13.4190  -61.1350 C.3       1 FAD401      0.0000 
      6 C4B        35.9410  -13.0660  -62.3850 C.3       1 FAD401      0.0000 
      7 O4B        37.1900  -12.4360  -62.0300 O.3       1 FAD401      0.0000 
      8 C3B        36.2840  -14.2550  -63.2930 C.3       1 FAD401      0.0000 
      9 O3B        35.9140  -13.9850  -64.6400 O.3       1 FAD401      0.0000 
     10 C2B        37.8000  -14.3970  -63.1360 C.3       1 FAD401      0.0000 
     11 O2B        38.3990  -14.8780  -64.3330 O.3       1 FAD401      0.0000 
     12 C1B        38.2020  -12.9520  -62.8640 C.3       1 FAD401      0.0000 
     13 N9A        39.4850  -12.7850  -62.1920 N.pl3     1 FAD401      0.0000 
     14 C8A        39.9530  -13.4740  -61.1040 C.2       1 FAD401      0.0000 
     15 N7A        41.1500  -13.1060  -60.7120 N.2       1 FAD401      0.0000 
     16 C5A        41.4940  -12.1040  -61.6050 C.ar      1 FAD401      0.0000 
     17 C6A        42.6430  -11.3010  -61.7340 C.ar      1 FAD401      0.0000 
     18 N6A        43.7040  -11.3860  -60.9250 N.pl3     1 FAD401      0.0000 
     19 N1A        42.6660  -10.3960  -62.7350 N.ar      1 FAD401      0.0000 
     20 C2A        41.6080  -10.3060  -63.5470 C.ar      1 FAD401      0.0000 
     21 N3A        40.4710  -11.0070  -63.5230 N.ar      1 FAD401      0.0000 
     22 C4A        40.4770  -11.8950  -62.5230 C.ar      1 FAD401      0.0000 
     23 N1         24.9740  -18.2400  -56.5050 N.2       1 FAD401      0.0000 
     24 C2         23.6450  -18.0080  -56.7030 C.2       1 FAD401      0.0000 
     25 O2         23.1510  -16.8880  -56.5290 O.2       1 FAD401      0.0000 
     26 N3         22.8140  -19.0410  -57.1020 N.am      1 FAD401      0.0000 
     27 C4         23.1990  -20.3480  -57.3290 C.2       1 FAD401      0.0000 
     28 O4         22.3640  -21.1740  -57.6870 O.2       1 FAD401      0.0000 
     29 C4X        24.6190  -20.5860  -57.1080 C.2       1 FAD401      0.0000 
     30 N5         25.0800  -21.7960  -57.2820 N.2       1 FAD401      0.0000 
     31 C5X        26.4360  -22.0100  -57.0520 C.ar      1 FAD401      0.0000 
     32 C6         26.9540  -23.2970  -57.2140 C.ar      1 FAD401      0.0000 
     33 C7         28.2980  -23.5680  -56.9830 C.ar      1 FAD401      0.0000 
     34 C7M        28.8150  -24.9710  -57.1700 C.3       1 FAD401      0.0000 
     35 C8         29.1540  -22.5250  -56.5800 C.ar      1 FAD401      0.0000 
     36 C8M        30.6150  -22.7740  -56.3100 C.3       1 FAD401      0.0000 
     37 C9         28.6420  -21.2420  -56.4230 C.ar      1 FAD401      0.0000 
     38 C9A        27.2970  -20.9750  -56.6530 C.ar      1 FAD401      0.0000 
     39 N10        26.7540  -19.6890  -56.4890 N.pl3     1 FAD401      0.0000 
     40 C10        25.4260  -19.4680  -56.7000 C.2       1 FAD401      0.0000 
     41 C1'        27.6090  -18.5540  -56.1200 C.3       1 FAD401      0.0000 
     42 C2'        28.0720  -17.8330  -57.3800 C.3       1 FAD401      0.0000 
     43 O2'        28.6210  -18.7750  -58.3020 O.3       1 FAD401      0.0000 
     44 C3'        29.1130  -16.7520  -57.0870 C.3       1 FAD401      0.0000 
     45 O3'        28.8260  -16.1360  -55.8370 O.3       1 FAD401      0.0000 
     46 C4'        29.1570  -15.6810  -58.1770 C.3       1 FAD401      0.0000 
     47 O4'        29.5680  -16.2660  -59.4140 O.3       1 FAD401      0.0000 
     48 C5'        30.0670  -14.5270  -57.8280 C.3       1 FAD401      0.0000 
     49 O5'        30.1660  -13.7030  -59.0060 O.3       1 FAD401      0.0000 
     50 P          31.5110  -12.8450  -59.1180 P.3       1 FAD401      0.0000 
     51 O1P        31.4730  -11.9200  -60.2750 O.co2     1 FAD401      0.0000 
     52 O2P        31.7670  -12.1230  -57.7860 O.co2     1 FAD401      0.0000 
     53 O3P        32.7120  -13.8720  -59.2900 O.3       1 FAD401      0.0000 
@<TRIPOS>BOND
     1    1    2 ar   
     2    1    3 ar   
     3    1    4 1    
     4    1   53 1    
     5    4    5 1    
     6    5    6 1    
     7    6    7 1    
     8    6    8 1    
     9    7   12 1    
    10    8    9 1    
    11    8   10 1    
    12   10   11 1    
    13   10   12 1    
    14   12   13 1    
    15   13   14 1    
    16   13   22 1    
    17   14   15 2    
    18   15   16 1    
    19   16   17 ar   
    20   16   22 ar   
    21   17   18 1    
    22   17   19 ar   
    23   19   20 ar   
    24   20   21 ar   
    25   21   22 ar   
    26   23   24 1    
    27   23   40 2    
    28   24   25 2    
    29   24   26 am   
    30   26   27 am   
    31   27   28 2    
    32   27   29 1    
    33   29   30 2    
    34   29   40 1    
    35   30   31 1    
    36   31   32 ar   
    37   31   38 ar   
    38   32   33 ar   
    39   33   34 1    
    40   33   35 ar   
    41   35   36 1    
    42   35   37 ar   
    43   37   38 ar   
    44   38   39 1    
    45   39   40 1    
    46   39   41 1    
    47   41   42 1    
    48   42   43 1    
    49   42   44 1    
    50   44   45 1    
    51   44   46 1    
    52   46   47 1    
    53   46   48 1    
    54   48   49 1    
    55   49   50 1    
    56   50   51 ar   
    57   50   52 ar   
    58   50   53 1    
@<TRIPOS>SUBSTRUCTURE
     1 FAD401      1 GROUP   
@<TRIPOS>SET
ATOM$ORANGE STATIC     ATOMS   COLORGROUP SYSTEM 
54 5 5 6 6 8 8 10 10 12 12 14 14 16 16 17 17 20 \
20 22 22 24 24 27 27 29 29 31 31 32 32 33 33 34 34 35 \
35 36 36 37 37 38 38 40 40 41 41 42 42 44 44 46 46 48 \
48 

