#    Name: 5x68_2_FAD
#    Modification time : Fri May 22 19:18:08 2020

@<TRIPOS>MOLECULE
5x68_2_FAD
   53    58     1     0     1
SMALL
NO_CHARGES


@<TRIPOS>ATOM
      1 PA         13.0440  -30.9410  -26.1100 P.3       1 FAD401      0.0000 
      2 O1A        13.3050  -29.6040  -25.5280 O.co2     1 FAD401      0.0000 
      3 O2A        14.3220  -31.7520  -26.2650 O.co2     1 FAD401      0.0000 
      4 O5B        11.9800  -31.7460  -25.2200 O.3       1 FAD401      0.0000 
      5 C5B        11.7110  -33.1190  -25.5480 C.3       1 FAD401      0.0000 
      6 C4B        11.2460  -33.7620  -24.2700 C.3       1 FAD401      0.0000 
      7 O4B        10.6580  -35.0470  -24.5580 O.3       1 FAD401      0.0000 
      8 C3B        12.3420  -33.9960  -23.2230 C.3       1 FAD401      0.0000 
      9 O3B        11.9490  -33.4180  -21.9840 O.3       1 FAD401      0.0000 
     10 C2B        12.4690  -35.5260  -23.1620 C.3       1 FAD401      0.0000 
     11 O2B        12.7530  -35.9610  -21.8390 O.3       1 FAD401      0.0000 
     12 C1B        11.0710  -35.9670  -23.5730 C.3       1 FAD401      0.0000 
     13 N9A        10.9800  -37.3030  -24.1510 N.pl3     1 FAD401      0.0000 
     14 C8A        11.7480  -37.8320  -25.1550 C.2       1 FAD401      0.0000 
     15 N7A        11.4200  -39.0560  -25.4910 N.2       1 FAD401      0.0000 
     16 C5A        10.3620  -39.3570  -24.6470 C.ar      1 FAD401      0.0000 
     17 C6A         9.5640  -40.5060  -24.4980 C.ar      1 FAD401      0.0000 
     18 N6A         9.7080  -41.6130  -25.2340 N.pl3     1 FAD401      0.0000 
     19 N1A         8.5930  -40.4790  -23.5580 N.ar      1 FAD401      0.0000 
     20 C2A         8.4390  -39.3720  -22.8240 C.ar      1 FAD401      0.0000 
     21 N3A         9.1280  -38.2290  -22.8740 N.ar      1 FAD401      0.0000 
     22 C4A        10.0820  -38.2860  -23.8130 C.ar      1 FAD401      0.0000 
     23 N1         16.7740  -23.1630  -30.6490 N.2       1 FAD401      0.0000 
     24 C2         16.4820  -21.8280  -30.6830 C.2       1 FAD401      0.0000 
     25 O2         15.3800  -21.4100  -31.0670 O.2       1 FAD401      0.0000 
     26 N3         17.4420  -20.9090  -30.2890 N.am      1 FAD401      0.0000 
     27 C4         18.7190  -21.2100  -29.8510 C.2       1 FAD401      0.0000 
     28 O4         19.4890  -20.3120  -29.5230 O.2       1 FAD401      0.0000 
     29 C4X        19.0160  -22.6200  -29.8250 C.2       1 FAD401      0.0000 
     30 N5         20.2030  -22.9910  -29.4400 N.2       1 FAD401      0.0000 
     31 C5X        20.4900  -24.3450  -29.4370 C.ar      1 FAD401      0.0000 
     32 C6         21.7630  -24.7590  -29.0460 C.ar      1 FAD401      0.0000 
     33 C7         22.1130  -26.1040  -29.0410 C.ar      1 FAD401      0.0000 
     34 C7M        23.5010  -26.5070  -28.6150 C.3       1 FAD401      0.0000 
     35 C8         21.1660  -27.0650  -29.4330 C.ar      1 FAD401      0.0000 
     36 C8M        21.5070  -28.5320  -29.4490 C.3       1 FAD401      0.0000 
     37 C9         19.8950  -26.6560  -29.8190 C.ar      1 FAD401      0.0000 
     38 C9A        19.5460  -25.3100  -29.8260 C.ar      1 FAD401      0.0000 
     39 N10        18.2660  -24.8640  -30.2250 N.pl3     1 FAD401      0.0000 
     40 C10        17.9790  -23.5300  -30.2410 C.2       1 FAD401      0.0000 
     41 C1'        17.2170  -25.8210  -30.6020 C.3       1 FAD401      0.0000 
     42 C2'        16.2720  -26.1230  -29.4450 C.3       1 FAD401      0.0000 
     43 O2'        17.0180  -26.5330  -28.3010 O.3       1 FAD401      0.0000 
     44 C3'        15.2640  -27.2200  -29.7860 C.3       1 FAD401      0.0000 
     45 O3'        14.7340  -26.9980  -31.0870 O.3       1 FAD401      0.0000 
     46 C4'        14.1070  -27.2900  -28.7890 C.3       1 FAD401      0.0000 
     47 O4'        14.5990  -27.6240  -27.4910 O.3       1 FAD401      0.0000 
     48 C5'        13.0450  -28.2800  -29.2030 C.3       1 FAD401      0.0000 
     49 O5'        12.1240  -28.3700  -28.1030 O.3       1 FAD401      0.0000 
     50 P          11.2820  -29.7220  -27.9870 P.3       1 FAD401      0.0000 
     51 O1P        10.2100  -29.6030  -26.9700 O.co2     1 FAD401      0.0000 
     52 O2P        10.7290  -30.1200  -29.3570 O.co2     1 FAD401      0.0000 
     53 O3P        12.3560  -30.8070  -27.5390 O.3       1 FAD401      0.0000 
@<TRIPOS>BOND
     1    1    2 ar   
     2    1    3 ar   
     3    1    4 1    
     4    1   53 1    
     5    4    5 1    
     6    5    6 1    
     7    6    7 1    
     8    6    8 1    
     9    7   12 1    
    10    8    9 1    
    11    8   10 1    
    12   10   11 1    
    13   10   12 1    
    14   12   13 1    
    15   13   14 1    
    16   13   22 1    
    17   14   15 2    
    18   15   16 1    
    19   16   17 ar   
    20   16   22 ar   
    21   17   18 1    
    22   17   19 ar   
    23   19   20 ar   
    24   20   21 ar   
    25   21   22 ar   
    26   23   24 1    
    27   23   40 2    
    28   24   25 2    
    29   24   26 am   
    30   26   27 am   
    31   27   28 2    
    32   27   29 1    
    33   29   30 2    
    34   29   40 1    
    35   30   31 1    
    36   31   32 ar   
    37   31   38 ar   
    38   32   33 ar   
    39   33   34 1    
    40   33   35 ar   
    41   35   36 1    
    42   35   37 ar   
    43   37   38 ar   
    44   38   39 1    
    45   39   40 1    
    46   39   41 1    
    47   41   42 1    
    48   42   43 1    
    49   42   44 1    
    50   44   45 1    
    51   44   46 1    
    52   46   47 1    
    53   46   48 1    
    54   48   49 1    
    55   49   50 1    
    56   50   51 ar   
    57   50   52 ar   
    58   50   53 1    
@<TRIPOS>SUBSTRUCTURE
     1 FAD401      1 GROUP   
@<TRIPOS>SET
ATOM$ORANGE STATIC     ATOMS   COLORGROUP SYSTEM 
54 5 5 6 6 8 8 10 10 12 12 14 14 16 16 17 17 20 \
20 22 22 24 24 27 27 29 29 31 31 32 32 33 33 34 34 35 \
35 36 36 37 37 38 38 40 40 41 41 42 42 44 44 46 46 48 \
48 

