#    Name: 6eyc_3_ADP
#    Modification time : Fri May 22 19:25:08 2020

@<TRIPOS>MOLECULE
6eyc_3_ADP
   27    29     1     0     1
SMALL
NO_CHARGES


@<TRIPOS>ATOM
      1 PB        187.3670  268.4840  222.7590 P.3       1 ADP2002     0.0000 
      2 O1B       187.5930  267.6450  221.5250 O.co2     1 ADP2002     0.0000 
      3 O2B       185.9320  268.8920  222.9790 O.co2     1 ADP2002     0.0000 
      4 O3B       188.3420  269.6150  222.9690 O.co2     1 ADP2002     0.0000 
      5 PA        186.6750  267.6450  225.2420 P.3       1 ADP2002     0.0000 
      6 O1A       185.3730  267.0010  224.8430 O.co2     1 ADP2002     0.0000 
      7 O2A       186.6780  269.1050  225.6160 O.co2     1 ADP2002     0.0000 
      8 O3A       187.6590  267.4900  223.9890 O.3       1 ADP2002     0.0000 
      9 O5'       187.2640  266.8070  226.4860 O.3       1 ADP2002     0.0000 
     10 C5'       186.4050  266.6780  227.6230 C.3       1 ADP2002     0.0000 
     11 C4'       187.0450  266.0100  228.8380 C.3       1 ADP2002     0.0000 
     12 O4'       187.1320  266.9490  229.9140 O.3       1 ADP2002     0.0000 
     13 C3'       186.1770  264.8650  229.3270 C.3       1 ADP2002     0.0000 
     14 O3'       186.9920  263.7230  229.6050 O.3       1 ADP2002     0.0000 
     15 C2'       185.5340  265.3460  230.6100 C.3       1 ADP2002     0.0000 
     16 O2'       185.6670  264.3430  231.6180 O.3       1 ADP2002     0.0000 
     17 C1'       186.2820  266.6030  231.0130 C.3       1 ADP2002     0.0000 
     18 N9        185.3270  267.7210  231.1910 N.pl3     1 ADP2002     0.0000 
     19 C8        185.4300  268.8800  230.5310 C.2       1 ADP2002     0.0000 
     20 N7        184.4430  269.7390  230.8670 N.2       1 ADP2002     0.0000 
     21 C5        183.6790  269.1260  231.7770 C.ar      1 ADP2002     0.0000 
     22 C6        182.4690  269.4930  232.5340 C.ar      1 ADP2002     0.0000 
     23 N6        181.9030  270.7100  232.3610 N.pl3     1 ADP2002     0.0000 
     24 N1        181.9670  268.5790  233.3920 N.ar      1 ADP2002     0.0000 
     25 C2        182.5510  267.3750  233.5470 C.ar      1 ADP2002     0.0000 
     26 N3        183.6530  266.9750  232.8850 N.ar      1 ADP2002     0.0000 
     27 C4        184.2620  267.7950  231.9980 C.ar      1 ADP2002     0.0000 
@<TRIPOS>BOND
     1    1    2 ar   
     2    1    3 ar   
     3    1    4 ar   
     4    1    8 1    
     5    5    6 ar   
     6    5    7 ar   
     7    5    8 1    
     8    5    9 1    
     9    9   10 1    
    10   10   11 1    
    11   11   12 1    
    12   11   13 1    
    13   12   17 1    
    14   13   14 1    
    15   13   15 1    
    16   15   16 1    
    17   15   17 1    
    18   17   18 1    
    19   18   19 1    
    20   18   27 1    
    21   19   20 2    
    22   20   21 1    
    23   21   22 ar   
    24   21   27 ar   
    25   22   23 1    
    26   22   24 ar   
    27   24   25 ar   
    28   25   26 ar   
    29   26   27 ar   
@<TRIPOS>SUBSTRUCTURE
     1 ADP2002     1 GROUP   
@<TRIPOS>SET
ATOM$ORANGE STATIC     ATOMS   COLORGROUP SYSTEM 
20 10 10 11 11 13 13 15 15 17 17 19 19 21 21 22 22 25 \
25 27 27 

