#    Name: 6eyc_1_ADP
#    Modification time : Fri May 22 19:24:28 2020

@<TRIPOS>MOLECULE
6eyc_1_ADP
   27    29     1     0     1
SMALL
NO_CHARGES


@<TRIPOS>ATOM
      1 PB        213.6000  270.9700  170.3110 P.3       1 ADP902      0.0000 
      2 O1B       213.7630  272.4650  170.1970 O.co2     1 ADP902      0.0000 
      3 O2B       214.7460  270.2640  170.9920 O.co2     1 ADP902      0.0000 
      4 O3B       212.2360  270.5270  170.7760 O.co2     1 ADP902      0.0000 
      5 PA        214.9640  270.6990  167.8840 P.3       1 ADP902      0.0000 
      6 O1A       215.4070  272.1250  168.0650 O.co2     1 ADP902      0.0000 
      7 O2A       215.9500  269.5820  168.1120 O.co2     1 ADP902      0.0000 
      8 O3A       213.6590  270.4580  168.7880 O.3       1 ADP902      0.0000 
      9 O5'       214.3880  270.5770  166.3950 O.3       1 ADP902      0.0000 
     10 C5'       215.0610  271.2600  165.3470 C.3       1 ADP902      0.0000 
     11 C4'       214.6940  270.6090  164.0240 C.3       1 ADP902      0.0000 
     12 O4'       214.6040  271.6100  163.0090 O.3       1 ADP902      0.0000 
     13 C3'       215.7570  269.6080  163.6160 C.3       1 ADP902      0.0000 
     14 O3'       215.1940  268.2970  163.5370 O.3       1 ADP902      0.0000 
     15 C2'       216.2330  270.0540  162.2510 C.3       1 ADP902      0.0000 
     16 O2'       216.0150  269.0050  161.3040 O.3       1 ADP902      0.0000 
     17 C1'       215.4170  271.2840  161.8840 C.3       1 ADP902      0.0000 
     18 N9        216.3580  272.4010  161.6280 N.pl3     1 ADP902      0.0000 
     19 C8        216.6060  273.4340  162.4540 C.2       1 ADP902      0.0000 
     20 N7        217.5290  274.2780  161.9210 N.2       1 ADP902      0.0000 
     21 C5        217.8830  273.7820  160.7240 C.ar      1 ADP902      0.0000 
     22 C6        218.8080  274.1700  159.6350 C.ar      1 ADP902      0.0000 
     23 N6        219.5610  275.2910  159.7180 N.pl3     1 ADP902      0.0000 
     24 N1        218.8700  273.3650  158.5520 N.ar      1 ADP902      0.0000 
     25 C2        218.1240  272.2500  158.4510 C.ar      1 ADP902      0.0000 
     26 N3        217.2730  271.8360  159.4000 N.ar      1 ADP902      0.0000 
     27 C4        217.1070  272.5480  160.5370 C.ar      1 ADP902      0.0000 
@<TRIPOS>BOND
     1    1    2 ar   
     2    1    3 ar   
     3    1    4 ar   
     4    1    8 1    
     5    5    6 ar   
     6    5    7 ar   
     7    5    8 1    
     8    5    9 1    
     9    9   10 1    
    10   10   11 1    
    11   11   12 1    
    12   11   13 1    
    13   12   17 1    
    14   13   14 1    
    15   13   15 1    
    16   15   16 1    
    17   15   17 1    
    18   17   18 1    
    19   18   19 1    
    20   18   27 1    
    21   19   20 2    
    22   20   21 1    
    23   21   22 ar   
    24   21   27 ar   
    25   22   23 1    
    26   22   24 ar   
    27   24   25 ar   
    28   25   26 ar   
    29   26   27 ar   
@<TRIPOS>SUBSTRUCTURE
     1 ADP902      1 GROUP   
@<TRIPOS>SET
ATOM$ORANGE STATIC     ATOMS   COLORGROUP SYSTEM 
20 10 10 11 11 13 13 15 15 17 17 19 19 21 21 22 22 25 \
25 27 27 

