#    Name: 6eyc_6_ADP
#    Modification time : Fri May 22 19:26:08 2020

@<TRIPOS>MOLECULE
6eyc_6_ADP
   27    29     1     0     1
SMALL
NO_CHARGES


@<TRIPOS>ATOM
      1 PB        181.8400  276.3320  171.0140 P.3       1 ADP1102     0.0000 
      2 O1B       182.6700  275.5470  170.0300 O.co2     1 ADP1102     0.0000 
      3 O2B       181.9570  277.8310  170.8800 O.co2     1 ADP1102     0.0000 
      4 O3B       181.9380  275.8320  172.4340 O.co2     1 ADP1102     0.0000 
      5 PA        179.7830  276.4350  169.1120 P.3       1 ADP1102     0.0000 
      6 O1A       180.6610  275.7910  168.0700 O.co2     1 ADP1102     0.0000 
      7 O2A       179.5610  277.9220  169.0770 O.co2     1 ADP1102     0.0000 
      8 O3A       180.3220  276.0170  170.5730 O.3       1 ADP1102     0.0000 
      9 O5'       178.3160  275.7910  169.0190 O.3       1 ADP1102     0.0000 
     10 C5'       177.6220  275.8740  167.7790 C.3       1 ADP1102     0.0000 
     11 C4'       176.4630  276.8540  167.9020 C.3       1 ADP1102     0.0000 
     12 O4'       176.8900  278.1810  167.5720 O.3       1 ADP1102     0.0000 
     13 C3'       175.3510  276.4860  166.9390 C.3       1 ADP1102     0.0000 
     14 O3'       174.1700  276.1550  167.6750 O.3       1 ADP1102     0.0000 
     15 C2'       175.1060  277.7190  166.0970 C.3       1 ADP1102     0.0000 
     16 O2'       173.7230  278.0770  166.1450 O.3       1 ADP1102     0.0000 
     17 C1'       175.9500  278.8270  166.7060 C.3       1 ADP1102     0.0000 
     18 N9        176.6770  279.6550  165.6940 N.pl3     1 ADP1102     0.0000 
     19 C8        177.4270  280.7260  166.0200 C.2       1 ADP1102     0.0000 
     20 N7        177.9710  281.3130  164.9250 N.2       1 ADP1102     0.0000 
     21 C5        177.5490  280.6240  163.8530 C.ar      1 ADP1102     0.0000 
     22 C6        177.7670  280.7090  162.3910 C.ar      1 ADP1102     0.0000 
     23 N6        178.5430  281.6850  161.8680 N.pl3     1 ADP1102     0.0000 
     24 N1        177.1660  279.7970  161.6000 N.ar      1 ADP1102     0.0000 
     25 C2        176.3960  278.8270  162.1180 C.ar      1 ADP1102     0.0000 
     26 N3        176.1660  278.6840  163.4350 N.ar      1 ADP1102     0.0000 
     27 C4        176.6980  279.5310  164.3540 C.ar      1 ADP1102     0.0000 
@<TRIPOS>BOND
     1    1    2 ar   
     2    1    3 ar   
     3    1    4 ar   
     4    1    8 1    
     5    5    6 ar   
     6    5    7 ar   
     7    5    8 1    
     8    5    9 1    
     9    9   10 1    
    10   10   11 1    
    11   11   12 1    
    12   11   13 1    
    13   12   17 1    
    14   13   14 1    
    15   13   15 1    
    16   15   16 1    
    17   15   17 1    
    18   17   18 1    
    19   18   19 1    
    20   18   27 1    
    21   19   20 2    
    22   20   21 1    
    23   21   22 ar   
    24   21   27 ar   
    25   22   23 1    
    26   22   24 ar   
    27   24   25 ar   
    28   25   26 ar   
    29   26   27 ar   
@<TRIPOS>SUBSTRUCTURE
     1 ADP1102     1 GROUP   
@<TRIPOS>SET
ATOM$ORANGE STATIC     ATOMS   COLORGROUP SYSTEM 
20 10 10 11 11 13 13 15 15 17 17 19 19 21 21 22 22 25 \
25 27 27 

