#    Name: 6eyc_5_ADP
#    Modification time : Fri May 22 19:25:47 2020

@<TRIPOS>MOLECULE
6eyc_5_ADP
   27    29     1     0     1
SMALL
NO_CHARGES


@<TRIPOS>ATOM
      1 PB        232.7720  270.2230  193.6460 P.3       1 ADP802      0.0000 
      2 O1B       233.0930  271.6530  193.3070 O.co2     1 ADP802      0.0000 
      3 O2B       233.3320  269.7820  194.9720 O.co2     1 ADP802      0.0000 
      4 O3B       231.3420  269.8210  193.3910 O.co2     1 ADP802      0.0000 
      5 PA        235.1820  269.1040  192.9350 P.3       1 ADP802      0.0000 
      6 O1A       235.3160  267.7360  193.5550 O.co2     1 ADP802      0.0000 
      7 O2A       235.6970  270.3030  193.6810 O.co2     1 ADP802      0.0000 
      8 O3A       233.6370  269.3750  192.5970 O.3       1 ADP802      0.0000 
      9 O5'       235.8610  269.0740  191.4820 O.3       1 ADP802      0.0000 
     10 C5'       236.9540  268.1970  191.2500 C.3       1 ADP802      0.0000 
     11 C4'       237.9220  268.8530  190.2820 C.3       1 ADP802      0.0000 
     12 O4'       238.5100  269.9970  190.9010 O.3       1 ADP802      0.0000 
     13 C3'       239.0380  267.8910  189.9360 C.3       1 ADP802      0.0000 
     14 O3'       239.1120  267.7510  188.5170 O.3       1 ADP802      0.0000 
     15 C2'       240.3070  268.5310  190.4490 C.3       1 ADP802      0.0000 
     16 O2'       241.2900  268.5370  189.4120 O.3       1 ADP802      0.0000 
     17 C1'       239.9350  269.9560  190.8170 C.3       1 ADP802      0.0000 
     18 N9        240.4960  270.3490  192.1320 N.pl3     1 ADP802      0.0000 
     19 C8        239.8460  271.0840  193.0490 C.2       1 ADP802      0.0000 
     20 N7        240.6150  271.2950  194.1440 N.2       1 ADP802      0.0000 
     21 C5        241.7920  270.6870  193.9290 C.ar      1 ADP802      0.0000 
     22 C6        243.0480  270.5190  194.6860 C.ar      1 ADP802      0.0000 
     23 N6        243.1890  271.0700  195.9140 N.pl3     1 ADP802      0.0000 
     24 N1        244.0450  269.8160  194.1100 N.ar      1 ADP802      0.0000 
     25 C2        243.9050  269.2750  192.8880 C.ar      1 ADP802      0.0000 
     26 N3        242.7900  269.3860  192.1470 N.ar      1 ADP802      0.0000 
     27 C4        241.7150  270.0720  192.6000 C.ar      1 ADP802      0.0000 
@<TRIPOS>BOND
     1    1    2 ar   
     2    1    3 ar   
     3    1    4 ar   
     4    1    8 1    
     5    5    6 ar   
     6    5    7 ar   
     7    5    8 1    
     8    5    9 1    
     9    9   10 1    
    10   10   11 1    
    11   11   12 1    
    12   11   13 1    
    13   12   17 1    
    14   13   14 1    
    15   13   15 1    
    16   15   16 1    
    17   15   17 1    
    18   17   18 1    
    19   18   19 1    
    20   18   27 1    
    21   19   20 2    
    22   20   21 1    
    23   21   22 ar   
    24   21   27 ar   
    25   22   23 1    
    26   22   24 ar   
    27   24   25 ar   
    28   25   26 ar   
    29   26   27 ar   
@<TRIPOS>SUBSTRUCTURE
     1 ADP802      1 GROUP   
@<TRIPOS>SET
ATOM$ORANGE STATIC     ATOMS   COLORGROUP SYSTEM 
20 10 10 11 11 13 13 15 15 17 17 19 19 21 21 22 22 25 \
25 27 27 

