#    Name: 6eyc_2_ADP
#    Modification time : Fri May 22 19:24:46 2020

@<TRIPOS>MOLECULE
6eyc_2_ADP
   27    29     1     0     1
SMALL
NO_CHARGES


@<TRIPOS>ATOM
      1 PB        218.3190  267.3120  220.4050 P.3       1 ADP2001     0.0000 
      2 O1B       217.7930  266.8160  219.0800 O.co2     1 ADP2001     0.0000 
      3 O2B       217.5610  266.8600  221.6210 O.co2     1 ADP2001     0.0000 
      4 O3B       218.5970  268.7790  220.4360 O.co2     1 ADP2001     0.0000 
      5 PA        220.5200  266.4950  221.9670 P.3       1 ADP2001     0.0000 
      6 O1A       221.1550  267.8190  222.2990 O.co2     1 ADP2001     0.0000 
      7 O2A       219.6050  265.8410  222.9730 O.co2     1 ADP2001     0.0000 
      8 O3A       219.7530  266.5930  220.5520 O.3       1 ADP2001     0.0000 
      9 O5'       221.7280  265.4860  221.6420 O.3       1 ADP2001     0.0000 
     10 C5'       222.3150  264.7380  222.7000 C.3       1 ADP2001     0.0000 
     11 C4'       223.6650  265.3400  223.0620 C.3       1 ADP2001     0.0000 
     12 O4'       223.4470  266.6370  223.6190 O.3       1 ADP2001     0.0000 
     13 C3'       224.3740  264.5020  224.1130 C.3       1 ADP2001     0.0000 
     14 O3'       225.6970  264.1900  223.6710 O.3       1 ADP2001     0.0000 
     15 C2'       224.4530  265.3710  225.3480 C.3       1 ADP2001     0.0000 
     16 O2'       225.7730  265.3500  225.8940 O.3       1 ADP2001     0.0000 
     17 C1'       224.1150  266.7720  224.8740 C.3       1 ADP2001     0.0000 
     18 N9        223.2370  267.4570  225.8560 N.pl3     1 ADP2001     0.0000 
     19 C8        222.1370  268.1750  225.5660 C.2       1 ADP2001     0.0000 
     20 N7        221.5740  268.6820  226.6930 N.2       1 ADP2001     0.0000 
     21 C5        222.3270  268.2910  227.7360 C.ar      1 ADP2001     0.0000 
     22 C6        222.2980  268.4760  229.2050 C.ar      1 ADP2001     0.0000 
     23 N6        221.3250  269.2000  229.8040 N.pl3     1 ADP2001     0.0000 
     24 N1        223.2760  267.8970  229.9310 N.ar      1 ADP2001     0.0000 
     25 C2        224.2500  267.1760  229.3500 C.ar      1 ADP2001     0.0000 
     26 N3        224.3380  266.9680  228.0250 N.ar      1 ADP2001     0.0000 
     27 C4        223.4200  267.4850  227.1770 C.ar      1 ADP2001     0.0000 
@<TRIPOS>BOND
     1    1    2 ar   
     2    1    3 ar   
     3    1    4 ar   
     4    1    8 1    
     5    5    6 ar   
     6    5    7 ar   
     7    5    8 1    
     8    5    9 1    
     9    9   10 1    
    10   10   11 1    
    11   11   12 1    
    12   11   13 1    
    13   12   17 1    
    14   13   14 1    
    15   13   15 1    
    16   15   16 1    
    17   15   17 1    
    18   17   18 1    
    19   18   19 1    
    20   18   27 1    
    21   19   20 2    
    22   20   21 1    
    23   21   22 ar   
    24   21   27 ar   
    25   22   23 1    
    26   22   24 ar   
    27   24   25 ar   
    28   25   26 ar   
    29   26   27 ar   
@<TRIPOS>SUBSTRUCTURE
     1 ADP2001     1 GROUP   
@<TRIPOS>SET
ATOM$ORANGE STATIC     ATOMS   COLORGROUP SYSTEM 
20 10 10 11 11 13 13 15 15 17 17 19 19 21 21 22 22 25 \
25 27 27 

