#    Name: 6eyc_4_ADP
#    Modification time : Fri May 22 19:25:28 2020

@<TRIPOS>MOLECULE
6eyc_4_ADP
   27    29     1     0     1
SMALL
NO_CHARGES


@<TRIPOS>ATOM
      1 PB        168.7660  275.1700  199.1880 P.3       1 ADP1002     0.0000 
      2 O1B       167.9740  275.4410  197.9350 O.co2     1 ADP1002     0.0000 
      3 O2B       168.9400  276.3890  200.0580 O.co2     1 ADP1002     0.0000 
      4 O3B       170.0190  274.3650  198.9610 O.co2     1 ADP1002     0.0000 
      5 PA        166.2810  274.5180  199.7900 P.3       1 ADP1002     0.0000 
      6 O1A       165.9160  273.8300  198.5000 O.co2     1 ADP1002     0.0000 
      7 O2A       166.2210  276.0130  199.9300 O.co2     1 ADP1002     0.0000 
      8 O3A       167.8190  274.2050  200.0610 O.3       1 ADP1002     0.0000 
      9 O5'       165.3090  273.9320  200.9200 O.3       1 ADP1002     0.0000 
     10 C5'       163.9480  274.2440  200.6330 C.3       1 ADP1002     0.0000 
     11 C4'       162.9540  273.9620  201.7440 C.3       1 ADP1002     0.0000 
     12 O4'       162.4130  275.2110  202.1760 O.3       1 ADP1002     0.0000 
     13 C3'       161.8090  273.1690  201.1510 C.3       1 ADP1002     0.0000 
     14 O3'       161.2940  272.2590  202.1230 O.3       1 ADP1002     0.0000 
     15 C2'       160.7610  274.2090  200.8300 C.3       1 ADP1002     0.0000 
     16 O2'       159.4440  273.6830  201.0100 O.3       1 ADP1002     0.0000 
     17 C1'       161.0370  275.3350  201.8090 C.3       1 ADP1002     0.0000 
     18 N9        160.8140  276.6350  201.1360 N.pl3     1 ADP1002     0.0000 
     19 C8        161.6560  277.6820  201.1550 C.2       1 ADP1002     0.0000 
     20 N7        161.1530  278.7230  200.4470 N.2       1 ADP1002     0.0000 
     21 C5        159.9580  278.3470  199.9640 C.ar      1 ADP1002     0.0000 
     22 C6        158.9010  278.9670  199.1380 C.ar      1 ADP1002     0.0000 
     23 N6        159.0310  280.2320  198.6750 N.pl3     1 ADP1002     0.0000 
     24 N1        157.8060  278.2320  198.8590 N.ar      1 ADP1002     0.0000 
     25 C2        157.6710  276.9750  199.3140 C.ar      1 ADP1002     0.0000 
     26 N3        158.5890  276.3490  200.0700 N.ar      1 ADP1002     0.0000 
     27 C4        159.7350  276.9720  200.4270 C.ar      1 ADP1002     0.0000 
@<TRIPOS>BOND
     1    1    2 ar   
     2    1    3 ar   
     3    1    4 ar   
     4    1    8 1    
     5    5    6 ar   
     6    5    7 ar   
     7    5    8 1    
     8    5    9 1    
     9    9   10 1    
    10   10   11 1    
    11   11   12 1    
    12   11   13 1    
    13   12   17 1    
    14   13   14 1    
    15   13   15 1    
    16   15   16 1    
    17   15   17 1    
    18   17   18 1    
    19   18   19 1    
    20   18   27 1    
    21   19   20 2    
    22   20   21 1    
    23   21   22 ar   
    24   21   27 ar   
    25   22   23 1    
    26   22   24 ar   
    27   24   25 ar   
    28   25   26 ar   
    29   26   27 ar   
@<TRIPOS>SUBSTRUCTURE
     1 ADP1002     1 GROUP   
@<TRIPOS>SET
ATOM$ORANGE STATIC     ATOMS   COLORGROUP SYSTEM 
20 10 10 11 11 13 13 15 15 17 17 19 19 21 21 22 22 25 \
25 27 27 

