#    Name: 6eky_2_1NP_CAVITY_N1_4
#    Modification time : Fri May 22 19:28:19 2020

@<TRIPOS>MOLECULE
6eky_2_1NP_CAVITY_N1_4
   69     0     5     0     0
SMALL
NO_CHARGES


@<TRIPOS>ATOM
      1 OG         11.5400   10.9400    9.2400 O.3       1 SER1        0.0000 
      2 OG         11.9700    9.5300    9.5400 O.3       1 SER1        0.0000 
      3 OG         11.4800   11.3700   11.3100 O.3       1 SER1        0.0000 
      4 OG         12.5300   11.4600   10.2400 O.3       1 SER1        0.0000 
      5 N           7.5300    9.3000    7.3000 N.am      2 ALA2        0.0000 
      6 N           7.9600    7.8900    7.6100 N.am      2 ALA2        0.0000 
      7 N           8.3900    6.4900    7.9100 N.am      2 ALA2        0.0000 
      8 CZ          5.2000   13.4300    7.4600 C.ar      3 PHE5        0.0000 
      9 CZ          6.4900    9.2100    8.3700 C.ar      3 PHE5        0.0000 
     10 CZ          6.6700   12.1100    6.6900 C.ar      3 PHE5        0.0000 
     11 CZ          7.1000   10.7000    7.0000 C.ar      3 PHE5        0.0000 
     12 CZ          6.0000   11.0500   10.1400 C.ar      3 PHE5        0.0000 
     13 CZ          6.4300    9.6500   10.4500 C.ar      3 PHE5        0.0000 
     14 CZ          6.6200   12.5400    8.7700 C.ar      3 PHE5        0.0000 
     15 CZ          7.0400   11.1400    9.0700 C.ar      3 PHE5        0.0000 
     16 CZ          7.4700    9.7300    9.3800 C.ar      3 PHE5        0.0000 
     17 CZ          9.8000    5.6000    9.2200 C.ar      3 PHE5        0.0000 
     18 CZ         10.8500    5.6900    8.1500 C.ar      3 PHE5        0.0000 
     19 CZ         10.7900    6.1200   10.2200 C.ar      3 PHE5        0.0000 
     20 CZ         11.4100    7.6100    8.8500 C.ar      3 PHE5        0.0000 
     21 CZ         11.7800    6.6400   11.2300 C.ar      3 PHE5        0.0000 
     22 CZ         12.3900    8.1300    9.8500 C.ar      3 PHE5        0.0000 
     23 CZ         12.8200    6.7200   10.1500 C.ar      3 PHE5        0.0000 
     24 CA          6.9100    7.8100    8.6800 C.3       4 GLY6        0.0000 
     25 CA          7.3400    6.4000    8.9900 C.3       4 GLY6        0.0000 
     26 CA          8.8100    5.0800    8.2200 C.3       4 GLY6        0.0000 
     27 CA          8.1500   10.7900    5.9200 C.3       4 GLY6        0.0000 
     28 CA          8.5700    9.3800    6.2300 C.3       4 GLY6        0.0000 
     29 CA          6.8600    8.2400   10.7600 C.3       4 GLY6        0.0000 
     30 CA          8.7100   12.7100    6.6200 C.3       4 GLY6        0.0000 
     31 CA          9.1300   11.3100    6.9300 C.3       4 GLY6        0.0000 
     32 CA          9.5600    9.9000    7.2300 C.3       4 GLY6        0.0000 
     33 CA          9.9900    8.5000    7.5400 C.3       4 GLY6        0.0000 
     34 CA         10.4200    7.0900    7.8400 C.3       4 GLY6        0.0000 
     35 CA         10.6100    9.9900    6.1600 C.3       4 GLY6        0.0000 
     36 CA         11.5900   10.5000    7.1600 C.3       4 GLY6        0.0000 
     37 CA         12.0200    9.1000    7.4700 C.3       4 GLY6        0.0000 
     38 CA         11.3500    8.0400   10.9200 C.3       4 GLY6        0.0000 
     39 CA         12.5800   11.0200    8.1600 C.3       4 GLY6        0.0000 
     40 CA         10.0100   12.6900   12.0800 C.3       4 GLY6        0.0000 
     41 CA         10.8600    9.8800   12.6900 C.3       4 GLY6        0.0000 
     42 CA         11.2900    8.4800   13.0000 C.3       4 GLY6        0.0000 
     43 CA         11.9100    9.9700   11.6200 C.3       4 GLY6        0.0000 
     44 CA         12.7600    7.1600   12.2300 C.3       4 GLY6        0.0000 
     45 DU          6.1900   13.9500    8.4600 H         5 CUB7        0.0000 
     46 DU          7.9000    8.3300    9.6800 H         5 CUB7        0.0000 
     47 DU          8.3300    6.9200    9.9900 H         5 CUB7        0.0000 
     48 DU          7.2300   14.0300    7.3900 H         5 CUB7        0.0000 
     49 DU          7.6600   12.6300    7.6900 H         5 CUB7        0.0000 
     50 DU          8.0900   11.2200    8.0000 H         5 CUB7        0.0000 
     51 DU          8.5200    9.8200    8.3000 H         5 CUB7        0.0000 
     52 DU          8.9500    8.4100    8.6100 H         5 CUB7        0.0000 
     53 DU          9.3700    7.0100    8.9200 H         5 CUB7        0.0000 
     54 DU          7.1800   14.4600    9.4600 H         5 CUB7        0.0000 
     55 DU          8.0300   11.6500   10.0700 H         5 CUB7        0.0000 
     56 DU          9.7400    6.0400   11.3000 H         5 CUB7        0.0000 
     57 DU         10.3600    7.5300    9.9200 H         5 CUB7        0.0000 
     58 DU         10.1200   11.8200    7.9300 H         5 CUB7        0.0000 
     59 DU         10.5500   10.4200    8.2300 H         5 CUB7        0.0000 
     60 DU         10.9800    9.0100    8.5400 H         5 CUB7        0.0000 
     61 DU          8.5900   13.5800   10.7700 H         5 CUB7        0.0000 
     62 DU          9.0200   12.1700   11.0800 H         5 CUB7        0.0000 
     63 DU          9.8800    9.3600   11.6900 H         5 CUB7        0.0000 
     64 DU         10.3000    7.9600   11.9900 H         5 CUB7        0.0000 
     65 DU         10.4900   10.8500   10.3100 H         5 CUB7        0.0000 
     66 DU         10.9200    9.4500   10.6200 H         5 CUB7        0.0000 
     67 DU         11.1100   12.3400    8.9300 H         5 CUB7        0.0000 
     68 DU         10.4400   11.2900   12.3900 H         5 CUB7        0.0000 
     69 DU         11.0500   12.7800   11.0100 H         5 CUB7        0.0000 
@<TRIPOS>BOND
@<TRIPOS>SUBSTRUCTURE
     1 SER1        1 GROUP   
     2 ALA2        5 GROUP   
     3 PHE5        8 GROUP   
     4 GLY6       24 GROUP   
     5 CUB7       45 GROUP   
@<TRIPOS>SET

