#    Name: 6eky_4_1NP
#    Modification time : Fri May 22 19:28:27 2020

@<TRIPOS>MOLECULE
6eky_4_1NP
   11    12     1     0     0
SMALL
NO_CHARGES


@<TRIPOS>ATOM
      1 O1         10.4940   14.3930    5.5370 Du        1 1NP416      0.0000 
      2 C1          9.5730   15.2320    6.0710 C.ar      1 1NP416      0.0000 
      3 C8A         8.2240   15.4080    5.4470 C.ar      1 1NP416      0.0000 
      4 C8          7.7880   14.7610    4.2990 C.ar      1 1NP416      0.0000 
      5 C7          6.5200   14.9760    3.7750 C.ar      1 1NP416      0.0000 
      6 C2          9.8800   15.9330    7.2350 C.ar      1 1NP416      0.0000 
      7 C3          8.9530   16.7990    7.8100 C.ar      1 1NP416      0.0000 
      8 C4          7.6840   16.9920    7.2540 C.ar      1 1NP416      0.0000 
      9 C4A         7.2810   16.3350    6.1050 C.ar      1 1NP416      0.0000 
     10 C5          6.0200   16.5320    5.5540 C.ar      1 1NP416      0.0000 
     11 C6          5.6400   15.8560    4.3990 C.ar      1 1NP416      0.0000 
@<TRIPOS>BOND
     1    1    2 du   
     2    2    3 ar   
     3    2    6 ar   
     4    3    4 ar   
     5    3    9 ar   
     6    4    5 ar   
     7    5   11 ar   
     8    6    7 ar   
     9    7    8 ar   
    10    8    9 ar   
    11    9   10 ar   
    12   10   11 ar   
@<TRIPOS>SUBSTRUCTURE
     1 1NP416      1 GROUP   
@<TRIPOS>SET

