#    Name: 6eky_4_1NP_CAVITY_N1_8
#    Modification time : Fri May 22 19:28:27 2020

@<TRIPOS>MOLECULE
6eky_4_1NP_CAVITY_N1_8
   71     0     5     0     0
SMALL
NO_CHARGES


@<TRIPOS>ATOM
      1 OG         11.5400   10.9400    9.2400 O.3       1 SER1        0.0000 
      2 OG         11.9700    9.5300    9.5400 O.3       1 SER1        0.0000 
      3 OG         11.4800   11.3700   11.3100 O.3       1 SER1        0.0000 
      4 OG         12.5300   11.4600   10.2400 O.3       1 SER1        0.0000 
      5 N           4.7700   14.8300    7.1500 N.am      2 ALA2        0.0000 
      6 N           7.5300    9.3000    7.3000 N.am      2 ALA2        0.0000 
      7 N           7.9600    7.8900    7.6100 N.am      2 ALA2        0.0000 
      8 O           7.4900   13.9300   13.9200 O.2       2 ALA2        0.0000 
      9 O           7.9200   12.5200   14.2300 O.2       2 ALA2        0.0000 
     10 CZ          5.2000   13.4300    7.4600 C.ar      3 PHE5        0.0000 
     11 CZ          6.4900    9.2100    8.3700 C.ar      3 PHE5        0.0000 
     12 CZ          6.6700   12.1100    6.6900 C.ar      3 PHE5        0.0000 
     13 CZ          7.1000   10.7000    7.0000 C.ar      3 PHE5        0.0000 
     14 CZ          4.5300   12.3700   10.9100 C.ar      3 PHE5        0.0000 
     15 CZ          4.9600   10.9700   11.2200 C.ar      3 PHE5        0.0000 
     16 CZ          5.5700   12.4600    9.8400 C.ar      3 PHE5        0.0000 
     17 CZ          6.0000   11.0500   10.1400 C.ar      3 PHE5        0.0000 
     18 CZ          6.4300    9.6500   10.4500 C.ar      3 PHE5        0.0000 
     19 CZ          6.6200   12.5400    8.7700 C.ar      3 PHE5        0.0000 
     20 CZ          7.0400   11.1400    9.0700 C.ar      3 PHE5        0.0000 
     21 CZ          7.4700    9.7300    9.3800 C.ar      3 PHE5        0.0000 
     22 CA          8.1500   10.7900    5.9200 C.3       4 GLY6        0.0000 
     23 CA          8.5700    9.3800    6.2300 C.3       4 GLY6        0.0000 
     24 CA          4.7200   15.2700    9.2300 C.3       4 GLY6        0.0000 
     25 CA          5.1400   13.8600    9.5300 C.3       4 GLY6        0.0000 
     26 CA          8.7100   12.7100    6.6200 C.3       4 GLY6        0.0000 
     27 CA          9.1300   11.3100    6.9300 C.3       4 GLY6        0.0000 
     28 CA          9.5600    9.9000    7.2300 C.3       4 GLY6        0.0000 
     29 CA          9.9900    8.5000    7.5400 C.3       4 GLY6        0.0000 
     30 CA         10.6100    9.9900    6.1600 C.3       4 GLY6        0.0000 
     31 CA          4.4700   12.8100   12.9900 C.3       4 GLY6        0.0000 
     32 CA          5.5200   12.8900   11.9100 C.3       4 GLY6        0.0000 
     33 CA          5.9400   11.4900   12.2200 C.3       4 GLY6        0.0000 
     34 CA          6.1300   14.3800   10.5400 C.3       4 GLY6        0.0000 
     35 CA         11.5900   10.5000    7.1600 C.3       4 GLY6        0.0000 
     36 CA         12.0200    9.1000    7.4700 C.3       4 GLY6        0.0000 
     37 CA          5.4600   13.3200   13.9900 C.3       4 GLY6        0.0000 
     38 CA          6.5000   13.4100   12.9200 C.3       4 GLY6        0.0000 
     39 CA          7.1200   14.9000   11.5400 C.3       4 GLY6        0.0000 
     40 CA         12.5800   11.0200    8.1600 C.3       4 GLY6        0.0000 
     41 CA          8.5300   14.0100   12.8500 C.3       4 GLY6        0.0000 
     42 CA          8.9600   12.6100   13.1500 C.3       4 GLY6        0.0000 
     43 CA         10.0100   12.6900   12.0800 C.3       4 GLY6        0.0000 
     44 CA         11.9100    9.9700   11.6200 C.3       4 GLY6        0.0000 
     45 DU          6.1900   13.9500    8.4600 H         5 CUB7        0.0000 
     46 DU          7.9000    8.3300    9.6800 H         5 CUB7        0.0000 
     47 DU          7.2300   14.0300    7.3900 H         5 CUB7        0.0000 
     48 DU          7.6600   12.6300    7.6900 H         5 CUB7        0.0000 
     49 DU          8.0900   11.2200    8.0000 H         5 CUB7        0.0000 
     50 DU          8.5200    9.8200    8.3000 H         5 CUB7        0.0000 
     51 DU          8.9500    8.4100    8.6100 H         5 CUB7        0.0000 
     52 DU          6.5600   12.9700   10.8400 H         5 CUB7        0.0000 
     53 DU          6.9900   11.5700   11.1500 H         5 CUB7        0.0000 
     54 DU          7.4200   10.1700   11.4500 H         5 CUB7        0.0000 
     55 DU          7.1800   14.4600    9.4600 H         5 CUB7        0.0000 
     56 DU          8.0300   11.6500   10.0700 H         5 CUB7        0.0000 
     57 DU         10.1200   11.8200    7.9300 H         5 CUB7        0.0000 
     58 DU         10.5500   10.4200    8.2300 H         5 CUB7        0.0000 
     59 DU         10.9800    9.0100    8.5400 H         5 CUB7        0.0000 
     60 DU          6.9300   12.0000   13.2200 H         5 CUB7        0.0000 
     61 DU          7.5500   13.4900   11.8400 H         5 CUB7        0.0000 
     62 DU          7.9800   12.0900   12.1500 H         5 CUB7        0.0000 
     63 DU          8.4000   10.6800   12.4600 H         5 CUB7        0.0000 
     64 DU          8.5900   13.5800   10.7700 H         5 CUB7        0.0000 
     65 DU          9.0200   12.1700   11.0800 H         5 CUB7        0.0000 
     66 DU          9.8800    9.3600   11.6900 H         5 CUB7        0.0000 
     67 DU         10.4900   10.8500   10.3100 H         5 CUB7        0.0000 
     68 DU         10.9200    9.4500   10.6200 H         5 CUB7        0.0000 
     69 DU         11.1100   12.3400    8.9300 H         5 CUB7        0.0000 
     70 DU         10.4400   11.2900   12.3900 H         5 CUB7        0.0000 
     71 DU         11.0500   12.7800   11.0100 H         5 CUB7        0.0000 
@<TRIPOS>BOND
@<TRIPOS>SUBSTRUCTURE
     1 SER1        1 GROUP   
     2 ALA2        5 GROUP   
     3 PHE5       10 GROUP   
     4 GLY6       22 GROUP   
     5 CUB7       45 GROUP   
@<TRIPOS>SET

