#    Name: 6eky_5_1NP
#    Modification time : Fri May 22 19:28:30 2020

@<TRIPOS>MOLECULE
6eky_5_1NP
   11    12     1     0     0
SMALL
NO_CHARGES


@<TRIPOS>ATOM
      1 O1          8.9600   11.8310   14.5700 Du        1 1NP417      0.0000 
      2 C1          8.2510   11.2940   13.5380 C.ar      1 1NP417      0.0000 
      3 C8A         6.7730   11.4220   13.5390 C.ar      1 1NP417      0.0000 
      4 C8          6.0630   12.0660   14.5520 C.ar      1 1NP417      0.0000 
      5 C7          4.6780   12.1500   14.4870 C.ar      1 1NP417      0.0000 
      6 C2          8.8630   10.6270   12.4710 C.ar      1 1NP417      0.0000 
      7 C3          8.1040   10.0830   11.4270 C.ar      1 1NP417      0.0000 
      8 C4          6.7150   10.1720   11.3820 C.ar      1 1NP417      0.0000 
      9 C4A         6.0380   10.8250   12.4010 C.ar      1 1NP417      0.0000 
     10 C5          4.6750   10.9540   12.3680 C.ar      1 1NP417      0.0000 
     11 C6          4.0030   11.5960   13.4080 C.ar      1 1NP417      0.0000 
@<TRIPOS>BOND
     1    1    2 du   
     2    2    3 ar   
     3    2    6 ar   
     4    3    4 ar   
     5    3    9 ar   
     6    4    5 ar   
     7    5   11 ar   
     8    6    7 ar   
     9    7    8 ar   
    10    8    9 ar   
    11    9   10 ar   
    12   10   11 ar   
@<TRIPOS>SUBSTRUCTURE
     1 1NP417      1 GROUP   
@<TRIPOS>SET

