#    Name: 6eky_3_1NP_CAVITY_N1_4
#    Modification time : Fri May 22 19:28:23 2020

@<TRIPOS>MOLECULE
6eky_3_1NP_CAVITY_N1_4
   43     0     4     0     0
SMALL
NO_CHARGES


@<TRIPOS>ATOM
      1 N           4.7700   14.8300    7.1500 N.am      1 ALA2        0.0000 
      2 O           7.4900   13.9300   13.9200 O.2       1 ALA2        0.0000 
      3 O           7.9200   12.5200   14.2300 O.2       1 ALA2        0.0000 
      4 CZ          5.2000   13.4300    7.4600 C.ar      2 PHE5        0.0000 
      5 CZ          6.6700   12.1100    6.6900 C.ar      2 PHE5        0.0000 
      6 CZ          7.1000   10.7000    7.0000 C.ar      2 PHE5        0.0000 
      7 CZ          4.5300   12.3700   10.9100 C.ar      2 PHE5        0.0000 
      8 CZ          4.9600   10.9700   11.2200 C.ar      2 PHE5        0.0000 
      9 CZ          5.5700   12.4600    9.8400 C.ar      2 PHE5        0.0000 
     10 CZ          6.0000   11.0500   10.1400 C.ar      2 PHE5        0.0000 
     11 CZ          6.4300    9.6500   10.4500 C.ar      2 PHE5        0.0000 
     12 CZ          6.6200   12.5400    8.7700 C.ar      2 PHE5        0.0000 
     13 CZ          7.0400   11.1400    9.0700 C.ar      2 PHE5        0.0000 
     14 CZ          7.4700    9.7300    9.3800 C.ar      2 PHE5        0.0000 
     15 CA          4.7200   15.2700    9.2300 C.3       3 GLY6        0.0000 
     16 CA          5.1400   13.8600    9.5300 C.3       3 GLY6        0.0000 
     17 CA          8.7100   12.7100    6.6200 C.3       3 GLY6        0.0000 
     18 CA          4.4700   12.8100   12.9900 C.3       3 GLY6        0.0000 
     19 CA          5.5200   12.8900   11.9100 C.3       3 GLY6        0.0000 
     20 CA          5.9400   11.4900   12.2200 C.3       3 GLY6        0.0000 
     21 CA          6.1300   14.3800   10.5400 C.3       3 GLY6        0.0000 
     22 CA          5.4600   13.3200   13.9900 C.3       3 GLY6        0.0000 
     23 CA          6.5000   13.4100   12.9200 C.3       3 GLY6        0.0000 
     24 CA          7.1200   14.9000   11.5400 C.3       3 GLY6        0.0000 
     25 CA          8.5300   14.0100   12.8500 C.3       3 GLY6        0.0000 
     26 CA          8.9600   12.6100   13.1500 C.3       3 GLY6        0.0000 
     27 CA         10.0100   12.6900   12.0800 C.3       3 GLY6        0.0000 
     28 DU          6.1900   13.9500    8.4600 H         4 CUB7        0.0000 
     29 DU          7.2300   14.0300    7.3900 H         4 CUB7        0.0000 
     30 DU          7.6600   12.6300    7.6900 H         4 CUB7        0.0000 
     31 DU          8.0900   11.2200    8.0000 H         4 CUB7        0.0000 
     32 DU          6.5600   12.9700   10.8400 H         4 CUB7        0.0000 
     33 DU          6.9900   11.5700   11.1500 H         4 CUB7        0.0000 
     34 DU          7.4200   10.1700   11.4500 H         4 CUB7        0.0000 
     35 DU          7.1800   14.4600    9.4600 H         4 CUB7        0.0000 
     36 DU          8.0300   11.6500   10.0700 H         4 CUB7        0.0000 
     37 DU          6.9300   12.0000   13.2200 H         4 CUB7        0.0000 
     38 DU          7.5500   13.4900   11.8400 H         4 CUB7        0.0000 
     39 DU          7.9800   12.0900   12.1500 H         4 CUB7        0.0000 
     40 DU          8.4000   10.6800   12.4600 H         4 CUB7        0.0000 
     41 DU          8.5900   13.5800   10.7700 H         4 CUB7        0.0000 
     42 DU          9.0200   12.1700   11.0800 H         4 CUB7        0.0000 
     43 DU         11.0500   12.7800   11.0100 H         4 CUB7        0.0000 
@<TRIPOS>BOND
@<TRIPOS>SUBSTRUCTURE
     1 ALA2        1 GROUP   
     2 PHE5        4 GROUP   
     3 GLY6       15 GROUP   
     4 CUB7       28 GROUP   
@<TRIPOS>SET

