#    Name: 6eky_4_1NP_CAVITY_N1_4
#    Modification time : Fri May 22 19:28:27 2020

@<TRIPOS>MOLECULE
6eky_4_1NP_CAVITY_N1_4
   10     0     4     0     0
SMALL
NO_CHARGES


@<TRIPOS>ATOM
      1 N           4.7700   14.8300    7.1500 N.am      1 ALA2        0.0000 
      2 CZ          5.2000   13.4300    7.4600 C.ar      2 PHE5        0.0000 
      3 CZ          6.6700   12.1100    6.6900 C.ar      2 PHE5        0.0000 
      4 CA          4.7200   15.2700    9.2300 C.3       3 GLY6        0.0000 
      5 CA          8.7100   12.7100    6.6200 C.3       3 GLY6        0.0000 
      6 DU          6.1900   13.9500    8.4600 H         4 CUB7        0.0000 
      7 DU          7.2300   14.0300    7.3900 H         4 CUB7        0.0000 
      8 DU          7.6600   12.6300    7.6900 H         4 CUB7        0.0000 
      9 DU          7.1800   14.4600    9.4600 H         4 CUB7        0.0000 
     10 DU         10.1200   11.8200    7.9300 H         4 CUB7        0.0000 
@<TRIPOS>BOND
@<TRIPOS>SUBSTRUCTURE
     1 ALA2        1 GROUP   
     2 PHE5        2 GROUP   
     3 GLY6        4 GROUP   
     4 CUB7        6 GROUP   
@<TRIPOS>SET

