#    Name: 6eky_1_1NP_CAVITY_N1_4
#    Modification time : Fri May 22 19:28:15 2020

@<TRIPOS>MOLECULE
6eky_1_1NP_CAVITY_N1_4
   54     0     5     0     0
SMALL
NO_CHARGES


@<TRIPOS>ATOM
      1 OG         11.9700    9.5300    9.5400 O.3       1 SER1        0.0000 
      2 N           7.9600    7.8900    7.6100 N.am      2 ALA2        0.0000 
      3 N           8.3900    6.4900    7.9100 N.am      2 ALA2        0.0000 
      4 CZ          7.2800    6.8400   11.0600 C.ar      3 PHE5        0.0000 
      5 CZ          9.8000    5.6000    9.2200 C.ar      3 PHE5        0.0000 
      6 CZ         10.2300    4.2000    9.5300 C.ar      3 PHE5        0.0000 
      7 CZ         10.8500    5.6900    8.1500 C.ar      3 PHE5        0.0000 
      8 CZ          7.8400    8.7600   11.7600 C.ar      3 PHE5        0.0000 
      9 CZ          8.2700    7.3600   12.0600 C.ar      3 PHE5        0.0000 
     10 CZ          8.7000    5.9500   12.3700 C.ar      3 PHE5        0.0000 
     11 CZ         10.7900    6.1200   10.2200 C.ar      3 PHE5        0.0000 
     12 CZ         11.2200    4.7200   10.5300 C.ar      3 PHE5        0.0000 
     13 CZ         11.6400    3.3100   10.8300 C.ar      3 PHE5        0.0000 
     14 CZ         11.4100    7.6100    8.8500 C.ar      3 PHE5        0.0000 
     15 CZ          8.8300    9.2800   12.7600 C.ar      3 PHE5        0.0000 
     16 CZ          9.2600    7.8700   13.0700 C.ar      3 PHE5        0.0000 
     17 CZ          9.6900    6.4700   13.3700 C.ar      3 PHE5        0.0000 
     18 CZ         11.7800    6.6400   11.2300 C.ar      3 PHE5        0.0000 
     19 CZ         12.2000    5.2300   11.5300 C.ar      3 PHE5        0.0000 
     20 CZ         12.3900    8.1300    9.8500 C.ar      3 PHE5        0.0000 
     21 CZ         12.8200    6.7200   10.1500 C.ar      3 PHE5        0.0000 
     22 CA          6.3000    6.3200   10.0600 C.3       4 GLY6        0.0000 
     23 CA          6.9100    7.8100    8.6800 C.3       4 GLY6        0.0000 
     24 CA          7.3400    6.4000    8.9900 C.3       4 GLY6        0.0000 
     25 CA          8.8100    5.0800    8.2200 C.3       4 GLY6        0.0000 
     26 CA          6.8600    8.2400   10.7600 C.3       4 GLY6        0.0000 
     27 CA          7.7100    5.4300   11.3700 C.3       4 GLY6        0.0000 
     28 CA          8.1400    4.0300   11.6700 C.3       4 GLY6        0.0000 
     29 CA          8.7600    5.5200   10.2900 C.3       4 GLY6        0.0000 
     30 CA          9.1800    4.1100   10.6000 C.3       4 GLY6        0.0000 
     31 CA          9.9900    8.5000    7.5400 C.3       4 GLY6        0.0000 
     32 CA         10.4200    7.0900    7.8400 C.3       4 GLY6        0.0000 
     33 CA          9.1300    4.5500   12.6800 C.3       4 GLY6        0.0000 
     34 CA         10.1700    4.6300   11.6000 C.3       4 GLY6        0.0000 
     35 CA         10.6000    3.2300   11.9100 C.3       4 GLY6        0.0000 
     36 CA         10.7300    6.5500   12.3000 C.3       4 GLY6        0.0000 
     37 CA         11.1600    5.1500   12.6000 C.3       4 GLY6        0.0000 
     38 CA         11.3500    8.0400   10.9200 C.3       4 GLY6        0.0000 
     39 CA         10.2500    8.3900   14.0700 C.3       4 GLY6        0.0000 
     40 CA         10.8600    9.8800   12.6900 C.3       4 GLY6        0.0000 
     41 CA         11.2900    8.4800   13.0000 C.3       4 GLY6        0.0000 
     42 CA         11.9100    9.9700   11.6200 C.3       4 GLY6        0.0000 
     43 CA         12.7600    7.1600   12.2300 C.3       4 GLY6        0.0000 
     44 DU          7.9000    8.3300    9.6800 H         5 CUB7        0.0000 
     45 DU          8.3300    6.9200    9.9900 H         5 CUB7        0.0000 
     46 DU          8.9500    8.4100    8.6100 H         5 CUB7        0.0000 
     47 DU          9.3700    7.0100    8.9200 H         5 CUB7        0.0000 
     48 DU          9.7400    6.0400   11.3000 H         5 CUB7        0.0000 
     49 DU         10.3600    7.5300    9.9200 H         5 CUB7        0.0000 
     50 DU         10.9800    9.0100    8.5400 H         5 CUB7        0.0000 
     51 DU          9.8800    9.3600   11.6900 H         5 CUB7        0.0000 
     52 DU         10.3000    7.9600   11.9900 H         5 CUB7        0.0000 
     53 DU         10.4900   10.8500   10.3100 H         5 CUB7        0.0000 
     54 DU         10.9200    9.4500   10.6200 H         5 CUB7        0.0000 
@<TRIPOS>BOND
@<TRIPOS>SUBSTRUCTURE
     1 SER1        1 GROUP   
     2 ALA2        2 GROUP   
     3 PHE5        4 GROUP   
     4 GLY6       22 GROUP   
     5 CUB7       44 GROUP   
@<TRIPOS>SET

