#    Name: 6eky_1_1NP
#    Modification time : Fri May 22 19:28:15 2020

@<TRIPOS>MOLECULE
6eky_1_1NP
   11    12     1     0     0
SMALL
NO_CHARGES


@<TRIPOS>ATOM
      1 O1         12.7360    2.7520   11.8640 Du        1 1NP413      0.0000 
      2 C1         11.8280    3.0270   10.9300 C.ar      1 1NP413      0.0000 
      3 C8A        11.3320    4.3910   10.7650 C.ar      1 1NP413      0.0000 
      4 C8         11.7960    5.4030   11.5690 C.ar      1 1NP413      0.0000 
      5 C7         11.2990    6.6790   11.3840 C.ar      1 1NP413      0.0000 
      6 C2         11.3530    2.0310   10.1230 C.ar      1 1NP413      0.0000 
      7 C3         10.4230    2.3360    9.1720 C.ar      1 1NP413      0.0000 
      8 C4          9.9030    3.6010    8.9470 C.ar      1 1NP413      0.0000 
      9 C4A        10.3300    4.6540    9.7220 C.ar      1 1NP413      0.0000 
     10 C5          9.8580    5.9400    9.5650 C.ar      1 1NP413      0.0000 
     11 C6         10.3480    6.9390   10.3980 C.ar      1 1NP413      0.0000 
@<TRIPOS>BOND
     1    1    2 du   
     2    2    3 ar   
     3    2    6 ar   
     4    3    4 ar   
     5    3    9 ar   
     6    4    5 ar   
     7    5   11 ar   
     8    6    7 ar   
     9    7    8 ar   
    10    8    9 ar   
    11    9   10 ar   
    12   10   11 ar   
@<TRIPOS>SUBSTRUCTURE
     1 1NP413      1 GROUP   
@<TRIPOS>SET

