#    Name: 6eky_4_1NP_CAVITY_N1_6
#    Modification time : Fri May 22 19:28:27 2020

@<TRIPOS>MOLECULE
6eky_4_1NP_CAVITY_N1_6
   38     0     5     0     0
SMALL
NO_CHARGES


@<TRIPOS>ATOM
      1 OG         11.5400   10.9400    9.2400 O.3       1 SER1        0.0000 
      2 N           4.7700   14.8300    7.1500 N.am      2 ALA2        0.0000 
      3 CZ          5.2000   13.4300    7.4600 C.ar      3 PHE5        0.0000 
      4 CZ          6.6700   12.1100    6.6900 C.ar      3 PHE5        0.0000 
      5 CZ          7.1000   10.7000    7.0000 C.ar      3 PHE5        0.0000 
      6 CZ          5.5700   12.4600    9.8400 C.ar      3 PHE5        0.0000 
      7 CZ          6.6200   12.5400    8.7700 C.ar      3 PHE5        0.0000 
      8 CZ          7.0400   11.1400    9.0700 C.ar      3 PHE5        0.0000 
      9 CA          8.1500   10.7900    5.9200 C.3       4 GLY6        0.0000 
     10 CA          8.5700    9.3800    6.2300 C.3       4 GLY6        0.0000 
     11 CA          4.7200   15.2700    9.2300 C.3       4 GLY6        0.0000 
     12 CA          5.1400   13.8600    9.5300 C.3       4 GLY6        0.0000 
     13 CA          8.7100   12.7100    6.6200 C.3       4 GLY6        0.0000 
     14 CA          9.1300   11.3100    6.9300 C.3       4 GLY6        0.0000 
     15 CA          9.5600    9.9000    7.2300 C.3       4 GLY6        0.0000 
     16 CA         10.6100    9.9900    6.1600 C.3       4 GLY6        0.0000 
     17 CA          6.1300   14.3800   10.5400 C.3       4 GLY6        0.0000 
     18 CA         11.5900   10.5000    7.1600 C.3       4 GLY6        0.0000 
     19 CA          7.1200   14.9000   11.5400 C.3       4 GLY6        0.0000 
     20 CA         12.5800   11.0200    8.1600 C.3       4 GLY6        0.0000 
     21 CA          8.5300   14.0100   12.8500 C.3       4 GLY6        0.0000 
     22 CA         10.0100   12.6900   12.0800 C.3       4 GLY6        0.0000 
     23 DU          6.1900   13.9500    8.4600 H         5 CUB7        0.0000 
     24 DU          7.2300   14.0300    7.3900 H         5 CUB7        0.0000 
     25 DU          7.6600   12.6300    7.6900 H         5 CUB7        0.0000 
     26 DU          8.0900   11.2200    8.0000 H         5 CUB7        0.0000 
     27 DU          8.5200    9.8200    8.3000 H         5 CUB7        0.0000 
     28 DU          6.5600   12.9700   10.8400 H         5 CUB7        0.0000 
     29 DU          7.1800   14.4600    9.4600 H         5 CUB7        0.0000 
     30 DU          8.0300   11.6500   10.0700 H         5 CUB7        0.0000 
     31 DU         10.1200   11.8200    7.9300 H         5 CUB7        0.0000 
     32 DU         10.5500   10.4200    8.2300 H         5 CUB7        0.0000 
     33 DU          7.5500   13.4900   11.8400 H         5 CUB7        0.0000 
     34 DU          8.5900   13.5800   10.7700 H         5 CUB7        0.0000 
     35 DU          9.0200   12.1700   11.0800 H         5 CUB7        0.0000 
     36 DU         10.4900   10.8500   10.3100 H         5 CUB7        0.0000 
     37 DU         11.1100   12.3400    8.9300 H         5 CUB7        0.0000 
     38 DU         11.0500   12.7800   11.0100 H         5 CUB7        0.0000 
@<TRIPOS>BOND
@<TRIPOS>SUBSTRUCTURE
     1 SER1        1 GROUP   
     2 ALA2        2 GROUP   
     3 PHE5        3 GROUP   
     4 GLY6        9 GROUP   
     5 CUB7       23 GROUP   
@<TRIPOS>SET

