#    Name: 6eky_3_1NP
#    Modification time : Fri May 22 19:28:23 2020

@<TRIPOS>MOLECULE
6eky_3_1NP
   11    12     1     0     0
SMALL
NO_CHARGES


@<TRIPOS>ATOM
      1 O1          3.8930   14.7850    7.4940 Du        1 1NP415      0.0000 
      2 C1          4.5060   15.6570    8.3380 C.ar      1 1NP415      0.0000 
      3 C8A         5.5710   15.1260    9.2170 C.ar      1 1NP415      0.0000 
      4 C8          5.9410   13.7810    9.1850 C.ar      1 1NP415      0.0000 
      5 C7          6.9480   13.3330   10.0330 C.ar      1 1NP415      0.0000 
      6 C2          4.1690   17.0160    8.4110 C.ar      1 1NP415      0.0000 
      7 C3          4.8310   17.8730    9.3030 C.ar      1 1NP415      0.0000 
      8 C4          5.8450   17.4120   10.1560 C.ar      1 1NP415      0.0000 
      9 C4A         6.2420   16.0700   10.1490 C.ar      1 1NP415      0.0000 
     10 C5          7.2490   15.5700   10.9770 C.ar      1 1NP415      0.0000 
     11 C6          7.5930   14.2110   10.9130 C.ar      1 1NP415      0.0000 
@<TRIPOS>BOND
     1    1    2 du   
     2    2    3 ar   
     3    2    6 ar   
     4    3    4 ar   
     5    3    9 ar   
     6    4    5 ar   
     7    5   11 ar   
     8    6    7 ar   
     9    7    8 ar   
    10    8    9 ar   
    11    9   10 ar   
    12   10   11 ar   
@<TRIPOS>SUBSTRUCTURE
     1 1NP415      1 GROUP   
@<TRIPOS>SET

