#    Name: 6eky_2_1NP
#    Modification time : Fri May 22 19:28:19 2020

@<TRIPOS>MOLECULE
6eky_2_1NP
   11    12     1     0     0
SMALL
NO_CHARGES


@<TRIPOS>ATOM
      1 O1          8.6380   12.8030    7.1790 Du        1 1NP414      0.0000 
      2 C1          8.6230   11.4590    7.2670 C.ar      1 1NP414      0.0000 
      3 C8A         9.7330   10.7530    7.9340 C.ar      1 1NP414      0.0000 
      4 C8         10.8080   11.4350    8.4780 C.ar      1 1NP414      0.0000 
      5 C7         11.8210   10.7130    9.0940 C.ar      1 1NP414      0.0000 
      6 C2          7.5690   10.7410    6.7350 C.ar      1 1NP414      0.0000 
      7 C3          7.5470    9.3560    6.8270 C.ar      1 1NP414      0.0000 
      8 C4          8.5680    8.6330    7.4480 C.ar      1 1NP414      0.0000 
      9 C4A         9.6660    9.2820    8.0040 C.ar      1 1NP414      0.0000 
     10 C5         10.7010    8.6040    8.6300 C.ar      1 1NP414      0.0000 
     11 C6         11.7680    9.3210    9.1680 C.ar      1 1NP414      0.0000 
@<TRIPOS>BOND
     1    1    2 du   
     2    2    3 ar   
     3    2    6 ar   
     4    3    4 ar   
     5    3    9 ar   
     6    4    5 ar   
     7    5   11 ar   
     8    6    7 ar   
     9    7    8 ar   
    10    8    9 ar   
    11    9   10 ar   
    12   10   11 ar   
@<TRIPOS>SUBSTRUCTURE
     1 1NP414      1 GROUP   
@<TRIPOS>SET

