#    Name: 6a9a_1_DCM_CAVITY_N1_4
#    Modification time : Fri May 22 19:28:18 2020

@<TRIPOS>MOLECULE
6a9a_1_DCM_CAVITY_N1_4
   80     0     7     0     0
SMALL
NO_CHARGES


@<TRIPOS>ATOM
      1 OG         48.0900   14.1300  177.2900 O.3       1 SER1        0.0000 
      2 OG         47.4100   13.5400  178.4900 O.3       1 SER1        0.0000 
      3 OG         48.6200   15.2500  178.1400 O.3       1 SER1        0.0000 
      4 OG         47.9400   14.6500  179.3400 O.3       1 SER1        0.0000 
      5 OG         53.5100   14.5100  178.6800 O.3       1 SER1        0.0000 
      6 OG         52.2900   15.3200  178.3800 O.3       1 SER1        0.0000 
      7 OG         52.8300   13.9200  179.8800 O.3       1 SER1        0.0000 
      8 OG         50.3800   15.5500  179.2900 O.3       1 SER1        0.0000 
      9 OG         49.1500   16.3600  178.9900 O.3       1 SER1        0.0000 
     10 OG         50.9200   14.1400  180.7800 O.3       1 SER1        0.0000 
     11 OG         49.7000   14.9500  180.4900 O.3       1 SER1        0.0000 
     12 OG         53.5000   17.0300  178.0400 O.3       1 SER1        0.0000 
     13 OG         56.5000   14.0000  180.1200 O.3       1 SER1        0.0000 
     14 OG         55.2700   14.8100  179.8300 O.3       1 SER1        0.0000 
     15 OG         52.8200   16.4400  179.2400 O.3       1 SER1        0.0000 
     16 OG         57.0400   12.5900  181.6200 O.3       1 SER1        0.0000 
     17 OG         55.8200   13.4100  181.3200 O.3       1 SER1        0.0000 
     18 OG         54.5900   14.2200  181.0300 O.3       1 SER1        0.0000 
     19 OG         53.3600   15.0300  180.7300 O.3       1 SER1        0.0000 
     20 OG         52.1400   15.8500  180.4400 O.3       1 SER1        0.0000 
     21 OG         50.9100   16.6600  180.1400 O.3       1 SER1        0.0000 
     22 OG         52.6800   14.4400  181.9300 O.3       1 SER1        0.0000 
     23 OG         54.0300   18.1400  178.8900 O.3       1 SER1        0.0000 
     24 OG         53.3500   17.5500  180.0900 O.3       1 SER1        0.0000 
     25 OG         57.5700   13.7100  182.4700 O.3       1 SER1        0.0000 
     26 OG         56.3500   14.5200  182.1700 O.3       1 SER1        0.0000 
     27 OG         55.1200   15.3300  181.8800 O.3       1 SER1        0.0000 
     28 OG         51.4500   17.7700  180.9900 O.3       1 SER1        0.0000 
     29 OG         54.5700   19.2600  179.7400 O.3       1 SER1        0.0000 
     30 OG         53.3400   20.0700  179.4500 O.3       1 SER1        0.0000 
     31 OG         53.8900   18.6600  180.9400 O.3       1 SER1        0.0000 
     32 OG         52.6600   19.4800  180.6500 O.3       1 SER1        0.0000 
     33 O          56.6400   13.4800  178.0700 O.2       2 ALA2        0.0000 
     34 N          57.1900   12.0700  179.5700 N.am      2 ALA2        0.0000 
     35 N          55.9600   12.8900  179.2700 N.am      2 ALA2        0.0000 
     36 N          54.7400   13.7000  178.9800 N.am      2 ALA2        0.0000 
     37 N          58.4000   13.7800  179.2200 N.am      2 ALA2        0.0000 
     38 O          55.9500   15.4000  178.6300 O.2       2 ALA2        0.0000 
     39 N          57.7200   13.1900  180.4200 N.am      2 ALA2        0.0000 
     40 O          59.4800   13.4900  181.5700 O.2       2 ALA2        0.0000 
     41 OD1        48.4700   15.7700  180.1900 O.co2     3 ASP3        0.0000 
     42 OD1        49.0200   14.3600  181.6800 O.co2     3 ASP3        0.0000 
     43 OD1        51.4600   15.2600  181.6300 O.co2     3 ASP3        0.0000 
     44 OD1        50.2300   16.0700  181.3400 O.co2     3 ASP3        0.0000 
     45 OD1        51.9900   16.3700  182.4900 O.co2     3 ASP3        0.0000 
     46 OD1        51.9800   18.8900  181.8500 O.co2     3 ASP3        0.0000 
     47 NZ         47.4000   16.0600  177.8400 N.4       4 LYS4        0.0000 
     48 CZ         58.7900   15.4100  182.1200 C.ar      5 PHE5        0.0000 
     49 CZ         58.1100   14.8200  183.3200 C.ar      5 PHE5        0.0000 
     50 CA         57.1800   14.5900  178.9300 C.3       6 GLY6        0.0000 
     51 CA         54.7300   16.2200  178.3300 C.3       6 GLY6        0.0000 
     52 CA         59.6200   15.4800  178.8700 C.3       6 GLY6        0.0000 
     53 CA         58.3900   16.3000  178.5800 C.3       6 GLY6        0.0000 
     54 CA         57.1700   17.1100  178.2800 C.3       6 GLY6        0.0000 
     55 CA         58.9400   14.8900  180.0700 C.3       6 GLY6        0.0000 
     56 CA         57.7100   15.7000  179.7800 C.3       6 GLY6        0.0000 
     57 CA         55.2600   17.3300  179.1900 C.3       6 GLY6        0.0000 
     58 CA         56.8700   18.1500  182.3900 C.3       6 GLY6        0.0000 
     59 CA         55.6400   18.9600  182.0900 C.3       6 GLY6        0.0000 
     60 CA         54.4200   19.7800  181.7900 C.3       6 GLY6        0.0000 
     61 CA         54.9600   18.3700  183.2900 C.3       6 GLY6        0.0000 
     62 CA         53.7400   19.1900  182.9900 C.3       6 GLY6        0.0000 
     63 DU         46.1800   14.3500  178.1900 H         7 CUB7        0.0000 
     64 DU         54.0500   15.6200  179.5300 H         7 CUB7        0.0000 
     65 DU         56.4900   16.5200  179.4800 H         7 CUB7        0.0000 
     66 DU         58.2600   14.3000  181.2700 H         7 CUB7        0.0000 
     67 DU         57.0300   15.1100  180.9800 H         7 CUB7        0.0000 
     68 DU         55.8000   15.9300  180.6800 H         7 CUB7        0.0000 
     69 DU         54.5800   16.7400  180.3900 H         7 CUB7        0.0000 
     70 DU         53.9000   16.1500  181.5800 H         7 CUB7        0.0000 
     71 DU         52.6700   16.9600  181.2900 H         7 CUB7        0.0000 
     72 DU         58.2400   16.8200  180.6300 H         7 CUB7        0.0000 
     73 DU         57.0200   17.6300  180.3300 H         7 CUB7        0.0000 
     74 DU         55.7900   18.4400  180.0400 H         7 CUB7        0.0000 
     75 DU         57.5600   16.2300  181.8300 H         7 CUB7        0.0000 
     76 DU         56.3400   17.0400  181.5300 H         7 CUB7        0.0000 
     77 DU         55.1100   17.8500  181.2400 H         7 CUB7        0.0000 
     78 DU         54.4300   17.2600  182.4400 H         7 CUB7        0.0000 
     79 DU         53.2000   18.0700  182.1400 H         7 CUB7        0.0000 
     80 DU         56.1900   17.5600  183.5800 H         7 CUB7        0.0000 
@<TRIPOS>BOND
@<TRIPOS>SUBSTRUCTURE
     1 SER1        1 GROUP   
     2 ALA2       33 GROUP   
     3 ASP3       41 GROUP   
     4 LYS4       47 GROUP   
     5 PHE5       48 GROUP   
     6 GLY6       50 GROUP   
     7 CUB7       63 GROUP   
@<TRIPOS>SET

