#    Name: 6a9a_1_DCM
#    Modification time : Fri May 22 19:28:17 2020

@<TRIPOS>MOLECULE
6a9a_1_DCM
   20    21     1     0     0
SMALL
NO_CHARGES


@<TRIPOS>ATOM
      1 N1         55.6320   14.6940  179.7910 N.am      1 DCM302      0.0000 
      2 C2         56.5610   14.1800  178.7820 C.2       1 DCM302      0.0000 
      3 N3         57.5020   13.2700  179.1710 N.2       1 DCM302      0.0000 
      4 C4         57.5040   12.8850  180.4430 C.2       1 DCM302      0.0000 
      5 C5         56.6210   13.3590  181.4730 C.2       1 DCM302      0.0000 
      6 C6         55.6780   14.2740  181.0850 C.2       1 DCM302      0.0000 
      7 O2         56.4960   14.5790  177.6370 O.2       1 DCM302      0.0000 
      8 N4         58.4640   11.9660  180.7430 N.pl3     1 DCM302      0.0000 
      9 C1'        54.6440   15.6770  179.3520 C.3       1 DCM302      0.0000 
     10 C2'        53.5120   14.9240  178.6370 C.3       1 DCM302      0.0000 
     11 C3'        52.4200   15.9470  178.8930 C.3       1 DCM302      0.0000 
     12 C4'        52.6690   16.4110  180.3330 C.3       1 DCM302      0.0000 
     13 O4'        54.1010   16.2610  180.4970 O.3       1 DCM302      0.0000 
     14 O3'        52.5910   17.0400  178.0800 O.3       1 DCM302      0.0000 
     15 C5'        51.8550   15.5610  181.3480 C.3       1 DCM302      0.0000 
     16 O5'        50.6010   16.0470  181.3100 O.3       1 DCM302      0.0000 
     17 P          49.3280   14.8790  181.5660 P.3       1 DCM302      0.0000 
     18 O1P        49.4490   13.9770  180.3520 O.co2     1 DCM302      0.0000 
     19 O2P        49.6250   14.2430  182.9140 O.co2     1 DCM302      0.0000 
     20 O3P        48.1640   15.8440  181.5200 O.co2     1 DCM302      0.0000 
@<TRIPOS>BOND
     1    1    2 am   
     2    1    6 1    
     3    1    9 1    
     4    2    3 1    
     5    2    7 2    
     6    3    4 2    
     7    4    5 1    
     8    4    8 1    
     9    5    6 2    
    10    9   10 1    
    11    9   13 1    
    12   10   11 1    
    13   11   12 1    
    14   11   14 1    
    15   12   13 1    
    16   12   15 1    
    17   15   16 1    
    18   16   17 1    
    19   17   18 ar   
    20   17   19 ar   
    21   17   20 ar   
@<TRIPOS>SUBSTRUCTURE
     1 DCM302      1 GROUP   
@<TRIPOS>SET

