#    Name: 6a9a_2_THG
#    Modification time : Fri May 22 19:28:21 2020

@<TRIPOS>MOLECULE
6a9a_2_THG
   32    34     1     0     0
SMALL
NO_CHARGES


@<TRIPOS>ATOM
      1 N3         53.6720   19.9010  180.7600 N.am      1 THG303      0.0000 
      2 C2         53.4390   19.4270  182.0510 C.2       1 THG303      0.0000 
      3 N1         54.2760   18.6430  182.7650 N.2       1 THG303      0.0000 
      4 C8A        55.4700   18.3070  182.1140 C.2       1 THG303      0.0000 
      5 C4A        55.7840   18.7370  180.8270 C.2       1 THG303      0.0000 
      6 C4         54.8690   19.5700  180.0810 C.2       1 THG303      0.0000 
      7 N8         56.3400   17.5000  182.8410 N.pl3     1 THG303      0.0000 
      8 C7         57.6710   17.2590  182.2750 C.3       1 THG303      0.0000 
      9 C6         57.6070   17.1550  180.7260 C.3       1 THG303      0.0000 
     10 N5         56.9900   18.3620  180.2190 N.3       1 THG303      0.0000 
     11 C9         59.0410   16.8840  180.1690 C.3       1 THG303      0.0000 
     12 N10        60.0490   17.6120  180.9330 N.pl3     1 THG303      0.0000 
     13 C4'        60.5910   18.8370  180.4690 C.ar      1 THG303      0.0000 
     14 C3'        59.8680   19.6460  179.5530 C.ar      1 THG303      0.0000 
     15 C2'        60.4290   20.8620  179.1220 C.ar      1 THG303      0.0000 
     16 C1'        61.6950   21.2650  179.5810 C.ar      1 THG303      0.0000 
     17 C6'        62.3930   20.4570  180.4830 C.ar      1 THG303      0.0000 
     18 C5'        61.8540   19.2510  180.9300 C.ar      1 THG303      0.0000 
     19 C11        62.2820   22.5830  179.0940 C.2       1 THG303      0.0000 
     20 N          63.6020   22.5400  178.7150 N.am      1 THG303      0.0000 
     21 CA         64.3500   23.7340  178.2320 C.3       1 THG303      0.0000 
     22 C          65.1330   23.4210  176.9410 C.2       1 THG303      0.0000 
     23 OX2        65.6800   22.2800  176.8690 O.co2     1 THG303      0.0000 
     24 OX1        65.1800   24.3100  176.0760 O.co2     1 THG303      0.0000 
     25 CB         65.3180   24.2060  179.3110 C.3       1 THG303      0.0000 
     26 CG         64.5850   25.0130  180.3350 C.3       1 THG303      0.0000 
     27 CD         65.5720   25.7400  181.2300 C.2       1 THG303      0.0000 
     28 OE1        66.7190   25.2780  181.4060 O.co2     1 THG303      0.0000 
     29 OE2        65.1470   26.8130  181.7570 O.co2     1 THG303      0.0000 
     30 O11        61.5910   23.6210  179.0700 O.2       1 THG303      0.0000 
     31 O4         55.0110   20.0220  178.9460 O.2       1 THG303      0.0000 
     32 N2         52.2400   19.7910  182.6480 N.pl3     1 THG303      0.0000 
@<TRIPOS>BOND
     1    1    2 1    
     2    1    6 am   
     3    2    3 2    
     4    2   32 1    
     5    3    4 1    
     6    4    5 2    
     7    4    7 1    
     8    5    6 1    
     9    5   10 1    
    10    6   31 2    
    11    7    8 1    
    12    8    9 1    
    13    9   10 1    
    14    9   11 1    
    15   11   12 1    
    16   12   13 1    
    17   13   14 ar   
    18   13   18 ar   
    19   14   15 ar   
    20   15   16 ar   
    21   16   17 ar   
    22   16   19 1    
    23   17   18 ar   
    24   19   20 am   
    25   19   30 2    
    26   20   21 1    
    27   21   22 1    
    28   21   25 1    
    29   22   23 ar   
    30   22   24 ar   
    31   25   26 1    
    32   26   27 1    
    33   27   28 ar   
    34   27   29 ar   
@<TRIPOS>SUBSTRUCTURE
     1 THG303      1 GROUP   
@<TRIPOS>SET

