#    Name: 6p99_1_1RG
#    Modification time : Fri May 22 19:29:06 2020

@<TRIPOS>MOLECULE
6p99_1_1RG
   33    35     1     0     0
SMALL
NO_CHARGES


@<TRIPOS>ATOM
      1 C          11.8830  -17.8380    1.0120 C.2       1 1RG501      0.0000 
      2 N           9.5320  -17.3850    0.8320 N.4       1 1RG501      0.0000 
      3 O          11.8850  -17.5740   -0.1860 O.2       1 1RG501      0.0000 
      4 CA         10.6060  -17.7180    1.7490 C.3       1 1RG501      0.0000 
      5 CB         10.5520  -16.6380    2.8250 C.3       1 1RG501      0.0000 
      6 CD          8.7150  -16.3140    1.3750 C.3       1 1RG501      0.0000 
      7 CG          9.0550  -16.4260    2.8510 C.3       1 1RG501      0.0000 
      8 CAA         3.0610  -20.4500    2.0650 C.2       1 1RG501      0.0000 
      9 CAB         3.5420  -19.3430    3.0030 C.3       1 1RG501      0.0000 
     10 OAC         3.6280  -21.5270    1.8420 O.2       1 1RG501      0.0000 
     11 CAD         4.5740  -18.4270    2.3300 C.3       1 1RG501      0.0000 
     12 CAE         2.3130  -18.4790    3.3080 C.3       1 1RG501      0.0000 
     13 CAF         1.0720  -19.3500    3.4600 C.3       1 1RG501      0.0000 
     14 OAG         2.4660  -17.6400    4.4720 O.3       1 1RG501      0.0000 
     15 CAH         5.6330  -17.7860    3.2560 C.3       1 1RG501      0.0000 
     16 CAI         6.9230  -18.3290    2.6930 C.2       1 1RG501      0.0000 
     17 NAJ         5.3670  -19.1390    1.3350 N.4       1 1RG501      0.0000 
     18 SAK         8.3840  -17.9600    3.4370 S.3       1 1RG501      0.0000 
     19 CAL         6.6760  -19.0980    1.5990 C.2       1 1RG501      0.0000 
     20 CAM         7.5900  -19.8510    0.7210 C.2       1 1RG501      0.0000 
     21 CAS         5.5210  -18.0880    4.7510 C.3       1 1RG501      0.0000 
     22 OAT         8.8080  -19.5760    0.6250 O.co2     1 1RG501      0.0000 
     23 OAU         7.0990  -20.7710    0.0330 O.co2     1 1RG501      0.0000 
     24 NAX        12.9020  -18.2710    1.7630 N.am      1 1RG501      0.0000 
     25 CAY        14.2260  -18.5120    1.3430 C.ar      1 1RG501      0.0000 
     26 CAZ        15.1230  -18.9860    2.3000 C.ar      1 1RG501      0.0000 
     27 CBA        16.4470  -19.2540    1.9740 C.ar      1 1RG501      0.0000 
     28 CBB        16.8800  -19.0610    0.6600 C.ar      1 1RG501      0.0000 
     29 CBC        15.9900  -18.5970   -0.3140 C.ar      1 1RG501      0.0000 
     30 CBD        14.6620  -18.3260    0.0260 C.ar      1 1RG501      0.0000 
     31 CBE        17.3810  -19.7560    3.0480 C.2       1 1RG501      0.0000 
     32 OBF        18.6040  -19.9170    2.7980 O.co2     1 1RG501      0.0000 
     33 OBG        16.9010  -20.0250    4.1780 O.co2     1 1RG501      0.0000 
@<TRIPOS>BOND
     1    1    3 2    
     2    1    4 1    
     3    1   24 am   
     4    2    4 1    
     5    2    6 1    
     6    4    5 1    
     7    5    7 1    
     8    6    7 1    
     9    7   18 1    
    10    8    9 1    
    11    8   10 2    
    12    9   11 1    
    13    9   12 1    
    14   11   15 1    
    15   11   17 1    
    16   12   13 1    
    17   12   14 1    
    18   15   16 1    
    19   15   21 1    
    20   16   18 1    
    21   16   19 2    
    22   17   19 1    
    23   19   20 1    
    24   20   22 ar   
    25   20   23 ar   
    26   24   25 1    
    27   25   26 ar   
    28   25   30 ar   
    29   26   27 ar   
    30   27   28 ar   
    31   27   31 1    
    32   28   29 ar   
    33   29   30 ar   
    34   31   32 ar   
    35   31   33 ar   
@<TRIPOS>SUBSTRUCTURE
     1 1RG501      1 GROUP   
@<TRIPOS>SET

