#    Name: 6mak_1_ACO
#    Modification time : Fri May 22 19:28:18 2020

@<TRIPOS>MOLECULE
6mak_1_ACO
   51    53     1     0     1
SMALL
NO_CHARGES


@<TRIPOS>ATOM
      1 N1A       -18.1590    2.5600   -4.6030 N.ar      1 ACO702      0.0000 
      2 C2A       -17.7000    2.4180   -3.3380 C.ar      1 ACO702      0.0000 
      3 N3A       -18.1760    1.4750   -2.4940 N.ar      1 ACO702      0.0000 
      4 C4A       -19.1590    0.6080   -2.8730 C.ar      1 ACO702      0.0000 
      5 C5A       -19.7020    0.7010   -4.2410 C.ar      1 ACO702      0.0000 
      6 C6A       -19.1320    1.7690   -5.1150 C.ar      1 ACO702      0.0000 
      7 N6A       -19.5710    1.9420   -6.3800 N.pl3     1 ACO702      0.0000 
      8 N7A       -20.6380   -0.2710   -4.3460 N.2       1 ACO702      0.0000 
      9 C8A       -20.7060   -0.9280   -3.1610 C.2       1 ACO702      0.0000 
     10 N9A       -19.8260   -0.3960   -2.2820 N.pl3     1 ACO702      0.0000 
     11 C1B       -19.5680   -0.8570   -0.8900 C.3       1 ACO702      0.0000 
     12 C2B       -20.6200   -0.3910    0.1020 C.3       1 ACO702      0.0000 
     13 O2B       -20.3130    0.9080    0.5880 O.3       1 ACO702      0.0000 
     14 C3B       -20.5220   -1.4650    1.1770 C.3       1 ACO702      0.0000 
     15 O3B       -19.3610   -1.3040    2.0050 O.3       1 ACO702      0.0000 
     16 P3B       -19.2250   -0.4120    3.3650 P.3       1 ACO702      0.0000 
     17 O7A       -20.3510   -0.8160    4.2820 O.co2     1 ACO702      0.0000 
     18 O8A       -17.8430   -0.7970    3.8330 O.co2     1 ACO702      0.0000 
     19 O9A       -19.3440    1.0230    2.9000 O.co2     1 ACO702      0.0000 
     20 C4B       -20.2990   -2.7260    0.3490 C.3       1 ACO702      0.0000 
     21 O4B       -19.5530   -2.2880   -0.8040 O.3       1 ACO702      0.0000 
     22 C5B       -21.5440   -3.4860   -0.1430 C.3       1 ACO702      0.0000 
     23 O5B       -22.7310   -2.6760   -0.2110 O.3       1 ACO702      0.0000 
     24 P1A       -24.0890   -3.4700   -0.5090 P.3       1 ACO702      0.0000 
     25 O1A       -24.3240   -4.5370    0.4960 O.co2     1 ACO702      0.0000 
     26 O2A       -25.2230   -2.5110   -0.7620 O.co2     1 ACO702      0.0000 
     27 O3A       -23.5890   -4.1010   -1.9100 O.3       1 ACO702      0.0000 
     28 P2A       -24.2560   -3.9000   -3.3660 P.3       1 ACO702      0.0000 
     29 O4A       -25.7060   -4.2520   -3.2790 O.co2     1 ACO702      0.0000 
     30 O5A       -23.9180   -2.5580   -3.9520 O.co2     1 ACO702      0.0000 
     31 O6A       -23.5530   -5.0830   -4.2050 O.3       1 ACO702      0.0000 
     32 CBP       -21.9050   -6.0540   -5.6140 C.3       1 ACO702      0.0000 
     33 CCP       -22.1810   -5.4060   -4.2620 C.3       1 ACO702      0.0000 
     34 CDP       -22.7280   -7.3210   -5.6990 C.3       1 ACO702      0.0000 
     35 CEP       -20.4130   -6.4040   -5.6860 C.3       1 ACO702      0.0000 
     36 CAP       -22.2600   -5.0350   -6.7200 C.3       1 ACO702      0.0000 
     37 OAP       -21.2300   -4.0430   -6.7180 O.3       1 ACO702      0.0000 
     38 C9P       -22.3070   -5.5400   -8.1370 C.2       1 ACO702      0.0000 
     39 O9P       -23.2950   -6.0950   -8.5540 O.2       1 ACO702      0.0000 
     40 N8P       -21.2570   -5.2950   -8.9190 N.am      1 ACO702      0.0000 
     41 C7P       -21.2070   -5.5760  -10.3450 C.3       1 ACO702      0.0000 
     42 C6P       -20.8290   -7.0170  -10.6440 C.3       1 ACO702      0.0000 
     43 C5P       -19.6520   -7.4160   -9.7740 C.2       1 ACO702      0.0000 
     44 O5P       -18.6440   -6.7210   -9.7910 O.2       1 ACO702      0.0000 
     45 N4P       -19.7700   -8.5470   -9.0290 N.am      1 ACO702      0.0000 
     46 C3P       -18.6820   -9.1040   -8.2490 C.3       1 ACO702      0.0000 
     47 C2P       -17.8240   -9.9710   -9.1730 C.3       1 ACO702      0.0000 
     48 S1P       -16.6430  -10.9680   -8.2850 S.3       1 ACO702      0.0000 
     49 C         -17.4490  -12.4420   -8.1860 C.2       1 ACO702      0.0000 
     50 O         -18.6110  -12.5210   -8.5430 O.2       1 ACO702      0.0000 
     51 CH3       -16.7490  -13.6550   -7.6680 C.3       1 ACO702      0.0000 
@<TRIPOS>BOND
     1    1    2 ar   
     2    1    6 ar   
     3    2    3 ar   
     4    3    4 ar   
     5    4    5 ar   
     6    4   10 1    
     7    5    6 ar   
     8    5    8 1    
     9    6    7 1    
    10    8    9 2    
    11    9   10 1    
    12   10   11 1    
    13   11   12 1    
    14   11   21 1    
    15   12   13 1    
    16   12   14 1    
    17   14   15 1    
    18   14   20 1    
    19   15   16 1    
    20   16   17 ar   
    21   16   18 ar   
    22   16   19 ar   
    23   20   21 1    
    24   20   22 1    
    25   22   23 1    
    26   23   24 1    
    27   24   25 ar   
    28   24   26 ar   
    29   24   27 1    
    30   27   28 1    
    31   28   29 ar   
    32   28   30 ar   
    33   28   31 1    
    34   31   33 1    
    35   32   33 1    
    36   32   34 1    
    37   32   35 1    
    38   32   36 1    
    39   36   37 1    
    40   36   38 1    
    41   38   39 2    
    42   38   40 am   
    43   40   41 1    
    44   41   42 1    
    45   42   43 1    
    46   43   44 2    
    47   43   45 am   
    48   45   46 1    
    49   46   47 1    
    50   47   48 1    
    51   48   49 1    
    52   49   50 2    
    53   49   51 1    
@<TRIPOS>SUBSTRUCTURE
     1 ACO702      1 GROUP   
@<TRIPOS>SET
ATOM$ORANGE STATIC     ATOMS   COLORGROUP SYSTEM 
46 2 2 4 4 5 5 6 6 9 9 11 11 12 12 14 14 20 \
20 22 22 32 32 33 33 34 34 35 35 36 36 38 38 41 41 42 \
42 43 43 46 46 47 47 49 49 51 51 

