#    Name: 5v4p_4_FMN
#    Modification time : Fri May 22 19:14:50 2020

@<TRIPOS>MOLECULE
5v4p_4_FMN
   31    33     1     0     1
SMALL
NO_CHARGES


@<TRIPOS>ATOM
      1 N1         13.5050   56.3010   69.9270 N.2       1 FMN401      0.0000 
      2 C2         12.7940   55.2620   70.4940 C.2       1 FMN401      0.0000 
      3 O2         11.7340   54.8550   69.9340 O.2       1 FMN401      0.0000 
      4 N3         13.2630   54.6920   71.6760 N.am      1 FMN401      0.0000 
      5 C4         14.3880   55.1540   72.3120 C.2       1 FMN401      0.0000 
      6 O4         14.7610   54.6180   73.3830 O.2       1 FMN401      0.0000 
      7 C4A        15.1010   56.1950   71.6940 C.2       1 FMN401      0.0000 
      8 N5         16.2620   56.6790   72.2640 N.2       1 FMN401      0.0000 
      9 C5A        16.9750   57.7320   71.7010 C.ar      1 FMN401      0.0000 
     10 C6         18.1170   58.1920   72.3400 C.ar      1 FMN401      0.0000 
     11 C7         18.8680   59.2310   71.7950 C.ar      1 FMN401      0.0000 
     12 C7M        20.0960   59.6960   72.5070 C.3       1 FMN401      0.0000 
     13 C8         18.4340   59.8280   70.6270 C.ar      1 FMN401      0.0000 
     14 C8M        19.2090   60.9600   70.0000 C.3       1 FMN401      0.0000 
     15 C9         17.2740   59.3720   69.9820 C.ar      1 FMN401      0.0000 
     16 C9A        16.5150   58.3170   70.5220 C.ar      1 FMN401      0.0000 
     17 N10        15.3290   57.8320   69.9320 N.pl3     1 FMN401      0.0000 
     18 C10        14.6500   56.7690   70.5060 C.2       1 FMN401      0.0000 
     19 C1'        14.7890   58.4500   68.6950 C.3       1 FMN401      0.0000 
     20 C2'        14.0470   59.7130   69.1430 C.3       1 FMN401      0.0000 
     21 O2'        12.9020   59.3630   69.9090 O.3       1 FMN401      0.0000 
     22 C3'        13.5430   60.5380   67.9590 C.3       1 FMN401      0.0000 
     23 O3'        12.7050   59.7220   67.1610 O.3       1 FMN401      0.0000 
     24 C4'        14.7000   61.0770   67.1000 C.3       1 FMN401      0.0000 
     25 O4'        15.7860   61.4610   67.9300 O.3       1 FMN401      0.0000 
     26 C5'        14.2710   62.2400   66.1960 C.3       1 FMN401      0.0000 
     27 O5'        13.6810   63.3040   66.9290 O.3       1 FMN401      0.0000 
     28 P          14.5470   64.6440   67.2500 P.3       1 FMN401      0.0000 
     29 O1P        15.1200   65.1860   65.9530 O.co2     1 FMN401      0.0000 
     30 O2P        13.4920   65.5700   67.8460 O.co2     1 FMN401      0.0000 
     31 O3P        15.6760   64.2410   68.2100 O.co2     1 FMN401      0.0000 
@<TRIPOS>BOND
     1    1    2 1    
     2    1   18 2    
     3    2    3 2    
     4    2    4 am   
     5    4    5 am   
     6    5    6 2    
     7    5    7 1    
     8    7    8 2    
     9    7   18 1    
    10    8    9 1    
    11    9   10 ar   
    12    9   16 ar   
    13   10   11 ar   
    14   11   12 1    
    15   11   13 ar   
    16   13   14 1    
    17   13   15 ar   
    18   15   16 ar   
    19   16   17 1    
    20   17   18 1    
    21   17   19 1    
    22   19   20 1    
    23   20   21 1    
    24   20   22 1    
    25   22   23 1    
    26   22   24 1    
    27   24   25 1    
    28   24   26 1    
    29   26   27 1    
    30   27   28 1    
    31   28   29 ar   
    32   28   30 ar   
    33   28   31 ar   
@<TRIPOS>SUBSTRUCTURE
     1 FMN401      1 GROUP   
@<TRIPOS>SET
ATOM$ORANGE STATIC     ATOMS   COLORGROUP SYSTEM 
34 2 2 5 5 7 7 9 9 10 10 11 11 12 12 13 13 14 \
14 15 15 16 16 18 18 19 19 20 20 22 22 24 24 26 26 

