#    Name: 5v4p_3_FMN
#    Modification time : Fri May 22 19:14:45 2020

@<TRIPOS>MOLECULE
5v4p_3_FMN
   31    33     1     0     1
SMALL
NO_CHARGES


@<TRIPOS>ATOM
      1 N1         13.4370    3.0620   37.8250 N.2       1 FMN401      0.0000 
      2 C2         12.7540    2.0300   38.4090 C.2       1 FMN401      0.0000 
      3 O2         11.7350    1.6050   37.8840 O.2       1 FMN401      0.0000 
      4 N3         13.2260    1.4570   39.5760 N.am      1 FMN401      0.0000 
      5 C4         14.3380    1.9040   40.2130 C.2       1 FMN401      0.0000 
      6 O4         14.6520    1.3480   41.2880 O.2       1 FMN401      0.0000 
      7 C4A        15.0570    2.9400   39.6040 C.2       1 FMN401      0.0000 
      8 N5         16.2110    3.4150   40.1660 N.2       1 FMN401      0.0000 
      9 C5A        16.9120    4.4710   39.6170 C.ar      1 FMN401      0.0000 
     10 C6         18.1070    4.9290   40.2110 C.ar      1 FMN401      0.0000 
     11 C7         18.8160    5.9730   39.6430 C.ar      1 FMN401      0.0000 
     12 C7M        20.0850    6.4550   40.3390 C.3       1 FMN401      0.0000 
     13 C8         18.3500    6.5400   38.4430 C.ar      1 FMN401      0.0000 
     14 C8M        19.0330    7.6630   37.7220 C.3       1 FMN401      0.0000 
     15 C9         17.1850    6.0690   37.8520 C.ar      1 FMN401      0.0000 
     16 C9A        16.4560    5.0340   38.4310 C.ar      1 FMN401      0.0000 
     17 N10        15.3070    4.5480   37.8200 N.pl3     1 FMN401      0.0000 
     18 C10        14.6010    3.5210   38.4220 C.2       1 FMN401      0.0000 
     19 C1'        14.7650    5.2060   36.5640 C.3       1 FMN401      0.0000 
     20 C2'        13.9500    6.4620   37.0110 C.3       1 FMN401      0.0000 
     21 O2'        12.7850    6.1520   37.7990 O.3       1 FMN401      0.0000 
     22 C3'        13.5200    7.3310   35.8230 C.3       1 FMN401      0.0000 
     23 O3'        12.6240    6.5900   35.0160 O.3       1 FMN401      0.0000 
     24 C4'        14.7060    7.8300   34.9620 C.3       1 FMN401      0.0000 
     25 O4'        15.7740    8.2260   35.8380 O.3       1 FMN401      0.0000 
     26 C5'        14.3770    8.9940   34.0260 C.3       1 FMN401      0.0000 
     27 O5'        13.7520   10.0140   34.7490 O.3       1 FMN401      0.0000 
     28 P          14.5150   11.3930   35.0540 P.3       1 FMN401      0.0000 
     29 O1P        13.5890   12.3560   35.7810 O.co2     1 FMN401      0.0000 
     30 O2P        15.6140   11.0010   36.0630 O.co2     1 FMN401      0.0000 
     31 O3P        15.1060   12.0680   33.8650 O.co2     1 FMN401      0.0000 
@<TRIPOS>BOND
     1    1    2 1    
     2    1   18 2    
     3    2    3 2    
     4    2    4 am   
     5    4    5 am   
     6    5    6 2    
     7    5    7 1    
     8    7    8 2    
     9    7   18 1    
    10    8    9 1    
    11    9   10 ar   
    12    9   16 ar   
    13   10   11 ar   
    14   11   12 1    
    15   11   13 ar   
    16   13   14 1    
    17   13   15 ar   
    18   15   16 ar   
    19   16   17 1    
    20   17   18 1    
    21   17   19 1    
    22   19   20 1    
    23   20   21 1    
    24   20   22 1    
    25   22   23 1    
    26   22   24 1    
    27   24   25 1    
    28   24   26 1    
    29   26   27 1    
    30   27   28 1    
    31   28   29 ar   
    32   28   30 ar   
    33   28   31 ar   
@<TRIPOS>SUBSTRUCTURE
     1 FMN401      1 GROUP   
@<TRIPOS>SET
ATOM$ORANGE STATIC     ATOMS   COLORGROUP SYSTEM 
34 2 2 5 5 7 7 9 9 10 10 11 11 12 12 13 13 14 \
14 15 15 16 16 18 18 19 19 20 20 22 22 24 24 26 26 

