#    Name: 6aax_1_SAM
#    Modification time : Fri May 22 19:23:49 2020

@<TRIPOS>MOLECULE
6aax_1_SAM
   27    29     1     0     0
SMALL
NO_CHARGES


@<TRIPOS>ATOM
      1 N          -3.7950   40.5000  -29.7820 N.4       1 SAM401      0.0000 
      2 CA         -3.5480   39.6280  -28.6450 C.3       1 SAM401      0.0000 
      3 C          -3.2400   38.2180  -29.1190 C.2       1 SAM401      0.0000 
      4 O          -2.9120   37.3410  -28.3190 O.co2     1 SAM401      0.0000 
      5 OXT        -3.3090   37.9310  -30.3110 O.co2     1 SAM401      0.0000 
      6 CB         -4.7390   39.6140  -27.6990 C.3       1 SAM401      0.0000 
      7 CG         -6.0700   39.3330  -28.3880 C.3       1 SAM401      0.0000 
      8 SD         -7.3680   40.3790  -27.6930 S.3       1 SAM401      0.0000 
      9 CE         -8.8890   39.5230  -28.1880 C.3       1 SAM401      0.0000 
     10 C5'        -7.2370   41.7860  -28.8340 C.3       1 SAM401      0.0000 
     11 C4'        -6.2040   42.9020  -28.6090 C.3       1 SAM401      0.0000 
     12 O4'        -6.4320   43.9310  -29.5600 O.3       1 SAM401      0.0000 
     13 C3'        -6.2880   43.5850  -27.2550 C.3       1 SAM401      0.0000 
     14 O3'        -4.9900   43.7590  -26.7510 O.3       1 SAM401      0.0000 
     15 C2'        -6.8220   44.9780  -27.4770 C.3       1 SAM401      0.0000 
     16 O2'        -6.0610   45.8550  -26.6870 O.3       1 SAM401      0.0000 
     17 C1'        -6.5280   45.2160  -28.9440 C.3       1 SAM401      0.0000 
     18 N9         -7.4880   46.1320  -29.6220 N.pl3     1 SAM401      0.0000 
     19 C8         -8.8530   46.0300  -29.7250 C.2       1 SAM401      0.0000 
     20 N7         -9.3270   47.0800  -30.4360 N.2       1 SAM401      0.0000 
     21 C5         -8.2790   47.8550  -30.7960 C.ar      1 SAM401      0.0000 
     22 C6         -8.1870   49.0400  -31.5310 C.ar      1 SAM401      0.0000 
     23 N6         -9.2620   49.6380  -32.0390 N.pl3     1 SAM401      0.0000 
     24 N1         -6.9460   49.6000  -31.7290 N.ar      1 SAM401      0.0000 
     25 C2         -5.8200   48.9870  -31.2020 C.ar      1 SAM401      0.0000 
     26 N3         -5.9090   47.8170  -30.4810 N.ar      1 SAM401      0.0000 
     27 C4         -7.1240   47.2660  -30.2860 C.ar      1 SAM401      0.0000 
@<TRIPOS>BOND
     1    1    2 1    
     2    2    3 1    
     3    2    6 1    
     4    3    4 ar   
     5    3    5 ar   
     6    6    7 1    
     7    7    8 1    
     8    8    9 1    
     9    8   10 1    
    10   10   11 1    
    11   11   12 1    
    12   11   13 1    
    13   12   17 1    
    14   13   14 1    
    15   13   15 1    
    16   15   16 1    
    17   15   17 1    
    18   17   18 1    
    19   18   19 1    
    20   18   27 1    
    21   19   20 2    
    22   20   21 1    
    23   21   22 ar   
    24   21   27 ar   
    25   22   23 1    
    26   22   24 ar   
    27   24   25 ar   
    28   25   26 ar   
    29   26   27 ar   
@<TRIPOS>SUBSTRUCTURE
     1 SAM401      1 GROUP   
@<TRIPOS>SET

