#    Name: 6aax_2_SAM
#    Modification time : Fri May 22 19:23:52 2020

@<TRIPOS>MOLECULE
6aax_2_SAM
   27    29     1     0     0
SMALL
NO_CHARGES


@<TRIPOS>ATOM
      1 N           6.1890   31.8010  -15.4410 N.4       1 SAM401      0.0000 
      2 CA          5.5250   32.1070  -14.1820 C.3       1 SAM401      0.0000 
      3 C           4.0620   32.4340  -14.4300 C.2       1 SAM401      0.0000 
      4 O           3.6910   32.8850  -15.5210 O.co2     1 SAM401      0.0000 
      5 OXT         3.2210   32.2200  -13.5500 O.co2     1 SAM401      0.0000 
      6 CB          6.2850   33.2290  -13.4890 C.3       1 SAM401      0.0000 
      7 CG          7.7660   32.8550  -13.5010 C.3       1 SAM401      0.0000 
      8 SD          8.9750   34.1690  -13.8210 S.3       1 SAM401      0.0000 
      9 CE         10.4070   33.2330  -14.4250 C.3       1 SAM401      0.0000 
     10 C5'         9.4940   34.5780  -12.1240 C.3       1 SAM401      0.0000 
     11 C4'         8.9110   35.8540  -11.4950 C.3       1 SAM401      0.0000 
     12 O4'         9.1620   35.9200  -10.0950 O.3       1 SAM401      0.0000 
     13 C3'         9.4930   37.1290  -12.0850 C.3       1 SAM401      0.0000 
     14 O3'         8.4330   37.8280  -12.6910 O.3       1 SAM401      0.0000 
     15 C2'        10.0650   37.9370  -10.9270 C.3       1 SAM401      0.0000 
     16 O2'         9.5900   39.2680  -10.9050 O.3       1 SAM401      0.0000 
     17 C1'         9.5510   37.2290   -9.6920 C.3       1 SAM401      0.0000 
     18 N9         10.5720   37.2170   -8.6240 N.pl3     1 SAM401      0.0000 
     19 C8         11.8830   36.8120   -8.7310 C.2       1 SAM401      0.0000 
     20 N7         12.4720   36.9520   -7.5180 N.2       1 SAM401      0.0000 
     21 C5         11.5640   37.4390   -6.6350 C.ar      1 SAM401      0.0000 
     22 C6         11.6420   37.7590   -5.2770 C.ar      1 SAM401      0.0000 
     23 N6         12.7830   37.6040   -4.6040 N.pl3     1 SAM401      0.0000 
     24 N1         10.5170   38.2480   -4.6370 N.ar      1 SAM401      0.0000 
     25 C2          9.3370   38.4120   -5.3450 C.ar      1 SAM401      0.0000 
     26 N3          9.2580   38.0910   -6.6920 N.ar      1 SAM401      0.0000 
     27 C4         10.3600   37.6130   -7.3240 C.ar      1 SAM401      0.0000 
@<TRIPOS>BOND
     1    1    2 1    
     2    2    3 1    
     3    2    6 1    
     4    3    4 ar   
     5    3    5 ar   
     6    6    7 1    
     7    7    8 1    
     8    8    9 1    
     9    8   10 1    
    10   10   11 1    
    11   11   12 1    
    12   11   13 1    
    13   12   17 1    
    14   13   14 1    
    15   13   15 1    
    16   15   16 1    
    17   15   17 1    
    18   17   18 1    
    19   18   19 1    
    20   18   27 1    
    21   19   20 2    
    22   20   21 1    
    23   21   22 ar   
    24   21   27 ar   
    25   22   23 1    
    26   22   24 ar   
    27   24   25 ar   
    28   25   26 ar   
    29   26   27 ar   
@<TRIPOS>SUBSTRUCTURE
     1 SAM401      1 GROUP   
@<TRIPOS>SET

