#    Name: 6mdm_5_ATP
#    Modification time : Fri May 22 19:26:59 2020

@<TRIPOS>MOLECULE
6mdm_5_ATP
   43    45     1     0     1
SMALL
NO_CHARGES


@<TRIPOS>ATOM
      1 PG        159.0770  176.4650  205.6430 P.3       1 ATP801      0.0000 
      2 O1G       157.7070  175.9250  205.3340 O.co2     1 ATP801      0.0000 
      3 O2G       159.1110  177.5120  206.7200 O.co2     1 ATP801      0.0000 
      4 O3G       160.1740  175.4370  205.7010 O.co2     1 ATP801      0.0000 
      5 PB        161.0220  177.7150  204.2980 P.3       1 ATP801      0.0000 
      6 O1B       161.8290  176.5270  203.8610 O.co2     1 ATP801      0.0000 
      7 O2B       161.3590  178.4600  205.5640 O.co2     1 ATP801      0.0000 
      8 O3B       159.4860  177.3010  204.3540 O.3       1 ATP801      0.0000 
      9 PA        162.4670  179.2540  202.6760 P.3       1 ATP801      0.0000 
     10 O1A       162.6580  178.8100  201.2600 O.co2     1 ATP801      0.0000 
     11 O2A       163.3320  178.7660  203.8060 O.co2     1 ATP801      0.0000 
     12 O3A       161.0160  178.7710  203.1080 O.3       1 ATP801      0.0000 
     13 O5'       162.2630  180.8440  202.7420 O.3       1 ATP801      0.0000 
     14 C5'       163.4230  181.5650  203.1020 C.3       1 ATP801      0.0000 
     15 C4'       163.3950  183.0830  202.9300 C.3       1 ATP801      0.0000 
     16 O4'       164.3300  183.6640  203.8390 O.3       1 ATP801      0.0000 
     17 C3'       163.7880  183.6080  201.5540 C.3       1 ATP801      0.0000 
     18 O3'       162.6700  184.1280  200.8430 O.3       1 ATP801      0.0000 
     19 C2'       164.7740  184.7310  201.7890 C.3       1 ATP801      0.0000 
     20 O2'       164.3790  185.9640  201.1910 O.3       1 ATP801      0.0000 
     21 C1'       164.8110  184.8800  203.2820 C.3       1 ATP801      0.0000 
     22 N9        166.1900  185.1840  203.6560 N.pl3     1 ATP801      0.0000 
     23 C8        166.8280  186.2610  203.2230 C.2       1 ATP801      0.0000 
     24 N7        168.0740  186.3020  203.7330 N.2       1 ATP801      0.0000 
     25 C5        168.2250  185.2310  204.5130 C.ar      1 ATP801      0.0000 
     26 C6        169.2820  184.6560  205.3450 C.ar      1 ATP801      0.0000 
     27 N6        170.4690  185.2560  205.4650 N.pl3     1 ATP801      0.0000 
     28 N1        169.0330  183.5240  206.0120 N.ar      1 ATP801      0.0000 
     29 C2        167.8530  182.9080  205.9210 C.ar      1 ATP801      0.0000 
     30 N3        166.8520  183.3660  205.1660 N.ar      1 ATP801      0.0000 
     31 C4        166.9750  184.5000  204.4600 C.ar      1 ATP801      0.0000 
     32 H5'1      164.3070  181.1150  202.6510 H         1 ATP801      0.0000 
     33 H5'2      163.4790  181.3980  204.1640 H         1 ATP801      0.0000 
     34 H4'       162.3830  183.4420  203.1530 H         1 ATP801      0.0000 
     35 H3'       164.2850  182.8160  200.9870 H         1 ATP801      0.0000 
     36 HO3'      162.9510  184.3280  199.9390 H         1 ATP801      0.0000 
     37 H2'       165.7640  184.4300  201.4350 H         1 ATP801      0.0000 
     38 HO2'      164.7210  185.9930  200.2920 H         1 ATP801      0.0000 
     39 H1'       164.1690  185.7190  203.5590 H         1 ATP801      0.0000 
     40 H8        166.3970  186.9770  202.5420 H         1 ATP801      0.0000 
     41 HN61      170.6350  186.1040  204.9710 H         1 ATP801      0.0000 
     42 HN62      171.1830  184.8510  206.0460 H         1 ATP801      0.0000 
     43 H2        167.7130  181.9920  206.4730 H         1 ATP801      0.0000 
@<TRIPOS>BOND
     1    1    2 ar   
     2    1    3 ar   
     3    1    4 ar   
     4    1    8 1    
     5    5    6 ar   
     6    5    7 ar   
     7    5    8 1    
     8    5   12 1    
     9    9   10 ar   
    10    9   11 ar   
    11    9   12 1    
    12    9   13 1    
    13   13   14 1    
    14   14   15 1    
    15   14   32 1    
    16   14   33 1    
    17   15   16 1    
    18   15   17 1    
    19   15   34 1    
    20   16   21 1    
    21   17   18 1    
    22   17   19 1    
    23   17   35 1    
    24   18   36 1    
    25   19   20 1    
    26   19   21 1    
    27   19   37 1    
    28   20   38 1    
    29   21   22 1    
    30   21   39 1    
    31   22   23 1    
    32   22   31 1    
    33   23   24 2    
    34   23   40 1    
    35   24   25 1    
    36   25   26 ar   
    37   25   31 ar   
    38   26   27 1    
    39   26   28 ar   
    40   27   41 1    
    41   27   42 1    
    42   28   29 ar   
    43   29   30 ar   
    44   29   43 1    
    45   30   31 ar   
@<TRIPOS>SUBSTRUCTURE
     1 ATP801      1 GROUP   
@<TRIPOS>SET
ATOM$ORANGE STATIC     ATOMS   COLORGROUP SYSTEM 
20 14 14 15 15 17 17 19 19 21 21 23 23 25 25 26 26 29 \
29 31 31 

