#    Name: 6mdm_11_ATP
#    Modification time : Fri May 22 19:29:06 2020

@<TRIPOS>MOLECULE
6mdm_11_ATP
   43    45     1     0     1
SMALL
NO_CHARGES


@<TRIPOS>ATOM
      1 PG        127.7180  125.2410  206.8350 P.3       1 ATP801      0.0000 
      2 O1G       127.8990  126.2920  205.7680 O.co2     1 ATP801      0.0000 
      3 O2G       126.3640  125.2460  207.4990 O.co2     1 ATP801      0.0000 
      4 O3G       128.8730  125.0360  207.7820 O.co2     1 ATP801      0.0000 
      5 PB        126.2050  123.4040  205.6200 P.3       1 ATP801      0.0000 
      6 O1B       125.4630  124.5640  205.0100 O.co2     1 ATP801      0.0000 
      7 O2B       125.6500  122.6420  206.7820 O.co2     1 ATP801      0.0000 
      8 O3B       127.6730  123.8710  206.0230 O.3       1 ATP801      0.0000 
      9 PA        125.3430  122.0030  203.4430 P.3       1 ATP801      0.0000 
     10 O1A       125.7610  122.5650  202.1090 O.co2     1 ATP801      0.0000 
     11 O2A       124.1040  122.4200  204.2000 O.co2     1 ATP801      0.0000 
     12 O3A       126.4870  122.3260  204.4920 O.3       1 ATP801      0.0000 
     13 O5'       125.5570  120.4130  203.5470 O.3       1 ATP801      0.0000 
     14 C5'       124.7550  119.7130  204.4850 C.3       1 ATP801      0.0000 
     15 C4'       124.6910  118.2070  204.3460 C.3       1 ATP801      0.0000 
     16 O4'       123.7410  117.7410  205.2880 O.3       1 ATP801      0.0000 
     17 C3'       124.2710  117.6990  202.9630 C.3       1 ATP801      0.0000 
     18 O3'       125.3300  117.0700  202.2440 O.3       1 ATP801      0.0000 
     19 C2'       123.1390  116.7120  203.2120 C.3       1 ATP801      0.0000 
     20 O2'       123.3820  115.4520  202.5930 O.3       1 ATP801      0.0000 
     21 C1'       123.1270  116.6050  204.7180 C.3       1 ATP801      0.0000 
     22 N9        121.7880  116.3500  205.2510 N.pl3     1 ATP801      0.0000 
     23 C8        120.9710  115.3980  204.8100 C.2       1 ATP801      0.0000 
     24 N7        119.8750  115.3470  205.5910 N.2       1 ATP801      0.0000 
     25 C5        119.9950  116.2480  206.5620 C.ar      1 ATP801      0.0000 
     26 C6        119.1970  116.7080  207.7090 C.ar      1 ATP801      0.0000 
     27 N6        117.9870  116.1960  207.9860 N.pl3     1 ATP801      0.0000 
     28 N1        119.7130  117.6650  208.4890 N.ar      1 ATP801      0.0000 
     29 C2        120.9080  118.2030  208.2260 C.ar      1 ATP801      0.0000 
     30 N3        121.6890  117.8130  207.2130 N.ar      1 ATP801      0.0000 
     31 C4        121.3070  116.8390  206.3760 C.ar      1 ATP801      0.0000 
     32 H5'1      125.0650  119.9670  205.4950 H         1 ATP801      0.0000 
     33 H5'2      123.7300  120.0530  204.3580 H         1 ATP801      0.0000 
     34 H4'       125.6830  117.8030  204.5860 H         1 ATP801      0.0000 
     35 H3'       123.8620  118.5400  202.3920 H         1 ATP801      0.0000 
     36 HO3'      125.1760  117.1980  201.2980 H         1 ATP801      0.0000 
     37 H2'       122.1860  117.1410  202.8800 H         1 ATP801      0.0000 
     38 HO2'      123.3470  115.5570  201.6330 H         1 ATP801      0.0000 
     39 H1'       123.7350  115.7280  204.9610 H         1 ATP801      0.0000 
     40 H8        121.1510  114.7870  203.9370 H         1 ATP801      0.0000 
     41 HN61      117.4770  116.5390  208.7810 H         1 ATP801      0.0000 
     42 HN62      117.6000  115.4790  207.4030 H         1 ATP801      0.0000 
     43 H2        121.2860  118.9590  208.8990 H         1 ATP801      0.0000 
@<TRIPOS>BOND
     1    1    2 ar   
     2    1    3 ar   
     3    1    4 ar   
     4    1    8 1    
     5    5    6 ar   
     6    5    7 ar   
     7    5    8 1    
     8    5   12 1    
     9    9   10 ar   
    10    9   11 ar   
    11    9   12 1    
    12    9   13 1    
    13   13   14 1    
    14   14   15 1    
    15   14   32 1    
    16   14   33 1    
    17   15   16 1    
    18   15   17 1    
    19   15   34 1    
    20   16   21 1    
    21   17   18 1    
    22   17   19 1    
    23   17   35 1    
    24   18   36 1    
    25   19   20 1    
    26   19   21 1    
    27   19   37 1    
    28   20   38 1    
    29   21   22 1    
    30   21   39 1    
    31   22   23 1    
    32   22   31 1    
    33   23   24 2    
    34   23   40 1    
    35   24   25 1    
    36   25   26 ar   
    37   25   31 ar   
    38   26   27 1    
    39   26   28 ar   
    40   27   41 1    
    41   27   42 1    
    42   28   29 ar   
    43   29   30 ar   
    44   29   43 1    
    45   30   31 ar   
@<TRIPOS>SUBSTRUCTURE
     1 ATP801      1 GROUP   
@<TRIPOS>SET
ATOM$ORANGE STATIC     ATOMS   COLORGROUP SYSTEM 
20 14 14 15 15 17 17 19 19 21 21 23 23 25 25 26 26 29 \
29 31 31 

