#    Name: 6mdm_8_ATP
#    Modification time : Fri May 22 19:28:08 2020

@<TRIPOS>MOLECULE
6mdm_8_ATP
   43    45     1     0     1
SMALL
NO_CHARGES


@<TRIPOS>ATOM
      1 PG        172.4760  135.7230  166.6500 P.3       1 ATP802      0.0000 
      2 O1G       172.0890  135.6960  165.1940 O.co2     1 ATP802      0.0000 
      3 O2G       172.0480  136.9520  167.3960 O.co2     1 ATP802      0.0000 
      4 O3G       172.3030  134.4190  167.3780 O.co2     1 ATP802      0.0000 
      5 PB        174.7750  134.5020  166.1910 P.3       1 ATP802      0.0000 
      6 O1B       173.9480  133.8100  165.1440 O.co2     1 ATP802      0.0000 
      7 O2B       175.1590  133.8190  167.4770 O.co2     1 ATP802      0.0000 
      8 O3B       174.0600  135.8670  166.5880 O.3       1 ATP802      0.0000 
      9 PA        177.4590  134.3730  166.0870 P.3       1 ATP802      0.0000 
     10 O1A       177.3740  132.9180  165.7450 O.co2     1 ATP802      0.0000 
     11 O2A       177.6650  134.7090  167.5140 O.co2     1 ATP802      0.0000 
     12 O3A       176.1240  135.0500  165.5490 O.3       1 ATP802      0.0000 
     13 O5'       178.5640  135.1430  165.2220 O.3       1 ATP802      0.0000 
     14 C5'       179.6840  134.4050  164.7880 C.3       1 ATP802      0.0000 
     15 C4'       180.9330  135.2590  164.6840 C.3       1 ATP802      0.0000 
     16 O4'       181.3580  135.7370  165.9590 O.3       1 ATP802      0.0000 
     17 C3'       182.0960  134.4670  164.1270 C.3       1 ATP802      0.0000 
     18 O3'       182.2360  134.6630  162.7250 O.3       1 ATP802      0.0000 
     19 C2'       183.2570  135.0380  164.8670 C.3       1 ATP802      0.0000 
     20 O2'       183.6360  136.3020  164.3260 O.3       1 ATP802      0.0000 
     21 C1'       182.6680  135.2400  166.2270 C.3       1 ATP802      0.0000 
     22 N9        182.4340  133.9990  166.9900 N.pl3     1 ATP802      0.0000 
     23 C8        181.3590  133.8580  167.7640 C.2       1 ATP802      0.0000 
     24 N7        181.3530  132.6780  168.3850 N.2       1 ATP802      0.0000 
     25 C5        182.4020  132.0030  167.9700 C.ar      1 ATP802      0.0000 
     26 C6        182.9100  130.6740  168.2700 C.ar      1 ATP802      0.0000 
     27 N6        182.2180  129.8900  169.1170 N.pl3     1 ATP802      0.0000 
     28 N1        184.0500  130.3030  167.6800 N.ar      1 ATP802      0.0000 
     29 C2        184.6940  131.1350  166.8460 C.ar      1 ATP802      0.0000 
     30 N3        184.2700  132.3710  166.5320 N.ar      1 ATP802      0.0000 
     31 C4        183.1340  132.8640  167.0510 C.ar      1 ATP802      0.0000 
     32 H5'1      179.4630  133.9860  163.8120 H         1 ATP802      0.0000 
     33 H5'2      179.8490  133.5790  165.4700 H         1 ATP802      0.0000 
     34 H4'       180.7300  136.1070  164.0240 H         1 ATP802      0.0000 
     35 H3'       181.9940  133.4130  164.4100 H         1 ATP802      0.0000 
     36 HO3'      183.1080  134.3470  162.4580 H         1 ATP802      0.0000 
     37 H2'       184.1040  134.3490  164.8890 H         1 ATP802      0.0000 
     38 HO2'      184.0900  136.1750  163.4850 H         1 ATP802      0.0000 
     39 H1'       183.2820  135.9420  166.7840 H         1 ATP802      0.0000 
     40 H8        180.6020  134.6070  167.9220 H         1 ATP802      0.0000 
     41 HN61      181.3650  130.2350  169.5290 H         1 ATP802      0.0000 
     42 HN62      182.5530  128.9680  169.3380 H         1 ATP802      0.0000 
     43 H2        185.6090  130.7820  166.3950 H         1 ATP802      0.0000 
@<TRIPOS>BOND
     1    1    2 ar   
     2    1    3 ar   
     3    1    4 ar   
     4    1    8 1    
     5    5    6 ar   
     6    5    7 ar   
     7    5    8 1    
     8    5   12 1    
     9    9   10 ar   
    10    9   11 ar   
    11    9   12 1    
    12    9   13 1    
    13   13   14 1    
    14   14   15 1    
    15   14   32 1    
    16   14   33 1    
    17   15   16 1    
    18   15   17 1    
    19   15   34 1    
    20   16   21 1    
    21   17   18 1    
    22   17   19 1    
    23   17   35 1    
    24   18   36 1    
    25   19   20 1    
    26   19   21 1    
    27   19   37 1    
    28   20   38 1    
    29   21   22 1    
    30   21   39 1    
    31   22   23 1    
    32   22   31 1    
    33   23   24 2    
    34   23   40 1    
    35   24   25 1    
    36   25   26 ar   
    37   25   31 ar   
    38   26   27 1    
    39   26   28 ar   
    40   27   41 1    
    41   27   42 1    
    42   28   29 ar   
    43   29   30 ar   
    44   29   43 1    
    45   30   31 ar   
@<TRIPOS>SUBSTRUCTURE
     1 ATP802      1 GROUP   
@<TRIPOS>SET
ATOM$ORANGE STATIC     ATOMS   COLORGROUP SYSTEM 
20 14 14 15 15 17 17 19 19 21 21 23 23 25 25 26 26 29 \
29 31 31 

