#    Name: 6mdm_7_ATP
#    Modification time : Fri May 22 19:27:43 2020

@<TRIPOS>MOLECULE
6mdm_7_ATP
   43    45     1     0     1
SMALL
NO_CHARGES


@<TRIPOS>ATOM
      1 PG        174.4740  150.6950  205.6670 P.3       1 ATP801      0.0000 
      2 O1G       173.9580  150.0010  204.4360 O.co2     1 ATP801      0.0000 
      3 O2G       174.1030  152.1450  205.8170 O.co2     1 ATP801      0.0000 
      4 O3G       174.4070  149.8940  206.9370 O.co2     1 ATP801      0.0000 
      5 PB        176.7540  149.3590  205.1710 P.3       1 ATP801      0.0000 
      6 O1B       176.2140  148.7710  203.8980 O.co2     1 ATP801      0.0000 
      7 O2B       176.7560  148.5780  206.4570 O.co2     1 ATP801      0.0000 
      8 O3B       176.0400  150.7560  205.4240 O.3       1 ATP801      0.0000 
      9 PA        178.6910  150.2640  203.3910 P.3       1 ATP801      0.0000 
     10 O1A       178.5260  149.0250  202.5570 O.co2     1 ATP801      0.0000 
     11 O2A       178.1180  151.5710  202.9280 O.co2     1 ATP801      0.0000 
     12 O3A       178.2190  149.8920  204.8730 O.3       1 ATP801      0.0000 
     13 O5'       180.2330  150.3690  203.8090 O.3       1 ATP801      0.0000 
     14 C5'       181.2290  149.9150  202.9170 C.3       1 ATP801      0.0000 
     15 C4'       182.6100  150.2710  203.4430 C.3       1 ATP801      0.0000 
     16 O4'       182.9950  149.4430  204.5510 O.3       1 ATP801      0.0000 
     17 C3'       183.7040  150.0860  202.4120 C.3       1 ATP801      0.0000 
     18 O3'       184.1890  151.3700  202.0360 O.3       1 ATP801      0.0000 
     19 C2'       184.7730  149.2840  203.1140 C.3       1 ATP801      0.0000 
     20 O2'       186.0780  149.7530  202.8590 O.3       1 ATP801      0.0000 
     21 C1'       184.4200  149.4330  204.5630 C.3       1 ATP801      0.0000 
     22 N9        185.0840  148.3200  205.2450 N.pl3     1 ATP801      0.0000 
     23 C8        186.3950  148.2690  205.4440 C.2       1 ATP801      0.0000 
     24 N7        186.7480  147.1340  206.0860 N.2       1 ATP801      0.0000 
     25 C5        185.6230  146.4480  206.3050 C.ar      1 ATP801      0.0000 
     26 C6        185.2630  145.1610  206.9220 C.ar      1 ATP801      0.0000 
     27 N6        186.1950  144.3550  207.4690 N.pl3     1 ATP801      0.0000 
     28 N1        183.9660  144.8140  206.9250 N.ar      1 ATP801      0.0000 
     29 C2        183.0220  145.5960  206.3880 C.ar      1 ATP801      0.0000 
     30 N3        183.2890  146.7650  205.8070 N.ar      1 ATP801      0.0000 
     31 C4        184.5370  147.2340  205.7350 C.ar      1 ATP801      0.0000 
     32 H5'1      181.0710  150.3620  201.9380 H         1 ATP801      0.0000 
     33 H5'2      181.1360  148.8370  202.8190 H         1 ATP801      0.0000 
     34 H4'       182.5980  151.3220  203.7500 H         1 ATP801      0.0000 
     35 H3'       183.3230  149.5370  201.5470 H         1 ATP801      0.0000 
     36 HO3'      184.8310  151.2700  201.3350 H         1 ATP801      0.0000 
     37 H2'       184.7040  148.2240  202.8610 H         1 ATP801      0.0000 
     38 HO2'      186.2590  149.5890  201.9300 H         1 ATP801      0.0000 
     39 H1'       184.8180  150.3800  204.9330 H         1 ATP801      0.0000 
     40 H8        187.0680  149.0450  205.1260 H         1 ATP801      0.0000 
     41 HN61      187.1620  144.6270  207.4610 H         1 ATP801      0.0000 
     42 HN62      185.9250  143.4830  207.8950 H         1 ATP801      0.0000 
     43 H2        181.9970  145.2590  206.4210 H         1 ATP801      0.0000 
@<TRIPOS>BOND
     1    1    2 ar   
     2    1    3 ar   
     3    1    4 ar   
     4    1    8 1    
     5    5    6 ar   
     6    5    7 ar   
     7    5    8 1    
     8    5   12 1    
     9    9   10 ar   
    10    9   11 ar   
    11    9   12 1    
    12    9   13 1    
    13   13   14 1    
    14   14   15 1    
    15   14   32 1    
    16   14   33 1    
    17   15   16 1    
    18   15   17 1    
    19   15   34 1    
    20   16   21 1    
    21   17   18 1    
    22   17   19 1    
    23   17   35 1    
    24   18   36 1    
    25   19   20 1    
    26   19   21 1    
    27   19   37 1    
    28   20   38 1    
    29   21   22 1    
    30   21   39 1    
    31   22   23 1    
    32   22   31 1    
    33   23   24 2    
    34   23   40 1    
    35   24   25 1    
    36   25   26 ar   
    37   25   31 ar   
    38   26   27 1    
    39   26   28 ar   
    40   27   41 1    
    41   27   42 1    
    42   28   29 ar   
    43   29   30 ar   
    44   29   43 1    
    45   30   31 ar   
@<TRIPOS>SUBSTRUCTURE
     1 ATP801      1 GROUP   
@<TRIPOS>SET
ATOM$ORANGE STATIC     ATOMS   COLORGROUP SYSTEM 
20 14 14 15 15 17 17 19 19 21 21 23 23 25 25 26 26 29 \
29 31 31 

