#    Name: 6mdm_3_ATP
#    Modification time : Fri May 22 19:26:18 2020

@<TRIPOS>MOLECULE
6mdm_3_ATP
   43    45     1     0     1
SMALL
NO_CHARGES


@<TRIPOS>ATOM
      1 PG        145.7280  178.8170  169.6920 P.3       1 ATP801      0.0000 
      2 O1G       145.3080  177.8070  168.6580 O.co2     1 ATP801      0.0000 
      3 O2G       147.1300  178.6380  170.2120 O.co2     1 ATP801      0.0000 
      4 O3G       144.6770  179.0990  170.7330 O.co2     1 ATP801      0.0000 
      5 PB        145.3780  181.6020  169.5240 P.3       1 ATP801      0.0000 
      6 O1B       143.8800  181.7040  169.5220 O.co2     1 ATP801      0.0000 
      7 O2B       146.1520  181.8570  170.7840 O.co2     1 ATP801      0.0000 
      8 O3B       145.7810  180.1910  168.8700 O.3       1 ATP801      0.0000 
      9 PA        145.2310  182.9580  167.0730 P.3       1 ATP801      0.0000 
     10 O1A       146.3080  183.5460  166.2030 O.co2     1 ATP801      0.0000 
     11 O2A       144.4560  181.7740  166.5570 O.co2     1 ATP801      0.0000 
     12 O3A       146.0160  182.5260  168.3890 O.3       1 ATP801      0.0000 
     13 O5'       144.3060  184.1980  167.4870 O.3       1 ATP801      0.0000 
     14 C5'       143.7620  184.9300  166.4040 C.3       1 ATP801      0.0000 
     15 C4'       143.1410  186.2320  166.8240 C.3       1 ATP801      0.0000 
     16 O4'       144.1070  187.2010  167.2080 O.3       1 ATP801      0.0000 
     17 C3'       142.4270  186.8270  165.6530 C.3       1 ATP801      0.0000 
     18 O3'       141.0460  186.5050  165.6970 O.3       1 ATP801      0.0000 
     19 C2'       142.6830  188.3040  165.8080 C.3       1 ATP801      0.0000 
     20 O2'       141.4860  189.0690  165.8190 O.3       1 ATP801      0.0000 
     21 C1'       143.4950  188.4690  167.0920 C.3       1 ATP801      0.0000 
     22 N9        144.4820  189.5690  166.9610 N.pl3     1 ATP801      0.0000 
     23 C8        144.3880  190.6500  166.1750 C.2       1 ATP801      0.0000 
     24 N7        145.4750  191.4380  166.2610 N.2       1 ATP801      0.0000 
     25 C5        146.2930  190.8550  167.1290 C.ar      1 ATP801      0.0000 
     26 C6        147.5960  191.1870  167.7010 C.ar      1 ATP801      0.0000 
     27 N6        148.2500  192.2940  167.3310 N.pl3     1 ATP801      0.0000 
     28 N1        148.1270  190.3560  168.6030 N.ar      1 ATP801      0.0000 
     29 C2        147.4850  189.2500  168.9830 C.ar      1 ATP801      0.0000 
     30 N3        146.2810  188.8960  168.5120 N.ar      1 ATP801      0.0000 
     31 C4        145.6340  189.6480  167.6090 C.ar      1 ATP801      0.0000 
     32 H5'1      143.0090  184.3390  165.8940 H         1 ATP801      0.0000 
     33 H5'2      144.5430  185.1500  165.6880 H         1 ATP801      0.0000 
     34 H4'       142.4220  186.0510  167.6210 H         1 ATP801      0.0000 
     35 H3'       142.8820  186.4640  164.7290 H         1 ATP801      0.0000 
     36 HO3'      140.6540  186.7910  164.8650 H         1 ATP801      0.0000 
     37 H2'       143.2750  188.5450  164.9220 H         1 ATP801      0.0000 
     38 HO2'      141.1590  189.1250  164.9140 H         1 ATP801      0.0000 
     39 H1'       142.8330  188.6510  167.9460 H         1 ATP801      0.0000 
     40 H8        143.5640  190.8390  165.5180 H         1 ATP801      0.0000 
     41 HN61      147.8500  192.9240  166.6550 H         1 ATP801      0.0000 
     42 HN62      149.1460  192.4780  167.7400 H         1 ATP801      0.0000 
     43 H2        147.9580  188.6040  169.7100 H         1 ATP801      0.0000 
@<TRIPOS>BOND
     1    1    2 ar   
     2    1    3 ar   
     3    1    4 ar   
     4    1    8 1    
     5    5    6 ar   
     6    5    7 ar   
     7    5    8 1    
     8    5   12 1    
     9    9   10 ar   
    10    9   11 ar   
    11    9   12 1    
    12    9   13 1    
    13   13   14 1    
    14   14   15 1    
    15   14   32 1    
    16   14   33 1    
    17   15   16 1    
    18   15   17 1    
    19   15   34 1    
    20   16   21 1    
    21   17   18 1    
    22   17   19 1    
    23   17   35 1    
    24   18   36 1    
    25   19   20 1    
    26   19   21 1    
    27   19   37 1    
    28   20   38 1    
    29   21   22 1    
    30   21   39 1    
    31   22   23 1    
    32   22   31 1    
    33   23   24 2    
    34   23   40 1    
    35   24   25 1    
    36   25   26 ar   
    37   25   31 ar   
    38   26   27 1    
    39   26   28 ar   
    40   27   41 1    
    41   27   42 1    
    42   28   29 ar   
    43   29   30 ar   
    44   29   43 1    
    45   30   31 ar   
@<TRIPOS>SUBSTRUCTURE
     1 ATP801      1 GROUP   
@<TRIPOS>SET
ATOM$ORANGE STATIC     ATOMS   COLORGROUP SYSTEM 
20 14 14 15 15 17 17 19 19 21 21 23 23 25 25 26 26 29 \
29 31 31 

