#    Name: 6mdm_4_ATP
#    Modification time : Fri May 22 19:26:41 2020

@<TRIPOS>MOLECULE
6mdm_4_ATP
   43    45     1     0     1
SMALL
NO_CHARGES


@<TRIPOS>ATOM
      1 PG        130.0010  177.7980  205.1700 P.3       1 ATP802      0.0000 
      2 O1G       130.2370  177.6520  203.6950 O.co2     1 ATP802      0.0000 
      3 O2G       129.0780  176.7580  205.7360 O.co2     1 ATP802      0.0000 
      4 O3G       131.1950  178.1420  206.0030 O.co2     1 ATP802      0.0000 
      5 PB        129.7540  180.4890  204.7790 P.3       1 ATP802      0.0000 
      6 O1B       130.3190  180.3720  203.3910 O.co2     1 ATP802      0.0000 
      7 O2B       130.5670  181.0110  205.9310 O.co2     1 ATP802      0.0000 
      8 O3B       129.0850  179.1010  205.1930 O.3       1 ATP802      0.0000 
      9 PA        128.1990  182.0730  203.2860 P.3       1 ATP802      0.0000 
     10 O1A       127.7240  181.0050  202.3370 O.co2     1 ATP802      0.0000 
     11 O2A       129.3900  182.9540  203.0030 O.co2     1 ATP802      0.0000 
     12 O3A       128.4250  181.3560  204.6910 O.3       1 ATP802      0.0000 
     13 O5'       126.9700  183.0180  203.6910 O.3       1 ATP802      0.0000 
     14 C5'       126.3200  183.6750  202.6420 C.3       1 ATP802      0.0000 
     15 C4'       125.0020  184.3320  202.9580 C.3       1 ATP802      0.0000 
     16 O4'       125.1640  185.0840  204.1410 O.3       1 ATP802      0.0000 
     17 C3'       124.6430  185.2560  201.8120 C.3       1 ATP802      0.0000 
     18 O3'       123.2380  185.3560  201.6110 O.3       1 ATP802      0.0000 
     19 C2'       125.1670  186.5570  202.3400 C.3       1 ATP802      0.0000 
     20 O2'       124.5660  187.6790  201.7300 O.3       1 ATP802      0.0000 
     21 C1'       124.9110  186.4360  203.8170 C.3       1 ATP802      0.0000 
     22 N9        125.8710  187.2160  204.5770 N.pl3     1 ATP802      0.0000 
     23 C8        127.1570  186.9020  204.6970 C.2       1 ATP802      0.0000 
     24 N7        127.8020  187.7800  205.4860 N.2       1 ATP802      0.0000 
     25 C5        126.8800  188.6510  205.8830 C.ar      1 ATP802      0.0000 
     26 C6        126.8730  189.8250  206.7330 C.ar      1 ATP802      0.0000 
     27 N6        128.0300  190.2060  207.2930 N.pl3     1 ATP802      0.0000 
     28 N1        125.7020  190.4710  206.8950 N.ar      1 ATP802      0.0000 
     29 C2        124.5640  190.0340  206.3150 C.ar      1 ATP802      0.0000 
     30 N3        124.5090  188.9700  205.5210 N.ar      1 ATP802      0.0000 
     31 C4        125.6120  188.2650  205.2920 C.ar      1 ATP802      0.0000 
     32 H5'1      126.1860  182.9690  201.8280 H         1 ATP802      0.0000 
     33 H5'2      126.9900  184.4450  202.3310 H         1 ATP802      0.0000 
     34 H4'       124.2290  183.5700  203.0830 H         1 ATP802      0.0000 
     35 H3'       125.1700  184.9800  200.8960 H         1 ATP802      0.0000 
     36 HO3'      123.0810  185.7450  200.7440 H         1 ATP802      0.0000 
     37 H2'       126.2380  186.5870  202.1480 H         1 ATP802      0.0000 
     38 HO2'      124.5670  187.5270  200.7810 H         1 ATP802      0.0000 
     39 H1'       123.8860  186.7390  204.0370 H         1 ATP802      0.0000 
     40 H8        127.6020  186.0560  204.2000 H         1 ATP802      0.0000 
     41 HN61      128.8580  189.6610  207.1070 H         1 ATP802      0.0000 
     42 HN62      128.0690  191.0170  207.8860 H         1 ATP802      0.0000 
     43 H2        123.6490  190.5810  206.4720 H         1 ATP802      0.0000 
@<TRIPOS>BOND
     1    1    2 ar   
     2    1    3 ar   
     3    1    4 ar   
     4    1    8 1    
     5    5    6 ar   
     6    5    7 ar   
     7    5    8 1    
     8    5   12 1    
     9    9   10 ar   
    10    9   11 ar   
    11    9   12 1    
    12    9   13 1    
    13   13   14 1    
    14   14   15 1    
    15   14   32 1    
    16   14   33 1    
    17   15   16 1    
    18   15   17 1    
    19   15   34 1    
    20   16   21 1    
    21   17   18 1    
    22   17   19 1    
    23   17   35 1    
    24   18   36 1    
    25   19   20 1    
    26   19   21 1    
    27   19   37 1    
    28   20   38 1    
    29   21   22 1    
    30   21   39 1    
    31   22   23 1    
    32   22   31 1    
    33   23   24 2    
    34   23   40 1    
    35   24   25 1    
    36   25   26 ar   
    37   25   31 ar   
    38   26   27 1    
    39   26   28 ar   
    40   27   41 1    
    41   27   42 1    
    42   28   29 ar   
    43   29   30 ar   
    44   29   43 1    
    45   30   31 ar   
@<TRIPOS>SUBSTRUCTURE
     1 ATP802      1 GROUP   
@<TRIPOS>SET
ATOM$ORANGE STATIC     ATOMS   COLORGROUP SYSTEM 
20 14 14 15 15 17 17 19 19 21 21 23 23 25 25 26 26 29 \
29 31 31 

