#    Name: 6mdm_10_ADP
#    Modification time : Fri May 22 19:28:47 2020

@<TRIPOS>MOLECULE
6mdm_10_ADP
   39    41     1     0     1
SMALL
NO_CHARGES


@<TRIPOS>ATOM
      1 PB        151.3220  117.9190  162.1450 P.3       1 ADP802      0.0000 
      2 O1B       151.9690  118.1280  160.8020 O.co2     1 ADP802      0.0000 
      3 O2B       151.9420  118.7000  163.2750 O.co2     1 ADP802      0.0000 
      4 O3B       149.8150  117.9840  162.1220 O.co2     1 ADP802      0.0000 
      5 PA        151.2400  115.1300  161.6830 P.3       1 ADP802      0.0000 
      6 O1A       151.6480  115.4960  160.2790 O.co2     1 ADP802      0.0000 
      7 O2A       149.8710  114.6250  162.0510 O.co2     1 ADP802      0.0000 
      8 O3A       151.7180  116.4060  162.5410 O.3       1 ADP802      0.0000 
      9 O5'       152.3250  114.0810  162.2180 O.3       1 ADP802      0.0000 
     10 C5'       152.7270  113.0450  161.3430 C.3       1 ADP802      0.0000 
     11 C4'       154.0160  112.4680  161.8980 C.3       1 ADP802      0.0000 
     12 O4'       153.8690  111.4460  162.9010 O.3       1 ADP802      0.0000 
     13 C3'       154.7870  111.8180  160.7730 C.3       1 ADP802      0.0000 
     14 O3'       155.8150  112.7140  160.3400 O.3       1 ADP802      0.0000 
     15 C2'       155.3680  110.5510  161.3160 C.3       1 ADP802      0.0000 
     16 O2'       156.7940  110.5520  161.3420 O.3       1 ADP802      0.0000 
     17 C1'       154.8750  110.4250  162.7410 C.3       1 ADP802      0.0000 
     18 N9        154.3250  109.0890  163.0340 N.pl3     1 ADP802      0.0000 
     19 C8        155.0050  107.9850  162.6860 C.2       1 ADP802      0.0000 
     20 N7        154.3390  106.8760  163.0390 N.2       1 ADP802      0.0000 
     21 C5        153.2390  107.2660  163.6780 C.ar      1 ADP802      0.0000 
     22 C6        152.1280  106.5500  164.2990 C.ar      1 ADP802      0.0000 
     23 N6        152.1460  105.2030  164.2990 N.pl3     1 ADP802      0.0000 
     24 N1        151.1480  107.2800  164.8470 N.ar      1 ADP802      0.0000 
     25 C2        151.1850  108.6200  164.8220 C.ar      1 ADP802      0.0000 
     26 N3        152.1660  109.3470  164.2580 N.ar      1 ADP802      0.0000 
     27 C4        153.2070  108.7300  163.6630 C.ar      1 ADP802      0.0000 
     28 H5'1      152.8960  113.4400  160.3440 H         1 ADP802      0.0000 
     29 H5'2      151.9450  112.2980  161.2880 H         1 ADP802      0.0000 
     30 H4'       154.5960  113.2820  162.3230 H         1 ADP802      0.0000 
     31 H3'       154.1080  111.5670  159.9510 H         1 ADP802      0.0000 
     32 HO3'      156.3240  112.3060  159.6300 H         1 ADP802      0.0000 
     33 H2'       154.9950  109.7550  160.6630 H         1 ADP802      0.0000 
     34 HO2'      157.1230  110.1750  160.5180 H         1 ADP802      0.0000 
     35 H1'       155.7290  110.5980  163.3960 H         1 ADP802      0.0000 
     36 H8        155.9400  107.9890  162.1430 H         1 ADP802      0.0000 
     37 HN61      151.4090  104.6790  164.7260 H         1 ADP802      0.0000 
     38 HN62      152.9100  104.7170  163.8640 H         1 ADP802      0.0000 
     39 H2        150.3650  109.1390  165.2800 H         1 ADP802      0.0000 
@<TRIPOS>BOND
     1    1    2 ar   
     2    1    3 ar   
     3    1    4 ar   
     4    1    8 1    
     5    5    6 ar   
     6    5    7 ar   
     7    5    8 1    
     8    5    9 1    
     9    9   10 1    
    10   10   11 1    
    11   10   28 1    
    12   10   29 1    
    13   11   12 1    
    14   11   13 1    
    15   11   30 1    
    16   12   17 1    
    17   13   14 1    
    18   13   15 1    
    19   13   31 1    
    20   14   32 1    
    21   15   16 1    
    22   15   17 1    
    23   15   33 1    
    24   16   34 1    
    25   17   18 1    
    26   17   35 1    
    27   18   19 1    
    28   18   27 1    
    29   19   20 2    
    30   19   36 1    
    31   20   21 1    
    32   21   22 ar   
    33   21   27 ar   
    34   22   23 1    
    35   22   24 ar   
    36   23   37 1    
    37   23   38 1    
    38   24   25 ar   
    39   25   26 ar   
    40   25   39 1    
    41   26   27 ar   
@<TRIPOS>SUBSTRUCTURE
     1 ADP802      1 GROUP   
@<TRIPOS>SET
ATOM$ORANGE STATIC     ATOMS   COLORGROUP SYSTEM 
20 10 10 11 11 13 13 15 15 17 17 19 19 21 21 22 22 25 \
25 27 27 

