#    Name: 6mdm_9_ATP
#    Modification time : Fri May 22 19:28:26 2020

@<TRIPOS>MOLECULE
6mdm_9_ATP
   43    45     1     0     1
SMALL
NO_CHARGES


@<TRIPOS>ATOM
      1 PG        157.6900  124.0970  206.1040 P.3       1 ATP801      0.0000 
      2 O1G       156.4460  123.7400  205.3380 O.co2     1 ATP801      0.0000 
      3 O2G       157.5120  124.3770  207.5710 O.co2     1 ATP801      0.0000 
      4 O3G       158.6010  125.0610  205.3900 O.co2     1 ATP801      0.0000 
      5 PB        158.5960  122.0600  204.6240 P.3       1 ATP801      0.0000 
      6 O1B       159.1060  123.0820  203.6480 O.co2     1 ATP801      0.0000 
      7 O2B       157.2990  121.3360  204.3740 O.co2     1 ATP801      0.0000 
      8 O3B       158.5300  122.7400  206.0650 O.3       1 ATP801      0.0000 
      9 PA        159.6400  119.5620  204.0470 P.3       1 ATP801      0.0000 
     10 O1A       159.7350  119.9210  202.5900 O.co2     1 ATP801      0.0000 
     11 O2A       158.3790  118.8930  204.4990 O.co2     1 ATP801      0.0000 
     12 O3A       159.7390  120.9550  204.8240 O.3       1 ATP801      0.0000 
     13 O5'       160.9820  118.7590  204.4650 O.3       1 ATP801      0.0000 
     14 C5'       161.6650  118.0320  203.4440 C.3       1 ATP801      0.0000 
     15 C4'       162.8850  117.2050  203.8720 C.3       1 ATP801      0.0000 
     16 O4'       162.6920  116.4110  205.0470 O.3       1 ATP801      0.0000 
     17 C3'       163.2840  116.2230  202.7850 C.3       1 ATP801      0.0000 
     18 O3'       164.6460  116.4180  202.4430 O.3       1 ATP801      0.0000 
     19 C2'       163.1550  114.8280  203.3430 C.3       1 ATP801      0.0000 
     20 O2'       164.2490  113.9680  203.0370 O.3       1 ATP801      0.0000 
     21 C1'       162.9410  115.0140  204.8220 C.3       1 ATP801      0.0000 
     22 N9        161.7440  114.3100  205.2910 N.pl3     1 ATP801      0.0000 
     23 C8        160.4940  114.6370  204.9750 C.2       1 ATP801      0.0000 
     24 N7        159.6080  113.8150  205.5810 N.2       1 ATP801      0.0000 
     25 C5        160.3220  112.9450  206.3020 C.ar      1 ATP801      0.0000 
     26 C6        160.0160  111.8010  207.1570 C.ar      1 ATP801      0.0000 
     27 N6        158.7420  111.4480  207.3690 N.pl3     1 ATP801      0.0000 
     28 N1        161.0310  111.1300  207.7140 N.ar      1 ATP801      0.0000 
     29 C2        162.2980  111.4930  207.4960 C.ar      1 ATP801      0.0000 
     30 N3        162.6570  112.5140  206.7070 N.ar      1 ATP801      0.0000 
     31 C4        161.7270  113.2450  206.0700 C.ar      1 ATP801      0.0000 
     32 H5'1      161.9840  118.7430  202.6850 H         1 ATP801      0.0000 
     33 H5'2      160.9330  117.3700  202.9850 H         1 ATP801      0.0000 
     34 H4'       163.7190  117.8940  204.0330 H         1 ATP801      0.0000 
     35 H3'       162.6510  116.3390  201.9010 H         1 ATP801      0.0000 
     36 HO3'      164.7460  116.1130  201.5420 H         1 ATP801      0.0000 
     37 H2'       162.2570  114.4020  202.8970 H         1 ATP801      0.0000 
     38 HO2'      164.3360  113.9430  202.0790 H         1 ATP801      0.0000 
     39 H1'       163.8260  114.6770  205.3680 H         1 ATP801      0.0000 
     40 H8        160.2450  115.4700  204.3380 H         1 ATP801      0.0000 
     41 HN61      158.5470  110.6670  207.9640 H         1 ATP801      0.0000 
     42 HN62      157.9990  111.9710  206.9320 H         1 ATP801      0.0000 
     43 H2        163.0630  110.9130  207.9780 H         1 ATP801      0.0000 
@<TRIPOS>BOND
     1    1    2 ar   
     2    1    3 ar   
     3    1    4 ar   
     4    1    8 1    
     5    5    6 ar   
     6    5    7 ar   
     7    5    8 1    
     8    5   12 1    
     9    9   10 ar   
    10    9   11 ar   
    11    9   12 1    
    12    9   13 1    
    13   13   14 1    
    14   14   15 1    
    15   14   32 1    
    16   14   33 1    
    17   15   16 1    
    18   15   17 1    
    19   15   34 1    
    20   16   21 1    
    21   17   18 1    
    22   17   19 1    
    23   17   35 1    
    24   18   36 1    
    25   19   20 1    
    26   19   21 1    
    27   19   37 1    
    28   20   38 1    
    29   21   22 1    
    30   21   39 1    
    31   22   23 1    
    32   22   31 1    
    33   23   24 2    
    34   23   40 1    
    35   24   25 1    
    36   25   26 ar   
    37   25   31 ar   
    38   26   27 1    
    39   26   28 ar   
    40   27   41 1    
    41   27   42 1    
    42   28   29 ar   
    43   29   30 ar   
    44   29   43 1    
    45   30   31 ar   
@<TRIPOS>SUBSTRUCTURE
     1 ATP801      1 GROUP   
@<TRIPOS>SET
ATOM$ORANGE STATIC     ATOMS   COLORGROUP SYSTEM 
20 14 14 15 15 17 17 19 19 21 21 23 23 25 25 26 26 29 \
29 31 31 

