#    Name: 6mdm_6_ATP
#    Modification time : Fri May 22 19:27:23 2020

@<TRIPOS>MOLECULE
6mdm_6_ATP
   43    45     1     0     1
SMALL
NO_CHARGES


@<TRIPOS>ATOM
      1 PG        171.2670  164.8490  168.6840 P.3       1 ATP802      0.0000 
      2 O1G       170.3510  163.8020  168.1170 O.co2     1 ATP802      0.0000 
      3 O2G       170.5980  166.0400  169.3160 O.co2     1 ATP802      0.0000 
      4 O3G       172.4610  164.3650  169.4390 O.co2     1 ATP802      0.0000 
      5 PB        173.0590  166.5720  167.6330 P.3       1 ATP802      0.0000 
      6 O1B       172.3010  167.6930  168.2550 O.co2     1 ATP802      0.0000 
      7 O2B       174.2850  165.9950  168.2900 O.co2     1 ATP802      0.0000 
      8 O3B       171.9550  165.4500  167.3840 O.3       1 ATP802      0.0000 
      9 PA        174.8600  167.5250  165.7570 P.3       1 ATP802      0.0000 
     10 O1A       174.7130  168.2340  164.4390 O.co2     1 ATP802      0.0000 
     11 O2A       175.7380  166.3060  165.8340 O.co2     1 ATP802      0.0000 
     12 O3A       173.4030  167.0010  166.1410 O.3       1 ATP802      0.0000 
     13 O5'       175.2090  168.5470  166.9280 O.3       1 ATP802      0.0000 
     14 C5'       174.3970  169.6880  167.0300 C.3       1 ATP802      0.0000 
     15 C4'       175.2530  170.9240  166.9240 C.3       1 ATP802      0.0000 
     16 O4'       176.4690  170.9030  167.6510 O.3       1 ATP802      0.0000 
     17 C3'       175.6960  171.0730  165.5030 C.3       1 ATP802      0.0000 
     18 O3'       174.6260  171.5630  164.6980 O.3       1 ATP802      0.0000 
     19 C2'       176.8270  172.0400  165.6250 C.3       1 ATP802      0.0000 
     20 O2'       176.2740  173.3110  165.3080 O.3       1 ATP802      0.0000 
     21 C1'       177.2850  171.9240  167.0780 C.3       1 ATP802      0.0000 
     22 N9        178.7030  171.5420  167.2770 N.pl3     1 ATP802      0.0000 
     23 C8        179.7690  171.8630  166.5290 C.2       1 ATP802      0.0000 
     24 N7        180.8970  171.3050  167.0060 N.2       1 ATP802      0.0000 
     25 C5        180.5580  170.6090  168.0880 C.ar      1 ATP802      0.0000 
     26 C6        181.2780  169.7880  169.0610 C.ar      1 ATP802      0.0000 
     27 N6        182.6020  169.6250  168.9290 N.pl3     1 ATP802      0.0000 
     28 N1        180.5840  169.2210  170.0530 N.ar      1 ATP802      0.0000 
     29 C2        179.2640  169.3990  170.1590 C.ar      1 ATP802      0.0000 
     30 N3        178.5420  170.1350  169.3030 N.ar      1 ATP802      0.0000 
     31 C4        179.1190  170.7510  168.2560 C.ar      1 ATP802      0.0000 
     32 H5'1      173.7940  169.6670  167.9310 H         1 ATP802      0.0000 
     33 H5'2      173.7530  169.6900  166.1610 H         1 ATP802      0.0000 
     34 H4'       174.6730  171.8050  167.2060 H         1 ATP802      0.0000 
     35 H3'       176.0880  170.1200  165.1450 H         1 ATP802      0.0000 
     36 HO3'      174.9210  171.6200  163.7820 H         1 ATP802      0.0000 
     37 H2'       177.5960  171.7980  164.9080 H         1 ATP802      0.0000 
     38 HO2'      176.2230  173.4120  164.3480 H         1 ATP802      0.0000 
     39 H1'       177.1050  172.8820  167.5580 H         1 ATP802      0.0000 
     40 H8        179.7280  172.4710  165.6460 H         1 ATP802      0.0000 
     41 HN61      183.0550  170.0850  168.1670 H         1 ATP802      0.0000 
     42 HN62      183.1340  169.0720  169.5820 H         1 ATP802      0.0000 
     43 H2        178.7610  168.9180  170.9800 H         1 ATP802      0.0000 
@<TRIPOS>BOND
     1    1    2 ar   
     2    1    3 ar   
     3    1    4 ar   
     4    1    8 1    
     5    5    6 ar   
     6    5    7 ar   
     7    5    8 1    
     8    5   12 1    
     9    9   10 ar   
    10    9   11 ar   
    11    9   12 1    
    12    9   13 1    
    13   13   14 1    
    14   14   15 1    
    15   14   32 1    
    16   14   33 1    
    17   15   16 1    
    18   15   17 1    
    19   15   34 1    
    20   16   21 1    
    21   17   18 1    
    22   17   19 1    
    23   17   35 1    
    24   18   36 1    
    25   19   20 1    
    26   19   21 1    
    27   19   37 1    
    28   20   38 1    
    29   21   22 1    
    30   21   39 1    
    31   22   23 1    
    32   22   31 1    
    33   23   24 2    
    34   23   40 1    
    35   24   25 1    
    36   25   26 ar   
    37   25   31 ar   
    38   26   27 1    
    39   26   28 ar   
    40   27   41 1    
    41   27   42 1    
    42   28   29 ar   
    43   29   30 ar   
    44   29   43 1    
    45   30   31 ar   
@<TRIPOS>SUBSTRUCTURE
     1 ATP802      1 GROUP   
@<TRIPOS>SET
ATOM$ORANGE STATIC     ATOMS   COLORGROUP SYSTEM 
20 14 14 15 15 17 17 19 19 21 21 23 23 25 25 26 26 29 \
29 31 31 

