#    Name: 6mdm_1_ATP
#    Modification time : Fri May 22 19:25:52 2020

@<TRIPOS>MOLECULE
6mdm_1_ATP
   43    45     1     0     1
SMALL
NO_CHARGES


@<TRIPOS>ATOM
      1 PG        113.5570  151.7320  206.2200 P.3       1 ATP801      0.0000 
      2 O1G       113.6360  153.1300  205.6690 O.co2     1 ATP801      0.0000 
      3 O2G       114.7890  150.8900  206.0400 O.co2     1 ATP801      0.0000 
      4 O3G       112.8830  151.6700  207.5610 O.co2     1 ATP801      0.0000 
      5 PB        111.3220  152.0420  204.8730 P.3       1 ATP801      0.0000 
      6 O1B       111.7040  152.7490  203.6060 O.co2     1 ATP801      0.0000 
      7 O2B       111.0170  152.8830  206.0840 O.co2     1 ATP801      0.0000 
      8 O3B       112.4980  151.0460  205.2500 O.3       1 ATP801      0.0000 
      9 PA        108.7590  151.9940  204.7220 P.3       1 ATP801      0.0000 
     10 O1A       109.0850  153.2430  203.9410 O.co2     1 ATP801      0.0000 
     11 O2A       108.5120  152.0690  206.2030 O.co2     1 ATP801      0.0000 
     12 O3A       110.0660  151.1060  204.5640 O.3       1 ATP801      0.0000 
     13 O5'       107.4940  151.2740  204.0500 O.3       1 ATP801      0.0000 
     14 C5'       106.4060  152.0710  203.5840 C.3       1 ATP801      0.0000 
     15 C4'       105.0580  151.7820  204.2580 C.3       1 ATP801      0.0000 
     16 O4'       104.6670  152.8740  205.1190 O.3       1 ATP801      0.0000 
     17 C3'       103.8960  151.6150  203.2750 C.3       1 ATP801      0.0000 
     18 O3'       103.2500  150.3530  203.3620 O.3       1 ATP801      0.0000 
     19 C2'       102.9640  152.7310  203.6590 C.3       1 ATP801      0.0000 
     20 O2'       101.5800  152.4550  203.4940 O.3       1 ATP801      0.0000 
     21 C1'       103.2390  152.9580  205.1210 C.3       1 ATP801      0.0000 
     22 N9        102.6330  154.2310  205.6060 N.pl3     1 ATP801      0.0000 
     23 C8        102.1250  155.2410  204.8700 C.2       1 ATP801      0.0000 
     24 N7        101.6520  156.2400  205.6260 N.2       1 ATP801      0.0000 
     25 C5        101.8430  155.8830  206.8840 C.ar      1 ATP801      0.0000 
     26 C6        101.5570  156.5110  208.1710 C.ar      1 ATP801      0.0000 
     27 N6        100.9710  157.7120  208.2340 N.pl3     1 ATP801      0.0000 
     28 N1        101.8940  155.8550  209.2780 N.ar      1 ATP801      0.0000 
     29 C2        102.4730  154.6590  209.2190 C.ar      1 ATP801      0.0000 
     30 N3        102.7680  154.0120  208.0740 N.ar      1 ATP801      0.0000 
     31 C4        102.4850  154.5700  206.8810 C.ar      1 ATP801      0.0000 
     32 H5'1      106.3600  151.9600  202.5050 H         1 ATP801      0.0000 
     33 H5'2      106.6470  153.1140  203.7890 H         1 ATP801      0.0000 
     34 H4'       105.1550  150.8640  204.8470 H         1 ATP801      0.0000 
     35 H3'       104.1910  151.7810  202.2370 H         1 ATP801      0.0000 
     36 HO3'      102.5240  150.3560  202.7270 H         1 ATP801      0.0000 
     37 H2'       103.2910  153.5750  203.0540 H         1 ATP801      0.0000 
     38 HO2'      101.2840  152.8400  202.6600 H         1 ATP801      0.0000 
     39 H1'       102.8030  152.1240  205.6780 H         1 ATP801      0.0000 
     40 H8        102.0860  155.2900  203.8000 H         1 ATP801      0.0000 
     41 HN61      100.7280  158.1890  207.3930 H         1 ATP801      0.0000 
     42 HN62      100.7820  158.1260  209.1240 H         1 ATP801      0.0000 
     43 H2        102.7020  154.2070  210.1630 H         1 ATP801      0.0000 
@<TRIPOS>BOND
     1    1    2 ar   
     2    1    3 ar   
     3    1    4 ar   
     4    1    8 1    
     5    5    6 ar   
     6    5    7 ar   
     7    5    8 1    
     8    5   12 1    
     9    9   10 ar   
    10    9   11 ar   
    11    9   12 1    
    12    9   13 1    
    13   13   14 1    
    14   14   15 1    
    15   14   32 1    
    16   14   33 1    
    17   15   16 1    
    18   15   17 1    
    19   15   34 1    
    20   16   21 1    
    21   17   18 1    
    22   17   19 1    
    23   17   35 1    
    24   18   36 1    
    25   19   20 1    
    26   19   21 1    
    27   19   37 1    
    28   20   38 1    
    29   21   22 1    
    30   21   39 1    
    31   22   23 1    
    32   22   31 1    
    33   23   24 2    
    34   23   40 1    
    35   24   25 1    
    36   25   26 ar   
    37   25   31 ar   
    38   26   27 1    
    39   26   28 ar   
    40   27   41 1    
    41   27   42 1    
    42   28   29 ar   
    43   29   30 ar   
    44   29   43 1    
    45   30   31 ar   
@<TRIPOS>SUBSTRUCTURE
     1 ATP801      1 GROUP   
@<TRIPOS>SET
ATOM$ORANGE STATIC     ATOMS   COLORGROUP SYSTEM 
20 14 14 15 15 17 17 19 19 21 21 23 23 25 25 26 26 29 \
29 31 31 

