#    Name: 5nek_1_AZM
#    Modification time : Fri May 22 19:15:18 2020

@<TRIPOS>MOLECULE
5nek_1_AZM
   13    13     1     0     0
SMALL
NO_CHARGES


@<TRIPOS>ATOM
      1 C1         21.0880   16.0610  129.7520 C.2       1 AZM302      0.0000 
      2 C2         20.9240   18.1600  128.3960 C.2       1 AZM302      0.0000 
      3 C3         19.9900   20.2680  127.4960 C.2       1 AZM302      0.0000 
      4 C4         19.6860   21.2000  126.3320 C.3       1 AZM302      0.0000 
      5 N1         20.0400   14.2900  131.6340 N.pl3     1 AZM302      0.0000 
      6 N2         21.4890   18.4770  129.6580 N.2       1 AZM302      0.0000 
      7 N3         21.5940   17.1480  130.5130 N.2       1 AZM302      0.0000 
      8 N4         20.6360   19.0220  127.2890 N.am      1 AZM302      0.0000 
      9 O1         20.6370   13.3730  129.3560 O.2       1 AZM302      0.0000 
     10 O2         22.3680   13.9470  130.6250 O.2       1 AZM302      0.0000 
     11 O3         19.6840   20.5720  128.6360 O.2       1 AZM302      0.0000 
     12 S1         21.0270   14.3650  130.3320 S.o2      1 AZM302      0.0000 
     13 S2         20.6430   16.6320  128.3820 S.3       1 AZM302      0.0000 
@<TRIPOS>BOND
     1    1    7 2    
     2    1   12 1    
     3    1   13 1    
     4    2    6 2    
     5    2    8 1    
     6    2   13 1    
     7    3    4 1    
     8    3    8 am   
     9    3   11 2    
    10    5   12 1    
    11    6    7 1    
    12    9   12 2    
    13   10   12 2    
@<TRIPOS>SUBSTRUCTURE
     1 AZM302      1 GROUP   
@<TRIPOS>SET

