#    Name: 5nek_1_AZM_CAVITY_N1_6
#    Modification time : Fri May 22 19:15:19 2020

@<TRIPOS>MOLECULE
5nek_1_AZM_CAVITY_N1_6
   88     0     7     0     0
SMALL
NO_CHARGES


@<TRIPOS>ATOM
      1 OG         20.2600   12.0000  125.2800 O.3       1 SER1        0.0000 
      2 OG         20.9500   14.8900  126.8300 O.3       1 SER1        0.0000 
      3 OG         19.4900   15.0900  127.1000 O.3       1 SER1        0.0000 
      4 OG         21.3000   15.7200  128.0300 O.3       1 SER1        0.0000 
      5 OG         23.0900   15.1200  129.8100 O.3       1 SER1        0.0000 
      6 OG         21.6400   16.5500  129.2300 O.3       1 SER1        0.0000 
      7 O          20.9600   16.1200  125.9700 O.2       2 ALA2        0.0000 
      8 O          21.3100   16.9500  127.1700 O.2       2 ALA2        0.0000 
      9 O          21.6600   19.0200  127.5200 O.2       2 ALA2        0.0000 
     10 O          21.9700   16.1500  131.2900 O.2       2 ALA2        0.0000 
     11 N          20.8800   20.8800  130.2000 N.am      2 ALA2        0.0000 
     12 N          19.4200   21.0800  130.4700 N.am      2 ALA2        0.0000 
     13 OD1        19.8200   14.6900  129.1600 O.co2     3 ASP3        0.0000 
     14 OD1        19.8800   20.8500  124.8800 O.co2     3 ASP3        0.0000 
     15 OD1        21.6300   15.3200  130.0900 O.co2     3 ASP3        0.0000 
     16 OD1        21.6800   21.4800  125.8100 O.co2     3 ASP3        0.0000 
     17 OD1        21.6900   22.7100  124.9500 O.co2     3 ASP3        0.0000 
     18 OD1        20.1700   15.5200  130.3600 O.co2     3 ASP3        0.0000 
     19 OD1        20.2200   21.6800  126.0800 O.co2     3 ASP3        0.0000 
     20 OD1        20.2300   22.9200  125.2300 O.co2     3 ASP3        0.0000 
     21 OD1        20.5700   23.7500  126.4300 O.co2     3 ASP3        0.0000 
     22 NZ         18.8000   12.2000  125.5500 N.4       4 LYS4        0.0000 
     23 NZ         17.3300   11.1700  126.6800 N.4       4 LYS4        0.0000 
     24 NZ         19.1400   13.0300  126.7600 N.4       4 LYS4        0.0000 
     25 NZ         17.6800   13.2300  127.0300 N.4       4 LYS4        0.0000 
     26 NZ         19.4800   13.8600  127.9600 N.4       4 LYS4        0.0000 
     27 NZ         23.1200   18.8100  127.2400 N.4       4 LYS4        0.0000 
     28 NZ         23.1300   20.0400  126.3900 N.4       4 LYS4        0.0000 
     29 NZ         23.1400   21.2800  125.5300 N.4       4 LYS4        0.0000 
     30 NZ         24.9500   23.1400  125.6100 N.4       4 LYS4        0.0000 
     31 NZ         23.4600   19.6400  128.4500 N.4       4 LYS4        0.0000 
     32 NZ         23.4800   22.1100  126.7400 N.4       4 LYS4        0.0000 
     33 NZ         22.0100   21.0800  127.8700 N.4       4 LYS4        0.0000 
     34 NZ         22.0200   22.3100  127.0100 N.4       4 LYS4        0.0000 
     35 NZ         23.8100   21.7100  128.7900 N.4       4 LYS4        0.0000 
     36 NZ         23.8200   22.9400  127.9400 N.4       4 LYS4        0.0000 
     37 CZ         18.8100   13.4300  124.7000 C.ar      5 PHE5        0.0000 
     38 CZ         20.6000   12.8300  126.4800 C.ar      5 PHE5        0.0000 
     39 CZ         20.6100   14.0600  125.6300 C.ar      5 PHE5        0.0000 
     40 CZ         19.1500   14.2600  125.9000 C.ar      5 PHE5        0.0000 
     41 CZ         19.1600   15.4900  125.0500 C.ar      5 PHE5        0.0000 
     42 CZ         16.2200   13.4300  127.3000 C.ar      5 PHE5        0.0000 
     43 CZ         19.5000   16.3200  126.2500 C.ar      5 PHE5        0.0000 
     44 CZ         18.0200   14.0600  128.2300 C.ar      5 PHE5        0.0000 
     45 CZ         18.0300   15.2900  127.3800 C.ar      5 PHE5        0.0000 
     46 CZ         21.3400   20.6500  124.6100 C.ar      5 PHE5        0.0000 
     47 CZ         19.8300   15.9200  128.3000 C.ar      5 PHE5        0.0000 
     48 CZ         19.8500   17.1600  127.4500 C.ar      5 PHE5        0.0000 
     49 CZ         19.8600   18.3900  126.5900 C.ar      5 PHE5        0.0000 
     50 CZ         18.3800   17.3600  127.7200 C.ar      5 PHE5        0.0000 
     51 CZ         21.6700   20.2500  126.6600 C.ar      5 PHE5        0.0000 
     52 CZ         20.1800   16.7500  129.5000 C.ar      5 PHE5        0.0000 
     53 CZ         20.1900   17.9900  128.6500 C.ar      5 PHE5        0.0000 
     54 CZ         20.2100   20.4500  126.9400 C.ar      5 PHE5        0.0000 
     55 CZ         18.7400   19.4200  128.0700 C.ar      5 PHE5        0.0000 
     56 CZ         21.9800   17.3800  130.4300 C.ar      5 PHE5        0.0000 
     57 CZ         21.9900   18.6100  129.5800 C.ar      5 PHE5        0.0000 
     58 CZ         19.0800   20.2500  129.2700 C.ar      5 PHE5        0.0000 
     59 CZ         23.8000   20.4700  129.6500 C.ar      5 PHE5        0.0000 
     60 CZ         22.3300   19.4400  130.7800 C.ar      5 PHE5        0.0000 
     61 CZ         22.3400   20.6800  129.9200 C.ar      5 PHE5        0.0000 
     62 CZ         24.1500   22.5400  129.9900 C.ar      5 PHE5        0.0000 
     63 CZ         22.6800   21.5100  131.1200 C.ar      5 PHE5        0.0000 
     64 CZ         22.6900   22.7400  130.2700 C.ar      5 PHE5        0.0000 
     65 CA         20.2700   13.2300  124.4200 C.3       6 GLY6        0.0000 
     66 CA         23.1000   16.3500  128.9600 C.3       6 GLY6        0.0000 
     67 CA         23.1100   17.5800  128.1000 C.3       6 GLY6        0.0000 
     68 CA         23.1500   22.5100  124.6800 C.3       6 GLY6        0.0000 
     69 CA         23.4300   15.9500  131.0100 C.3       6 GLY6        0.0000 
     70 CA         23.4400   17.1800  130.1600 C.3       6 GLY6        0.0000 
     71 CA         23.4500   18.4100  129.3000 C.3       6 GLY6        0.0000 
     72 CA         23.4900   23.3400  125.8800 C.3       6 GLY6        0.0000 
     73 CA         22.0300   23.5400  126.1600 C.3       6 GLY6        0.0000 
     74 CA         20.5300   18.8200  129.8500 C.3       6 GLY6        0.0000 
     75 CA         20.5400   20.0500  129.0000 C.3       6 GLY6        0.0000 
     76 CA         23.8300   24.1700  127.0800 C.3       6 GLY6        0.0000 
     77 CA         22.3700   24.3700  127.3600 C.3       6 GLY6        0.0000 
     78 CA         24.1600   23.7700  129.1400 C.3       6 GLY6        0.0000 
     79 DU         17.6900   14.4600  126.1700 H         7 CUB7        0.0000 
     80 DU         21.6500   17.7800  128.3700 H         7 CUB7        0.0000 
     81 DU         20.2000   19.2200  127.7900 H         7 CUB7        0.0000 
     82 DU         22.0000   19.8500  128.7200 H         7 CUB7        0.0000 
     83 DU         20.5500   21.2800  128.1400 H         7 CUB7        0.0000 
     84 DU         20.5600   22.5100  127.2900 H         7 CUB7        0.0000 
     85 DU         22.3500   21.9100  129.0700 H         7 CUB7        0.0000 
     86 DU         22.3600   23.1400  128.2100 H         7 CUB7        0.0000 
     87 DU         20.8900   22.1100  129.3400 H         7 CUB7        0.0000 
     88 DU         20.9000   23.3400  128.4900 H         7 CUB7        0.0000 
@<TRIPOS>BOND
@<TRIPOS>SUBSTRUCTURE
     1 SER1        1 GROUP   
     2 ALA2        7 GROUP   
     3 ASP3       13 GROUP   
     4 LYS4       22 GROUP   
     5 PHE5       37 GROUP   
     6 GLY6       65 GROUP   
     7 CUB7       79 GROUP   
@<TRIPOS>SET

