#    Name: 5nek_1_AZM_CAVITY_N1_4
#    Modification time : Fri May 22 19:15:19 2020

@<TRIPOS>MOLECULE
5nek_1_AZM_CAVITY_N1_4
   71     0     7     0     0
SMALL
NO_CHARGES


@<TRIPOS>ATOM
      1 OG         20.9500   14.8900  126.8300 O.3       1 SER1        0.0000 
      2 OG         19.4900   15.0900  127.1000 O.3       1 SER1        0.0000 
      3 OG         21.3000   15.7200  128.0300 O.3       1 SER1        0.0000 
      4 OG         23.0900   15.1200  129.8100 O.3       1 SER1        0.0000 
      5 OG         21.6400   16.5500  129.2300 O.3       1 SER1        0.0000 
      6 O          20.9600   16.1200  125.9700 O.2       2 ALA2        0.0000 
      7 O          21.3100   16.9500  127.1700 O.2       2 ALA2        0.0000 
      8 O          21.6600   19.0200  127.5200 O.2       2 ALA2        0.0000 
      9 O          21.9700   16.1500  131.2900 O.2       2 ALA2        0.0000 
     10 N          20.8800   20.8800  130.2000 N.am      2 ALA2        0.0000 
     11 N          19.4200   21.0800  130.4700 N.am      2 ALA2        0.0000 
     12 OD1        19.8200   14.6900  129.1600 O.co2     3 ASP3        0.0000 
     13 OD1        19.8800   20.8500  124.8800 O.co2     3 ASP3        0.0000 
     14 OD1        21.6300   15.3200  130.0900 O.co2     3 ASP3        0.0000 
     15 OD1        21.6800   21.4800  125.8100 O.co2     3 ASP3        0.0000 
     16 OD1        21.6900   22.7100  124.9500 O.co2     3 ASP3        0.0000 
     17 OD1        20.1700   15.5200  130.3600 O.co2     3 ASP3        0.0000 
     18 OD1        20.2200   21.6800  126.0800 O.co2     3 ASP3        0.0000 
     19 OD1        20.2300   22.9200  125.2300 O.co2     3 ASP3        0.0000 
     20 OD1        20.5700   23.7500  126.4300 O.co2     3 ASP3        0.0000 
     21 NZ         19.1400   13.0300  126.7600 N.4       4 LYS4        0.0000 
     22 NZ         17.6800   13.2300  127.0300 N.4       4 LYS4        0.0000 
     23 NZ         19.4800   13.8600  127.9600 N.4       4 LYS4        0.0000 
     24 NZ         23.1200   18.8100  127.2400 N.4       4 LYS4        0.0000 
     25 NZ         23.1300   20.0400  126.3900 N.4       4 LYS4        0.0000 
     26 NZ         23.1400   21.2800  125.5300 N.4       4 LYS4        0.0000 
     27 NZ         23.4600   19.6400  128.4500 N.4       4 LYS4        0.0000 
     28 NZ         23.4800   22.1100  126.7400 N.4       4 LYS4        0.0000 
     29 NZ         22.0100   21.0800  127.8700 N.4       4 LYS4        0.0000 
     30 NZ         22.0200   22.3100  127.0100 N.4       4 LYS4        0.0000 
     31 CZ         20.6000   12.8300  126.4800 C.ar      5 PHE5        0.0000 
     32 CZ         20.6100   14.0600  125.6300 C.ar      5 PHE5        0.0000 
     33 CZ         19.1500   14.2600  125.9000 C.ar      5 PHE5        0.0000 
     34 CZ         19.1600   15.4900  125.0500 C.ar      5 PHE5        0.0000 
     35 CZ         19.5000   16.3200  126.2500 C.ar      5 PHE5        0.0000 
     36 CZ         18.0200   14.0600  128.2300 C.ar      5 PHE5        0.0000 
     37 CZ         18.0300   15.2900  127.3800 C.ar      5 PHE5        0.0000 
     38 CZ         21.3400   20.6500  124.6100 C.ar      5 PHE5        0.0000 
     39 CZ         19.8300   15.9200  128.3000 C.ar      5 PHE5        0.0000 
     40 CZ         19.8500   17.1600  127.4500 C.ar      5 PHE5        0.0000 
     41 CZ         19.8600   18.3900  126.5900 C.ar      5 PHE5        0.0000 
     42 CZ         18.3800   17.3600  127.7200 C.ar      5 PHE5        0.0000 
     43 CZ         21.6700   20.2500  126.6600 C.ar      5 PHE5        0.0000 
     44 CZ         20.1800   16.7500  129.5000 C.ar      5 PHE5        0.0000 
     45 CZ         20.1900   17.9900  128.6500 C.ar      5 PHE5        0.0000 
     46 CZ         20.2100   20.4500  126.9400 C.ar      5 PHE5        0.0000 
     47 CZ         18.7400   19.4200  128.0700 C.ar      5 PHE5        0.0000 
     48 CZ         21.9800   17.3800  130.4300 C.ar      5 PHE5        0.0000 
     49 CZ         21.9900   18.6100  129.5800 C.ar      5 PHE5        0.0000 
     50 CZ         19.0800   20.2500  129.2700 C.ar      5 PHE5        0.0000 
     51 CZ         23.8000   20.4700  129.6500 C.ar      5 PHE5        0.0000 
     52 CZ         22.3300   19.4400  130.7800 C.ar      5 PHE5        0.0000 
     53 CZ         22.3400   20.6800  129.9200 C.ar      5 PHE5        0.0000 
     54 CZ         22.6800   21.5100  131.1200 C.ar      5 PHE5        0.0000 
     55 CA         23.1000   16.3500  128.9600 C.3       6 GLY6        0.0000 
     56 CA         23.1100   17.5800  128.1000 C.3       6 GLY6        0.0000 
     57 CA         23.4300   15.9500  131.0100 C.3       6 GLY6        0.0000 
     58 CA         23.4400   17.1800  130.1600 C.3       6 GLY6        0.0000 
     59 CA         23.4500   18.4100  129.3000 C.3       6 GLY6        0.0000 
     60 CA         22.0300   23.5400  126.1600 C.3       6 GLY6        0.0000 
     61 CA         20.5300   18.8200  129.8500 C.3       6 GLY6        0.0000 
     62 CA         20.5400   20.0500  129.0000 C.3       6 GLY6        0.0000 
     63 DU         21.6500   17.7800  128.3700 H         7 CUB7        0.0000 
     64 DU         20.2000   19.2200  127.7900 H         7 CUB7        0.0000 
     65 DU         22.0000   19.8500  128.7200 H         7 CUB7        0.0000 
     66 DU         20.5500   21.2800  128.1400 H         7 CUB7        0.0000 
     67 DU         20.5600   22.5100  127.2900 H         7 CUB7        0.0000 
     68 DU         22.3500   21.9100  129.0700 H         7 CUB7        0.0000 
     69 DU         22.3600   23.1400  128.2100 H         7 CUB7        0.0000 
     70 DU         20.8900   22.1100  129.3400 H         7 CUB7        0.0000 
     71 DU         20.9000   23.3400  128.4900 H         7 CUB7        0.0000 
@<TRIPOS>BOND
@<TRIPOS>SUBSTRUCTURE
     1 SER1        1 GROUP   
     2 ALA2        6 GROUP   
     3 ASP3       12 GROUP   
     4 LYS4       21 GROUP   
     5 PHE5       31 GROUP   
     6 GLY6       55 GROUP   
     7 CUB7       63 GROUP   
@<TRIPOS>SET

