#    Name: 6ijd_2_QUE
#    Modification time : Fri May 22 19:28:51 2020

@<TRIPOS>MOLECULE
6ijd_2_QUE
   22    24     1     0     0
SMALL
NO_CHARGES


@<TRIPOS>ATOM
      1 C1         11.3500   77.4780   46.4140 C.ar      1 QUE900      0.0000 
      2 C2         10.3120   77.7290   47.3120 C.ar      1 QUE900      0.0000 
      3 C3          9.1470   78.4240   46.9100 C.ar      1 QUE900      0.0000 
      4 C4          9.0620   78.8510   45.6210 C.ar      1 QUE900      0.0000 
      5 C5         10.1310   78.6010   44.6940 C.ar      1 QUE900      0.0000 
      6 C6         11.2590   77.9170   45.1010 C.ar      1 QUE900      0.0000 
      7 C9          8.0320   78.6880   47.8330 C.2       1 QUE900      0.0000 
      8 C10         6.9020   79.4030   47.3220 C.2       1 QUE900      0.0000 
      9 C11         6.8910   79.7570   45.9710 C.2       1 QUE900      0.0000 
     10 C14         5.8690   80.6060   45.2680 C.ar      1 QUE900      0.0000 
     11 C15         5.6500   81.8720   45.8720 C.ar      1 QUE900      0.0000 
     12 C16         4.7980   82.8290   45.3090 C.ar      1 QUE900      0.0000 
     13 C17         4.2000   82.5140   44.0790 C.ar      1 QUE900      0.0000 
     14 C18         4.4680   81.2710   43.4520 C.ar      1 QUE900      0.0000 
     15 C19         5.3180   80.3160   44.0240 C.ar      1 QUE900      0.0000 
     16 O12         7.9410   79.5140   45.2060 O.3       1 QUE900      0.0000 
     17 O13         8.0740   78.2630   49.1700 O.2       1 QUE900      0.0000 
     18 O23         3.8700   80.9730   42.2200 O.3       1 QUE900      0.0000 
     19 O24         3.3340   83.4630   43.4810 O.3       1 QUE900      0.0000 
     20 O27         5.8260   79.7040   48.1590 O.co2     1 QUE900      0.0000 
     21 O29        12.2940   77.6840   44.1840 O.3       1 QUE900      0.0000 
     22 O30        10.3810   77.3030   48.6410 O.co2     1 QUE900      0.0000 
@<TRIPOS>BOND
     1    1    2 ar   
     2    1    6 ar   
     3    2    3 ar   
     4    2   22 ar   
     5    3    4 ar   
     6    3    7 1    
     7    4    5 ar   
     8    4   16 1    
     9    5    6 ar   
    10    6   21 1    
    11    7    8 1    
    12    7   17 2    
    13    8    9 2    
    14    8   20 ar   
    15    9   10 1    
    16    9   16 1    
    17   10   11 ar   
    18   10   15 ar   
    19   11   12 ar   
    20   12   13 ar   
    21   13   14 ar   
    22   13   19 1    
    23   14   15 ar   
    24   14   18 1    
@<TRIPOS>SUBSTRUCTURE
     1 QUE900      1 GROUP   
@<TRIPOS>SET

