#    Name: 6ijd_1_QUE
#    Modification time : Fri May 22 19:28:44 2020

@<TRIPOS>MOLECULE
6ijd_1_QUE
   22    24     1     0     0
SMALL
NO_CHARGES


@<TRIPOS>ATOM
      1 C1         28.8540   77.5350    0.8470 C.ar      1 QUE900      0.0000 
      2 C2         29.8600   77.6980   -0.1090 C.ar      1 QUE900      0.0000 
      3 C3         31.0620   78.3560    0.2020 C.ar      1 QUE900      0.0000 
      4 C4         31.2110   78.8280    1.4590 C.ar      1 QUE900      0.0000 
      5 C5         30.1930   78.6720    2.4570 C.ar      1 QUE900      0.0000 
      6 C6         28.9990   78.0210    2.1540 C.ar      1 QUE900      0.0000 
      7 C9         32.1480   78.5270   -0.7770 C.2       1 QUE900      0.0000 
      8 C10        33.3380   79.2050   -0.3670 C.2       1 QUE900      0.0000 
      9 C11        33.4200   79.6220    0.9690 C.2       1 QUE900      0.0000 
     10 C14        34.5100   80.4640    1.5750 C.ar      1 QUE900      0.0000 
     11 C15        34.7690   81.6520    0.8640 C.ar      1 QUE900      0.0000 
     12 C16        35.6750   82.5990    1.3270 C.ar      1 QUE900      0.0000 
     13 C17        36.3110   82.3700    2.5630 C.ar      1 QUE900      0.0000 
     14 C18        35.9880   81.1860    3.2930 C.ar      1 QUE900      0.0000 
     15 C19        35.0770   80.2390    2.8170 C.ar      1 QUE900      0.0000 
     16 O12        32.3720   79.4570    1.7810 O.3       1 QUE900      0.0000 
     17 O13        32.0550   78.0510   -2.0870 O.2       1 QUE900      0.0000 
     18 O23        36.5950   80.9330    4.5360 O.3       1 QUE900      0.0000 
     19 O24        37.2580   83.3430    3.0390 O.3       1 QUE900      0.0000 
     20 O27        34.3790   79.4100   -1.2820 O.co2     1 QUE900      0.0000 
     21 O29        27.9620   77.8720    3.1310 O.3       1 QUE900      0.0000 
     22 O30        29.7180   77.2120   -1.4120 O.co2     1 QUE900      0.0000 
@<TRIPOS>BOND
     1    1    2 ar   
     2    1    6 ar   
     3    2    3 ar   
     4    2   22 ar   
     5    3    4 ar   
     6    3    7 1    
     7    4    5 ar   
     8    4   16 1    
     9    5    6 ar   
    10    6   21 1    
    11    7    8 1    
    12    7   17 2    
    13    8    9 2    
    14    8   20 ar   
    15    9   10 1    
    16    9   16 1    
    17   10   11 ar   
    18   10   15 ar   
    19   11   12 ar   
    20   12   13 ar   
    21   13   14 ar   
    22   13   19 1    
    23   14   15 ar   
    24   14   18 1    
@<TRIPOS>SUBSTRUCTURE
     1 QUE900      1 GROUP   
@<TRIPOS>SET

