#    Name: 6b1l_1_MYA
#    Modification time : Fri May 22 19:32:28 2020

@<TRIPOS>MOLECULE
6b1l_1_MYA
   63    65     1     0     0
SMALL
NO_CHARGES


@<TRIPOS>ATOM
      1 S1        -20.2830   21.3680  -46.6720 S.3       1 MYA501      0.0000 
      2 C2        -19.4760   22.2840  -45.4010 C.3       1 MYA501      0.0000 
      3 C3        -20.0860   23.6770  -45.3010 C.3       1 MYA501      0.0000 
      4 N4        -19.2830   24.5530  -44.4700 N.am      1 MYA501      0.0000 
      5 C5        -19.8060   25.2080  -43.4370 C.2       1 MYA501      0.0000 
      6 O5        -21.0080   25.2840  -43.2340 O.2       1 MYA501      0.0000 
      7 C6        -18.8230   25.8600  -42.4960 C.3       1 MYA501      0.0000 
      8 C7        -19.4810   27.0520  -41.8100 C.3       1 MYA501      0.0000 
      9 N8        -20.0140   28.0070  -42.7650 N.am      1 MYA501      0.0000 
     10 C9        -19.2330   28.7210  -43.5750 C.2       1 MYA501      0.0000 
     11 O9        -18.0130   28.6810  -43.5290 O.2       1 MYA501      0.0000 
     12 C10       -19.9260   29.6250  -44.5580 C.3       1 MYA501      0.0000 
     13 O10       -21.2490   29.9370  -44.0990 O.3       1 MYA501      0.0000 
     14 C11       -20.0240   29.0230  -45.9570 C.3       1 MYA501      0.0000 
     15 C12       -21.0370   29.8850  -46.6880 C.3       1 MYA501      0.0000 
     16 C13       -20.5120   27.5800  -45.9070 C.3       1 MYA501      0.0000 
     17 C14       -18.6730   29.0820  -46.6530 C.3       1 MYA501      0.0000 
     18 N1A       -22.2840   24.5010  -49.9460 N.ar      1 MYA501      0.0000 
     19 O1A       -20.0570   33.6860  -49.2590 O.co2     1 MYA501      0.0000 
     20 P1A       -21.5660   33.7070  -49.1800 P.3       1 MYA501      0.0000 
     21 C1X       -24.1050   29.2860  -50.9830 C.3       1 MYA501      0.0000 
     22 C2A       -22.4180   25.1490  -51.1170 C.ar      1 MYA501      0.0000 
     23 O2A       -22.3030   35.0220  -49.0650 O.co2     1 MYA501      0.0000 
     24 P2A       -21.1700   32.5050  -46.6490 P.3       1 MYA501      0.0000 
     25 C2M       -19.0110   21.3400  -47.7460 C.2       1 MYA501      0.0000 
     26 O2M       -17.8910   21.6220  -47.3500 O.2       1 MYA501      0.0000 
     27 C2X       -25.4790   29.9200  -50.8490 C.3       1 MYA501      0.0000 
     28 O2X       -26.4920   29.1060  -51.4440 O.3       1 MYA501      0.0000 
     29 N3A       -22.9140   26.3940  -51.2250 N.ar      1 MYA501      0.0000 
     30 O3A       -22.0360   32.7390  -47.9850 O.3       1 MYA501      0.0000 
     31 C3M       -19.2410   20.9980  -49.1990 C.3       1 MYA501      0.0000 
     32 C3X       -25.3060   31.2070  -51.6210 C.3       1 MYA501      0.0000 
     33 O3X       -25.5700   30.9090  -52.9830 O.3       1 MYA501      0.0000 
     34 P3X       -26.8840   31.4280  -53.7480 P.3       1 MYA501      0.0000 
     35 C4A       -23.3090   27.0830  -50.1280 C.ar      1 MYA501      0.0000 
     36 O4A       -22.1230   32.2240  -45.5130 O.co2     1 MYA501      0.0000 
     37 C4M       -19.4120   22.2950  -49.9850 C.3       1 MYA501      0.0000 
     38 C4X       -23.8250   31.5390  -51.5020 C.3       1 MYA501      0.0000 
     39 O4X       -23.1880   30.3830  -50.9420 O.3       1 MYA501      0.0000 
     40 C5A       -23.1900   26.4450  -48.8090 C.ar      1 MYA501      0.0000 
     41 O5A       -20.1160   33.5750  -46.4940 O.co2     1 MYA501      0.0000 
     42 C5M       -19.5360   22.0380  -51.4850 C.3       1 MYA501      0.0000 
     43 C5X       -23.5580   32.7700  -50.6410 C.3       1 MYA501      0.0000 
     44 O5X       -22.1500   32.9070  -50.4490 O.3       1 MYA501      0.0000 
     45 C6A       -22.6380   25.0700  -48.7720 C.ar      1 MYA501      0.0000 
     46 N6A       -22.4930   24.4030  -47.6010 N.pl3     1 MYA501      0.0000 
     47 O6A       -20.4230   31.1270  -47.0240 O.3       1 MYA501      0.0000 
     48 C6M       -19.4660   23.3510  -52.2610 C.3       1 MYA501      0.0000 
     49 N7A       -23.6480   27.3370  -47.9110 N.2       1 MYA501      0.0000 
     50 O7A       -26.8010   30.7120  -55.0750 O.co2     1 MYA501      0.0000 
     51 C7M       -19.9880   23.2020  -53.6860 C.3       1 MYA501      0.0000 
     52 C8A       -24.0230   28.4500  -48.5950 C.2       1 MYA501      0.0000 
     53 O8A       -28.0310   30.9890  -52.8710 O.co2     1 MYA501      0.0000 
     54 C8M       -18.9910   22.4820  -54.5860 C.3       1 MYA501      0.0000 
     55 N9A       -23.8260   28.2930  -49.9170 N.pl3     1 MYA501      0.0000 
     56 O9A       -26.6790   32.9220  -53.8240 O.co2     1 MYA501      0.0000 
     57 C9M       -19.5860   22.2270  -55.9690 C.3       1 MYA501      0.0000 
     58 CAM       -18.6400   21.4160  -56.8510 C.3       1 MYA501      0.0000 
     59 CBM       -17.4670   22.2570  -57.3450 C.3       1 MYA501      0.0000 
     60 CCM       -16.4730   21.4210  -58.1470 C.3       1 MYA501      0.0000 
     61 CDM       -16.9740   21.1260  -59.5580 C.3       1 MYA501      0.0000 
     62 CEM       -15.9970   20.2210  -60.3040 C.3       1 MYA501      0.0000 
     63 CFM       -16.4670   19.9210  -61.7120 C.3       1 MYA501      0.0000 
@<TRIPOS>BOND
     1    1    2 1    
     2    1   25 1    
     3    2    3 1    
     4    3    4 1    
     5    4    5 am   
     6    5    6 2    
     7    5    7 1    
     8    7    8 1    
     9    8    9 1    
    10    9   10 am   
    11   10   11 2    
    12   10   12 1    
    13   12   13 1    
    14   12   14 1    
    15   14   15 1    
    16   14   16 1    
    17   14   17 1    
    18   15   47 1    
    19   18   22 ar   
    20   18   45 ar   
    21   19   20 ar   
    22   20   23 ar   
    23   20   30 1    
    24   20   44 1    
    25   21   27 1    
    26   21   39 1    
    27   21   55 1    
    28   22   29 ar   
    29   24   30 1    
    30   24   36 ar   
    31   24   41 ar   
    32   24   47 1    
    33   25   26 2    
    34   25   31 1    
    35   27   28 1    
    36   27   32 1    
    37   29   35 ar   
    38   31   37 1    
    39   32   33 1    
    40   32   38 1    
    41   33   34 1    
    42   34   50 ar   
    43   34   53 ar   
    44   34   56 ar   
    45   35   40 ar   
    46   35   55 1    
    47   37   42 1    
    48   38   39 1    
    49   38   43 1    
    50   40   45 ar   
    51   40   49 1    
    52   42   48 1    
    53   43   44 1    
    54   45   46 1    
    55   48   51 1    
    56   49   52 2    
    57   51   54 1    
    58   52   55 1    
    59   54   57 1    
    60   57   58 1    
    61   58   59 1    
    62   59   60 1    
    63   60   61 1    
    64   61   62 1    
    65   62   63 1    
@<TRIPOS>SUBSTRUCTURE
     1 MYA501      1 GROUP   
@<TRIPOS>SET

