#    Name: 6qex_17_TA1
#    Modification time : Fri May 22 19:27:45 2020

@<TRIPOS>MOLECULE
6qex_17_TA1
   62    68     1     0     0
SMALL
NO_CHARGES


@<TRIPOS>ATOM
      1 O01       175.1260  165.9160  159.6780 O.3       1 TA11320     0.0000 
      2 C01       174.7980  167.1200  160.3850 C.3       1 TA11320     0.0000 
      3 C02       173.5010  167.6750  159.7280 C.3       1 TA11320     0.0000 
      4 O02       172.9850  166.5330  158.8630 O.3       1 TA11320     0.0000 
      5 C03       172.9590  166.6970  157.6260 C.2       1 TA11320     0.0000 
      6 O03       173.2530  167.8070  157.1290 O.2       1 TA11320     0.0000 
      7 C04       172.5930  165.5940  156.7340 C.ar      1 TA11320     0.0000 
      8 C05       172.7210  165.7720  155.3610 C.ar      1 TA11320     0.0000 
      9 C06       172.3810  164.7440  154.5120 C.ar      1 TA11320     0.0000 
     10 C07       171.9210  163.5540  155.0330 C.ar      1 TA11320     0.0000 
     11 C08       171.7840  163.3780  156.3980 C.ar      1 TA11320     0.0000 
     12 C09       172.1220  164.3940  157.2610 C.ar      1 TA11320     0.0000 
     13 C10       172.5720  168.5040  160.6520 C.3       1 TA11320     0.0000 
     14 C11       171.1910  168.0290  161.0460 C.3       1 TA11320     0.0000 
     15 O04       171.1440  167.3640  162.4040 O.3       1 TA11320     0.0000 
     16 C12       170.9630  167.9370  163.5080 C.2       1 TA11320     0.0000 
     17 O05       171.4400  169.0700  163.7460 O.2       1 TA11320     0.0000 
     18 C13       170.1600  167.2470  164.5840 C.3       1 TA11320     0.0000 
     19 C14       170.3350  167.2340  160.0640 C.3       1 TA11320     0.0000 
     20 O06       169.2950  168.2040  160.0350 O.3       1 TA11320     0.0000 
     21 C15       170.0140  169.0000  160.9710 C.3       1 TA11320     0.0000 
     22 C16       170.3160  170.3660  160.3720 C.3       1 TA11320     0.0000 
     23 C17       171.6090  170.8570  160.9950 C.3       1 TA11320     0.0000 
     24 O07       171.8950  172.2100  160.6670 O.3       1 TA11320     0.0000 
     25 C18       172.7960  169.9760  160.5980 C.3       1 TA11320     0.0000 
     26 C19       172.9250  170.4370  159.1470 C.3       1 TA11320     0.0000 
     27 C20       173.9270  170.4670  161.4880 C.2       1 TA11320     0.0000 
     28 O08       173.6180  170.8950  162.5960 O.2       1 TA11320     0.0000 
     29 C21       175.4280  170.4780  161.1960 C.3       1 TA11320     0.0000 
     30 O09       175.8030  171.4740  160.1370 O.3       1 TA11320     0.0000 
     31 C22       175.4420  172.6720  160.2620 C.2       1 TA11320     0.0000 
     32 O10       174.7150  173.2160  159.4030 O.2       1 TA11320     0.0000 
     33 C23       175.8750  173.4570  161.4720 C.3       1 TA11320     0.0000 
     34 C24       175.9520  169.0510  161.3240 C.2       1 TA11320     0.0000 
     35 C25       175.9000  168.6010  162.6010 C.2       1 TA11320     0.0000 
     36 C26       175.2910  167.2520  162.9610 C.3       1 TA11320     0.0000 
     37 O11       174.4450  167.2560  164.2190 O.3       1 TA11320     0.0000 
     38 C27       174.4280  166.2780  165.0100 C.2       1 TA11320     0.0000 
     39 O12       175.3170  166.1950  165.8790 O.2       1 TA11320     0.0000 
     40 C28       173.3260  165.2330  164.9520 C.3       1 TA11320     0.0000 
     41 O13       172.8800  164.9830  166.2860 O.3       1 TA11320     0.0000 
     42 C29       173.6800  163.8740  164.3080 C.3       1 TA11320     0.0000 
     43 N01       173.2870  163.8060  162.8940 N.am      1 TA11320     0.0000 
     44 C30       171.9990  163.7240  162.5240 C.2       1 TA11320     0.0000 
     45 O14       171.5740  164.4860  161.6830 O.2       1 TA11320     0.0000 
     46 C31       171.1140  162.7100  163.1350 C.ar      1 TA11320     0.0000 
     47 C32       171.4200  161.3510  163.0300 C.ar      1 TA11320     0.0000 
     48 C33       170.5910  160.4110  163.6060 C.ar      1 TA11320     0.0000 
     49 C34       169.4560  160.8180  164.2810 C.ar      1 TA11320     0.0000 
     50 C35       169.1420  162.1590  164.3890 C.ar      1 TA11320     0.0000 
     51 C36       169.9660  163.1070  163.8220 C.ar      1 TA11320     0.0000 
     52 C37       175.1300  163.4890  164.3710 C.ar      1 TA11320     0.0000 
     53 C38       175.6430  162.8750  165.4980 C.ar      1 TA11320     0.0000 
     54 C39       176.9680  162.4850  165.5140 C.ar      1 TA11320     0.0000 
     55 C40       177.7670  162.7310  164.4140 C.ar      1 TA11320     0.0000 
     56 C41       177.2470  163.3460  163.2930 C.ar      1 TA11320     0.0000 
     57 C42       175.9240  163.7110  163.2650 C.ar      1 TA11320     0.0000 
     58 C43       174.5060  166.6700  161.7940 C.3       1 TA11320     0.0000 
     59 C44       176.5040  169.4130  163.7340 C.3       1 TA11320     0.0000 
     60 C45       176.0180  168.0160  160.2260 C.3       1 TA11320     0.0000 
     61 C46       177.3490  167.2400  160.0610 C.3       1 TA11320     0.0000 
     62 C47       176.0360  168.4880  158.7870 C.3       1 TA11320     0.0000 
@<TRIPOS>BOND
     1    1    2 1    
     2    2    3 1    
     3    2   58 1    
     4    2   60 1    
     5    3    4 1    
     6    3   13 1    
     7    4    5 1    
     8    5    6 2    
     9    5    7 1    
    10    7    8 ar   
    11    7   12 ar   
    12    8    9 ar   
    13    9   10 ar   
    14   10   11 ar   
    15   11   12 ar   
    16   13   14 1    
    17   13   25 1    
    18   14   15 1    
    19   14   19 1    
    20   14   21 1    
    21   15   16 1    
    22   16   17 2    
    23   16   18 1    
    24   19   20 1    
    25   20   21 1    
    26   21   22 1    
    27   22   23 1    
    28   23   24 1    
    29   23   25 1    
    30   25   26 1    
    31   25   27 1    
    32   27   28 2    
    33   27   29 1    
    34   29   30 1    
    35   29   34 1    
    36   30   31 1    
    37   31   32 2    
    38   31   33 1    
    39   34   35 2    
    40   34   60 1    
    41   35   36 1    
    42   35   59 1    
    43   36   37 1    
    44   36   58 1    
    45   37   38 1    
    46   38   39 2    
    47   38   40 1    
    48   40   41 1    
    49   40   42 1    
    50   42   43 1    
    51   42   52 1    
    52   43   44 am   
    53   44   45 2    
    54   44   46 1    
    55   46   47 ar   
    56   46   51 ar   
    57   47   48 ar   
    58   48   49 ar   
    59   49   50 ar   
    60   50   51 ar   
    61   52   53 ar   
    62   52   57 ar   
    63   53   54 ar   
    64   54   55 ar   
    65   55   56 ar   
    66   56   57 ar   
    67   60   61 1    
    68   60   62 1    
@<TRIPOS>SUBSTRUCTURE
     1 TA11320     1 GROUP   
@<TRIPOS>SET

