#    Name: 5xww_1_NAP
#    Modification time : Fri May 22 19:16:57 2020

@<TRIPOS>MOLECULE
5xww_1_NAP
   48    52     1     0     1
SMALL
NO_CHARGES


@<TRIPOS>ATOM
      1 PA        -19.4660   17.5570  -18.2360 P.3       1 NAP501      0.0000 
      2 O1A       -20.3100   18.5310  -17.4460 O.co2     1 NAP501      0.0000 
      3 O2A       -19.7450   17.3280  -19.6900 O.co2     1 NAP501      0.0000 
      4 O5B       -17.9370   17.9710  -18.0140 O.3       1 NAP501      0.0000 
      5 C5B       -16.9680   17.5570  -18.9600 C.3       1 NAP501      0.0000 
      6 C4B       -15.9810   18.6840  -19.1520 C.3       1 NAP501      0.0000 
      7 O4B       -14.8720   18.2460  -19.9490 O.3       1 NAP501      0.0000 
      8 C3B       -16.6350   19.8540  -19.8820 C.3       1 NAP501      0.0000 
      9 O3B       -16.2550   21.0730  -19.1910 O.3       1 NAP501      0.0000 
     10 C2B       -16.0600   19.7900  -21.2940 C.3       1 NAP501      0.0000 
     11 O2B       -16.0610   21.0970  -21.8730 O.3       1 NAP501      0.0000 
     12 C1B       -14.6730   19.2300  -20.9820 C.3       1 NAP501      0.0000 
     13 N9A       -13.9800   18.6020  -22.1240 N.pl3     1 NAP501      0.0000 
     14 C8A       -14.4410   17.6060  -22.9040 C.2       1 NAP501      0.0000 
     15 N7A       -13.4810   17.2240  -23.7680 N.2       1 NAP501      0.0000 
     16 C5A       -12.3900   17.9740  -23.5320 C.ar      1 NAP501      0.0000 
     17 C6A       -11.0290   18.1050  -24.0990 C.ar      1 NAP501      0.0000 
     18 N6A       -10.6380   17.3750  -25.1670 N.pl3     1 NAP501      0.0000 
     19 N1A       -10.2170   19.0220  -23.5510 N.ar      1 NAP501      0.0000 
     20 C2A       -10.5770   19.7640  -22.4850 C.ar      1 NAP501      0.0000 
     21 N3A       -11.7980   19.7140  -21.9590 N.ar      1 NAP501      0.0000 
     22 C4A       -12.7260   18.8700  -22.4400 C.ar      1 NAP501      0.0000 
     23 O3        -19.4650   16.0950  -17.5410 O.3       1 NAP501      0.0000 
     24 PN        -19.2500   15.8010  -15.9720 P.3       1 NAP501      0.0000 
     25 O1N       -20.4470   14.9820  -15.5390 O.co2     1 NAP501      0.0000 
     26 O2N       -18.8510   17.0290  -15.2140 O.co2     1 NAP501      0.0000 
     27 O5D       -18.0130   14.7890  -15.9900 O.3       1 NAP501      0.0000 
     28 C5D       -16.7450   15.2230  -15.5100 C.3       1 NAP501      0.0000 
     29 C4D       -15.8280   14.0220  -15.4920 C.3       1 NAP501      0.0000 
     30 O4D       -16.4140   13.0560  -14.6240 O.3       1 NAP501      0.0000 
     31 C3D       -15.7110   13.3970  -16.8800 C.3       1 NAP501      0.0000 
     32 O3D       -14.3460   13.0700  -17.1020 O.3       1 NAP501      0.0000 
     33 C2D       -16.5890   12.1600  -16.8070 C.3       1 NAP501      0.0000 
     34 O2D       -16.1350   11.0630  -17.6070 O.3       1 NAP501      0.0000 
     35 C1D       -16.5550   11.8140  -15.3190 C.3       1 NAP501      0.0000 
     36 N1N       -17.7490   11.0840  -14.8940 N.pl3     1 NAP501      0.0000 
     37 C2N       -18.9140   11.7090  -14.6540 C.ar      1 NAP501      0.0000 
     38 C3N       -20.0010   11.0260  -14.0920 C.ar      1 NAP501      0.0000 
     39 C7N       -21.3230   11.7080  -13.8280 C.2       1 NAP501      0.0000 
     40 O7N       -22.1960   11.0940  -13.2420 O.2       1 NAP501      0.0000 
     41 N7N       -21.5300   12.9710  -14.2200 N.am      1 NAP501      0.0000 
     42 C4N       -19.9410    9.5360  -13.9070 C.ar      1 NAP501      0.0000 
     43 C5N       -18.6320    8.9890  -14.2110 C.ar      1 NAP501      0.0000 
     44 C6N       -17.6220    9.7630  -14.7540 C.ar      1 NAP501      0.0000 
     45 P2B       -15.8470   21.3900  -23.4600 P.3       1 NAP501      0.0000 
     46 O1X       -16.0650   22.8870  -23.5200 O.co2     1 NAP501      0.0000 
     47 O2X       -14.4620   20.8720  -23.7310 O.co2     1 NAP501      0.0000 
     48 O3X       -16.8800   20.6010  -24.1910 O.co2     1 NAP501      0.0000 
@<TRIPOS>BOND
     1    1    2 ar   
     2    1    3 ar   
     3    1    4 1    
     4    1   23 1    
     5    4    5 1    
     6    5    6 1    
     7    6    7 1    
     8    6    8 1    
     9    7   12 1    
    10    8    9 1    
    11    8   10 1    
    12   10   11 1    
    13   10   12 1    
    14   11   45 1    
    15   12   13 1    
    16   13   14 1    
    17   13   22 1    
    18   14   15 2    
    19   15   16 1    
    20   16   17 ar   
    21   16   22 ar   
    22   17   18 1    
    23   17   19 ar   
    24   19   20 ar   
    25   20   21 ar   
    26   21   22 ar   
    27   23   24 1    
    28   24   25 ar   
    29   24   26 ar   
    30   24   27 1    
    31   27   28 1    
    32   28   29 1    
    33   29   30 1    
    34   29   31 1    
    35   30   35 1    
    36   31   32 1    
    37   31   33 1    
    38   33   34 1    
    39   33   35 1    
    40   35   36 1    
    41   36   37 ar   
    42   36   44 ar   
    43   37   38 ar   
    44   38   39 1    
    45   38   42 ar   
    46   39   40 2    
    47   39   41 am   
    48   42   43 ar   
    49   43   44 ar   
    50   45   46 ar   
    51   45   47 ar   
    52   45   48 ar   
@<TRIPOS>SUBSTRUCTURE
     1 NAP501      1 GROUP   
@<TRIPOS>SET
ATOM$ORANGE STATIC     ATOMS   COLORGROUP SYSTEM 
42 5 5 6 6 8 8 10 10 12 12 14 14 16 16 17 17 20 \
20 22 22 28 28 29 29 31 31 33 33 35 35 37 37 38 38 39 \
39 42 42 43 43 44 44 

