#    Name: 5xww_2_NAP
#    Modification time : Fri May 22 19:17:04 2020

@<TRIPOS>MOLECULE
5xww_2_NAP
   48    52     1     0     1
SMALL
NO_CHARGES


@<TRIPOS>ATOM
      1 PA        -22.1580  -31.9050   24.4830 P.3       1 NAP501      0.0000 
      2 O1A       -23.0190  -32.8230   23.6390 O.co2     1 NAP501      0.0000 
      3 O2A       -22.4670  -31.6180   25.9030 O.co2     1 NAP501      0.0000 
      4 O5B       -20.6570  -32.4070   24.4080 O.3       1 NAP501      0.0000 
      5 C5B       -19.7210  -31.8580   25.3240 C.3       1 NAP501      0.0000 
      6 C4B       -18.6910  -32.9450   25.5570 C.3       1 NAP501      0.0000 
      7 O4B       -17.6290  -32.4690   26.3860 O.3       1 NAP501      0.0000 
      8 C3B       -19.3510  -34.1170   26.2600 C.3       1 NAP501      0.0000 
      9 O3B       -19.0090  -35.3170   25.5300 O.3       1 NAP501      0.0000 
     10 C2B       -18.7840  -34.0930   27.6740 C.3       1 NAP501      0.0000 
     11 O2B       -18.7490  -35.4050   28.2250 O.3       1 NAP501      0.0000 
     12 C1B       -17.4140  -33.4750   27.3790 C.3       1 NAP501      0.0000 
     13 N9A       -16.7560  -32.8520   28.5130 N.pl3     1 NAP501      0.0000 
     14 C8A       -17.2690  -31.9290   29.3420 C.2       1 NAP501      0.0000 
     15 N7A       -16.3130  -31.5020   30.1820 N.2       1 NAP501      0.0000 
     16 C5A       -15.2140  -32.2610   29.9720 C.ar      1 NAP501      0.0000 
     17 C6A       -13.8850  -32.4120   30.5880 C.ar      1 NAP501      0.0000 
     18 N6A       -13.4890  -31.6170   31.6090 N.pl3     1 NAP501      0.0000 
     19 N1A       -13.0420  -33.2890   30.0270 N.ar      1 NAP501      0.0000 
     20 C2A       -13.3640  -34.0500   28.9600 C.ar      1 NAP501      0.0000 
     21 N3A       -14.5880  -34.0120   28.4080 N.ar      1 NAP501      0.0000 
     22 C4A       -15.5080  -33.1250   28.8450 C.ar      1 NAP501      0.0000 
     23 O3        -22.0590  -30.4420   23.7840 O.3       1 NAP501      0.0000 
     24 PN        -21.8950  -30.1230   22.2180 P.3       1 NAP501      0.0000 
     25 O1N       -23.0960  -29.3330   21.7790 O.co2     1 NAP501      0.0000 
     26 O2N       -21.4480  -31.3600   21.4610 O.co2     1 NAP501      0.0000 
     27 O5D       -20.6880  -29.0770   22.3230 O.3       1 NAP501      0.0000 
     28 C5D       -19.4040  -29.3900   21.7860 C.3       1 NAP501      0.0000 
     29 C4D       -18.5390  -28.1470   21.8430 C.3       1 NAP501      0.0000 
     30 O4D       -19.0850  -27.1600   20.9940 O.3       1 NAP501      0.0000 
     31 C3D       -18.5140  -27.5600   23.2500 C.3       1 NAP501      0.0000 
     32 O3D       -17.1730  -27.2080   23.5990 O.3       1 NAP501      0.0000 
     33 C2D       -19.3490  -26.3050   23.1620 C.3       1 NAP501      0.0000 
     34 O2D       -18.8360  -25.3100   24.0390 O.3       1 NAP501      0.0000 
     35 C1D       -19.2240  -25.9130   21.6960 C.3       1 NAP501      0.0000 
     36 N1N       -20.4230  -25.1900   21.2430 N.pl3     1 NAP501      0.0000 
     37 C2N       -21.5740  -25.8630   21.0060 C.ar      1 NAP501      0.0000 
     38 C3N       -22.6870  -25.2180   20.4740 C.ar      1 NAP501      0.0000 
     39 C7N       -23.9970  -25.9170   20.2100 C.2       1 NAP501      0.0000 
     40 O7N       -24.8890  -25.2630   19.6800 O.2       1 NAP501      0.0000 
     41 N7N       -24.1740  -27.2140   20.5200 N.am      1 NAP501      0.0000 
     42 C4N       -22.6650  -23.7320   20.2650 C.ar      1 NAP501      0.0000 
     43 C5N       -21.3930  -23.1240   20.6160 C.ar      1 NAP501      0.0000 
     44 C6N       -20.3170  -23.8820   21.0330 C.ar      1 NAP501      0.0000 
     45 P2B       -18.5860  -35.6920   29.8210 P.3       1 NAP501      0.0000 
     46 O1X       -18.7860  -37.1960   29.8850 O.co2     1 NAP501      0.0000 
     47 O2X       -17.1840  -35.2300   30.1300 O.co2     1 NAP501      0.0000 
     48 O3X       -19.6560  -34.9160   30.4910 O.co2     1 NAP501      0.0000 
@<TRIPOS>BOND
     1    1    2 ar   
     2    1    3 ar   
     3    1    4 1    
     4    1   23 1    
     5    4    5 1    
     6    5    6 1    
     7    6    7 1    
     8    6    8 1    
     9    7   12 1    
    10    8    9 1    
    11    8   10 1    
    12   10   11 1    
    13   10   12 1    
    14   11   45 1    
    15   12   13 1    
    16   13   14 1    
    17   13   22 1    
    18   14   15 2    
    19   15   16 1    
    20   16   17 ar   
    21   16   22 ar   
    22   17   18 1    
    23   17   19 ar   
    24   19   20 ar   
    25   20   21 ar   
    26   21   22 ar   
    27   23   24 1    
    28   24   25 ar   
    29   24   26 ar   
    30   24   27 1    
    31   27   28 1    
    32   28   29 1    
    33   29   30 1    
    34   29   31 1    
    35   30   35 1    
    36   31   32 1    
    37   31   33 1    
    38   33   34 1    
    39   33   35 1    
    40   35   36 1    
    41   36   37 ar   
    42   36   44 ar   
    43   37   38 ar   
    44   38   39 1    
    45   38   42 ar   
    46   39   40 2    
    47   39   41 am   
    48   42   43 ar   
    49   43   44 ar   
    50   45   46 ar   
    51   45   47 ar   
    52   45   48 ar   
@<TRIPOS>SUBSTRUCTURE
     1 NAP501      1 GROUP   
@<TRIPOS>SET
ATOM$ORANGE STATIC     ATOMS   COLORGROUP SYSTEM 
42 5 5 6 6 8 8 10 10 12 12 14 14 16 16 17 17 20 \
20 22 22 28 28 29 29 31 31 33 33 35 35 37 37 38 38 39 \
39 42 42 43 43 44 44 

