#    Name: 6fku_1_NAP
#    Modification time : Fri May 22 19:31:00 2020

@<TRIPOS>MOLECULE
6fku_1_NAP
   48    52     1     0     1
SMALL
NO_CHARGES


@<TRIPOS>ATOM
      1 PA         -8.3190  -22.7060  -32.7350 P.3       1 NAP708      0.0000 
      2 O1A        -7.4890  -22.5450  -34.0270 O.co2     1 NAP708      0.0000 
      3 O2A        -9.6630  -22.0040  -32.5230 O.co2     1 NAP708      0.0000 
      4 O5B        -8.4780  -24.2880  -32.5070 O.3       1 NAP708      0.0000 
      5 C5B        -8.8200  -24.8360  -31.2410 C.3       1 NAP708      0.0000 
      6 C4B        -9.4600  -26.1960  -31.4550 C.3       1 NAP708      0.0000 
      7 O4B       -10.5740  -26.0480  -32.3280 O.3       1 NAP708      0.0000 
      8 C3B        -8.5440  -27.1770  -32.1380 C.3       1 NAP708      0.0000 
      9 O3B        -8.9420  -28.4870  -31.7570 O.3       1 NAP708      0.0000 
     10 C2B        -8.8130  -26.9560  -33.6010 C.3       1 NAP708      0.0000 
     11 O2B        -8.3860  -28.0400  -34.4110 O.3       1 NAP708      0.0000 
     12 C1B       -10.3080  -26.6890  -33.5840 C.3       1 NAP708      0.0000 
     13 N9A       -10.8430  -25.7960  -34.6400 N.pl3     1 NAP708      0.0000 
     14 C8A       -10.2120  -24.8390  -35.3590 C.2       1 NAP708      0.0000 
     15 N7A       -11.0780  -24.2720  -36.2210 N.2       1 NAP708      0.0000 
     16 C5A       -12.2770  -24.8520  -36.0490 C.ar      1 NAP708      0.0000 
     17 C6A       -13.6280  -24.7120  -36.6170 C.ar      1 NAP708      0.0000 
     18 N6A       -13.8800  -23.8120  -37.5860 N.pl3     1 NAP708      0.0000 
     19 N1A       -14.6080  -25.5050  -36.1460 N.ar      1 NAP708      0.0000 
     20 C2A       -14.3860  -26.4140  -35.1840 C.ar      1 NAP708      0.0000 
     21 N3A       -13.1820  -26.6010  -34.6210 N.ar      1 NAP708      0.0000 
     22 C4A       -12.1190  -25.8540  -35.0080 C.ar      1 NAP708      0.0000 
     23 O3         -7.3530  -22.3150  -31.4790 O.3       1 NAP708      0.0000 
     24 PN         -5.7400  -22.5140  -31.5850 P.3       1 NAP708      0.0000 
     25 O1N        -5.3130  -21.5390  -32.6660 O.co2     1 NAP708      0.0000 
     26 O2N        -5.4660  -23.9950  -31.8200 O.co2     1 NAP708      0.0000 
     27 O5D        -5.2800  -22.0040  -30.1250 O.3       1 NAP708      0.0000 
     28 C5D        -5.0510  -20.6120  -29.8670 C.3       1 NAP708      0.0000 
     29 C4D        -6.2990  -19.9250  -29.3340 C.3       1 NAP708      0.0000 
     30 O4D        -6.7910  -20.6630  -28.1990 O.3       1 NAP708      0.0000 
     31 C3D        -6.0140  -18.5140  -28.8390 C.3       1 NAP708      0.0000 
     32 O3D        -7.0190  -17.5970  -29.2820 O.3       1 NAP708      0.0000 
     33 C2D        -6.0190  -18.6730  -27.3210 C.3       1 NAP708      0.0000 
     34 O2D        -6.3320  -17.4860  -26.5870 O.3       1 NAP708      0.0000 
     35 C1D        -7.0370  -19.7760  -27.1060 C.3       1 NAP708      0.0000 
     36 N1N        -6.8660  -20.3880  -25.7900 N.pl3     1 NAP708      0.0000 
     37 C2N        -7.7970  -20.1160  -24.8530 C.ar      1 NAP708      0.0000 
     38 C3N        -7.6920  -20.6530  -23.5640 C.ar      1 NAP708      0.0000 
     39 C7N        -8.7270  -20.3400  -22.5130 C.2       1 NAP708      0.0000 
     40 O7N        -8.8920  -21.1570  -21.6080 O.2       1 NAP708      0.0000 
     41 N7N        -9.4070  -19.1790  -22.5630 N.am      1 NAP708      0.0000 
     42 C4N        -6.5870  -21.4720  -23.2510 C.ar      1 NAP708      0.0000 
     43 C5N        -5.6320  -21.7290  -24.2370 C.ar      1 NAP708      0.0000 
     44 C6N        -5.7970  -21.1720  -25.5150 C.ar      1 NAP708      0.0000 
     45 P2B        -6.7960  -28.1650  -34.8270 P.3       1 NAP708      0.0000 
     46 O1X        -6.7810  -29.5980  -35.3250 O.co2     1 NAP708      0.0000 
     47 O2X        -6.5600  -27.0820  -35.8720 O.co2     1 NAP708      0.0000 
     48 O3X        -5.9380  -27.9560  -33.5750 O.co2     1 NAP708      0.0000 
@<TRIPOS>BOND
     1    1    2 ar   
     2    1    3 ar   
     3    1    4 1    
     4    1   23 1    
     5    4    5 1    
     6    5    6 1    
     7    6    7 1    
     8    6    8 1    
     9    7   12 1    
    10    8    9 1    
    11    8   10 1    
    12   10   11 1    
    13   10   12 1    
    14   11   45 1    
    15   12   13 1    
    16   13   14 1    
    17   13   22 1    
    18   14   15 2    
    19   15   16 1    
    20   16   17 ar   
    21   16   22 ar   
    22   17   18 1    
    23   17   19 ar   
    24   19   20 ar   
    25   20   21 ar   
    26   21   22 ar   
    27   23   24 1    
    28   24   25 ar   
    29   24   26 ar   
    30   24   27 1    
    31   27   28 1    
    32   28   29 1    
    33   29   30 1    
    34   29   31 1    
    35   30   35 1    
    36   31   32 1    
    37   31   33 1    
    38   33   34 1    
    39   33   35 1    
    40   35   36 1    
    41   36   37 ar   
    42   36   44 ar   
    43   37   38 ar   
    44   38   39 1    
    45   38   42 ar   
    46   39   40 2    
    47   39   41 am   
    48   42   43 ar   
    49   43   44 ar   
    50   45   46 ar   
    51   45   47 ar   
    52   45   48 ar   
@<TRIPOS>SUBSTRUCTURE
     1 NAP708      1 GROUP   
@<TRIPOS>SET
ATOM$ORANGE STATIC     ATOMS   COLORGROUP SYSTEM 
42 5 5 6 6 8 8 10 10 12 12 14 14 16 16 17 17 20 \
20 22 22 28 28 29 29 31 31 33 33 35 35 37 37 38 38 39 \
39 42 42 43 43 44 44 

