#    Name: 6fku_2_NAP
#    Modification time : Fri May 22 19:31:07 2020

@<TRIPOS>MOLECULE
6fku_2_NAP
   48    52     1     0     1
SMALL
NO_CHARGES


@<TRIPOS>ATOM
      1 PA        -43.8200  -15.3770  -27.6800 P.3       1 NAP605      0.0000 
      2 O1A       -44.8710  -15.2990  -28.7640 O.co2     1 NAP605      0.0000 
      3 O2A       -42.4910  -16.0390  -27.9570 O.co2     1 NAP605      0.0000 
      4 O5B       -43.6670  -13.8740  -27.1150 O.3       1 NAP605      0.0000 
      5 C5B       -42.9420  -13.5840  -25.9250 C.3       1 NAP605      0.0000 
      6 C4B       -42.3060  -12.2150  -26.0300 C.3       1 NAP605      0.0000 
      7 O4B       -41.4630  -12.1760  -27.1780 O.3       1 NAP605      0.0000 
      8 C3B       -43.3070  -11.0920  -26.2470 C.3       1 NAP605      0.0000 
      9 O3B       -42.7970   -9.8880  -25.6490 O.3       1 NAP605      0.0000 
     10 C2B       -43.3980  -10.9740  -27.7550 C.3       1 NAP605      0.0000 
     11 O2B       -43.9670   -9.7440  -28.2000 O.3       1 NAP605      0.0000 
     12 C1B       -41.9490  -11.2050  -28.1240 C.3       1 NAP605      0.0000 
     13 N9A       -41.6800  -11.7900  -29.4530 N.pl3     1 NAP605      0.0000 
     14 C8A       -42.4860  -12.5820  -30.1940 C.2       1 NAP605      0.0000 
     15 N7A       -41.8630  -12.9290  -31.3480 N.2       1 NAP605      0.0000 
     16 C5A       -40.6430  -12.3760  -31.3400 C.ar      1 NAP605      0.0000 
     17 C6A       -39.4990  -12.3670  -32.2640 C.ar      1 NAP605      0.0000 
     18 N6A       -39.5830  -13.0440  -33.4280 N.pl3     1 NAP605      0.0000 
     19 N1A       -38.4020  -11.6690  -31.9060 N.ar      1 NAP605      0.0000 
     20 C2A       -38.3430  -10.9860  -30.7290 C.ar      1 NAP605      0.0000 
     21 N3A       -39.3660  -10.9410  -29.8290 N.ar      1 NAP605      0.0000 
     22 C4A       -40.5190  -11.6210  -30.0890 C.ar      1 NAP605      0.0000 
     23 O3        -44.4810  -16.1600  -26.4350 O.3       1 NAP605      0.0000 
     24 PN        -46.0460  -15.9660  -26.0310 P.3       1 NAP605      0.0000 
     25 O1N       -46.8130  -16.7280  -27.0850 O.co2     1 NAP605      0.0000 
     26 O2N       -46.3300  -14.4820  -25.8310 O.co2     1 NAP605      0.0000 
     27 O5D       -46.0990  -16.8100  -24.6670 O.3       1 NAP605      0.0000 
     28 C5D       -46.2960  -18.2250  -24.7220 C.3       1 NAP605      0.0000 
     29 C4D       -44.9840  -18.9700  -24.5190 C.3       1 NAP605      0.0000 
     30 O4D       -44.3060  -18.4650  -23.3520 O.3       1 NAP605      0.0000 
     31 C3D       -45.2150  -20.4650  -24.2980 C.3       1 NAP605      0.0000 
     32 O3D       -44.3670  -21.2700  -25.1390 O.3       1 NAP605      0.0000 
     33 C2D       -44.9210  -20.6260  -22.8060 C.3       1 NAP605      0.0000 
     34 O2D       -44.5210  -21.9560  -22.4490 O.3       1 NAP605      0.0000 
     35 C1D       -43.8810  -19.5460  -22.5260 C.3       1 NAP605      0.0000 
     36 N1N       -43.8020  -19.1870  -21.0990 N.pl3     1 NAP605      0.0000 
     37 C2N       -42.6790  -19.5360  -20.4370 C.ar      1 NAP605      0.0000 
     38 C3N       -42.5290  -19.2520  -19.0720 C.ar      1 NAP605      0.0000 
     39 C7N       -41.2690  -19.6790  -18.3630 C.2       1 NAP605      0.0000 
     40 O7N       -40.8250  -18.9960  -17.4350 O.2       1 NAP605      0.0000 
     41 N7N       -40.6920  -20.8270  -18.7640 N.am      1 NAP605      0.0000 
     42 C4N       -43.5660  -18.5960  -18.3830 C.ar      1 NAP605      0.0000 
     43 C5N       -44.7170  -18.2450  -19.0870 C.ar      1 NAP605      0.0000 
     44 C6N       -44.8120  -18.5510  -20.4590 C.ar      1 NAP605      0.0000 
     45 P2B       -45.5980   -9.5360  -28.2510 P.3       1 NAP605      0.0000 
     46 O1X       -45.9440   -9.8170  -29.6840 O.co2     1 NAP605      0.0000 
     47 O2X       -46.2540  -10.5260  -27.2990 O.co2     1 NAP605      0.0000 
     48 O3X       -45.7410   -8.0940  -27.8250 O.co2     1 NAP605      0.0000 
@<TRIPOS>BOND
     1    1    2 ar   
     2    1    3 ar   
     3    1    4 1    
     4    1   23 1    
     5    4    5 1    
     6    5    6 1    
     7    6    7 1    
     8    6    8 1    
     9    7   12 1    
    10    8    9 1    
    11    8   10 1    
    12   10   11 1    
    13   10   12 1    
    14   11   45 1    
    15   12   13 1    
    16   13   14 1    
    17   13   22 1    
    18   14   15 2    
    19   15   16 1    
    20   16   17 ar   
    21   16   22 ar   
    22   17   18 1    
    23   17   19 ar   
    24   19   20 ar   
    25   20   21 ar   
    26   21   22 ar   
    27   23   24 1    
    28   24   25 ar   
    29   24   26 ar   
    30   24   27 1    
    31   27   28 1    
    32   28   29 1    
    33   29   30 1    
    34   29   31 1    
    35   30   35 1    
    36   31   32 1    
    37   31   33 1    
    38   33   34 1    
    39   33   35 1    
    40   35   36 1    
    41   36   37 ar   
    42   36   44 ar   
    43   37   38 ar   
    44   38   39 1    
    45   38   42 ar   
    46   39   40 2    
    47   39   41 am   
    48   42   43 ar   
    49   43   44 ar   
    50   45   46 ar   
    51   45   47 ar   
    52   45   48 ar   
@<TRIPOS>SUBSTRUCTURE
     1 NAP605      1 GROUP   
@<TRIPOS>SET
ATOM$ORANGE STATIC     ATOMS   COLORGROUP SYSTEM 
42 5 5 6 6 8 8 10 10 12 12 14 14 16 16 17 17 20 \
20 22 22 28 28 29 29 31 31 33 33 35 35 37 37 38 38 39 \
39 42 42 43 43 44 44 

