#    Name: 6k0w_2_SFG
#    Modification time : Fri May 22 19:25:27 2020

@<TRIPOS>MOLECULE
6k0w_2_SFG
   27    29     1     0     0
SMALL
NO_CHARGES


@<TRIPOS>ATOM
      1 N         140.7100   36.8510  388.3090 N.4       1 SFG601      0.0000 
      2 CA        141.8220   35.8960  388.2720 C.3       1 SFG601      0.0000 
      3 C         142.1410   35.5260  389.7380 C.2       1 SFG601      0.0000 
      4 O         141.4800   36.0150  390.6440 O.co2     1 SFG601      0.0000 
      5 OXT       143.0990   34.7090  389.9960 O.co2     1 SFG601      0.0000 
      6 CB        143.0670   36.4380  387.5930 C.3       1 SFG601      0.0000 
      7 CG        143.0990   36.1890  386.0400 C.3       1 SFG601      0.0000 
      8 CD        144.5080   36.1920  385.5090 C.3       1 SFG601      0.0000 
      9 NE        145.1190   37.4340  385.6950 N.4       1 SFG601      0.0000 
     10 C5'       144.5490   35.9540  383.9370 C.3       1 SFG601      0.0000 
     11 C4'       143.9890   34.5260  383.6710 C.3       1 SFG601      0.0000 
     12 O4'       143.5000   34.4360  382.4670 O.3       1 SFG601      0.0000 
     13 C3'       145.1970   33.5690  383.7720 C.3       1 SFG601      0.0000 
     14 O3'       144.8530   32.4670  384.4870 O.3       1 SFG601      0.0000 
     15 C2'       145.5100   33.2610  382.3150 C.3       1 SFG601      0.0000 
     16 O2'       146.2540   31.9240  382.1810 O.3       1 SFG601      0.0000 
     17 C1'       144.3050   33.2470  381.7770 C.3       1 SFG601      0.0000 
     18 N9        144.3940   33.3550  380.3220 N.pl3     1 SFG601      0.0000 
     19 C8        145.4320   33.8460  379.6060 C.2       1 SFG601      0.0000 
     20 N7        145.1430   33.7110  378.3140 N.2       1 SFG601      0.0000 
     21 C5        143.9340   33.1180  378.2390 C.ar      1 SFG601      0.0000 
     22 C6        143.1770   32.7580  377.1510 C.ar      1 SFG601      0.0000 
     23 N6        143.4780   32.9280  375.7270 N.pl3     1 SFG601      0.0000 
     24 N1        141.9960   32.1750  377.3100 N.ar      1 SFG601      0.0000 
     25 C2        141.5270   31.9550  378.5690 C.ar      1 SFG601      0.0000 
     26 N3        142.2790   32.3150  379.6420 N.ar      1 SFG601      0.0000 
     27 C4        143.4740   32.8940  379.4770 C.ar      1 SFG601      0.0000 
@<TRIPOS>BOND
     1    1    2 1    
     2    2    3 1    
     3    2    6 1    
     4    3    4 ar   
     5    3    5 ar   
     6    6    7 1    
     7    7    8 1    
     8    8    9 1    
     9    8   10 1    
    10   10   11 1    
    11   11   12 1    
    12   11   13 1    
    13   12   17 1    
    14   13   14 1    
    15   13   15 1    
    16   15   16 1    
    17   15   17 1    
    18   17   18 1    
    19   18   19 1    
    20   18   27 1    
    21   19   20 2    
    22   20   21 1    
    23   21   22 ar   
    24   21   27 ar   
    25   22   23 1    
    26   22   24 ar   
    27   24   25 ar   
    28   25   26 ar   
    29   26   27 ar   
@<TRIPOS>SUBSTRUCTURE
     1 SFG601      1 GROUP   
@<TRIPOS>SET

