#    Name: 6k0w_3_SFG
#    Modification time : Fri May 22 19:25:36 2020

@<TRIPOS>MOLECULE
6k0w_3_SFG
   27    29     1     0     0
SMALL
NO_CHARGES


@<TRIPOS>ATOM
      1 N         192.8500  118.1780  323.7510 N.4       1 SFG801      0.0000 
      2 CA        192.8620  119.1110  324.8750 C.3       1 SFG801      0.0000 
      3 C         194.3410  119.3630  325.2420 C.2       1 SFG801      0.0000 
      4 O         195.2160  118.7940  324.5970 O.co2     1 SFG801      0.0000 
      5 OXT       194.6460  120.1550  326.2080 O.co2     1 SFG801      0.0000 
      6 CB        192.1070  118.5980  326.0840 C.3       1 SFG801      0.0000 
      7 CG        190.5590  118.8560  325.9440 C.3       1 SFG801      0.0000 
      8 CD        189.8360  118.7350  327.2560 C.3       1 SFG801      0.0000 
      9 NE        190.0030  117.4410  327.7910 N.4       1 SFG801      0.0000 
     10 C5'       188.2720  118.9700  327.0710 C.3       1 SFG801      0.0000 
     11 C4'       188.0210  120.4290  326.5720 C.3       1 SFG801      0.0000 
     12 O4'       186.8610  120.5590  325.9790 O.3       1 SFG801      0.0000 
     13 C3'       188.0040  121.3310  327.8240 C.3       1 SFG801      0.0000 
     14 O3'       188.7610  122.4420  327.6240 O.3       1 SFG801      0.0000 
     15 C2'       186.5270  121.6640  327.9710 C.3       1 SFG801      0.0000 
     16 O2'       186.3760  122.9320  328.8190 O.3       1 SFG801      0.0000 
     17 C1'       186.1290  121.7760  326.7170 C.3       1 SFG801      0.0000 
     18 N9        184.6790  121.6290  326.6340 N.pl3     1 SFG801      0.0000 
     19 C8        183.8670  121.0390  327.5510 C.2       1 SFG801      0.0000 
     20 N7        182.6030  121.1200  327.1210 N.2       1 SFG801      0.0000 
     21 C5        182.6360  121.7660  325.9330 C.ar      1 SFG801      0.0000 
     22 C6        181.6280  122.1010  325.0650 C.ar      1 SFG801      0.0000 
     23 N6        180.1910  121.8690  325.1830 N.pl3     1 SFG801      0.0000 
     24 N1        181.8860  122.7290  323.9290 N.ar      1 SFG801      0.0000 
     25 C2        183.1810  123.0440  323.6300 C.ar      1 SFG801      0.0000 
     26 N3        184.1850  122.7070  324.4920 N.ar      1 SFG801      0.0000 
     27 C4        183.9150  122.0770  325.6360 C.ar      1 SFG801      0.0000 
@<TRIPOS>BOND
     1    1    2 1    
     2    2    3 1    
     3    2    6 1    
     4    3    4 ar   
     5    3    5 ar   
     6    6    7 1    
     7    7    8 1    
     8    8    9 1    
     9    8   10 1    
    10   10   11 1    
    11   11   12 1    
    12   11   13 1    
    13   12   17 1    
    14   13   14 1    
    15   13   15 1    
    16   15   16 1    
    17   15   17 1    
    18   17   18 1    
    19   18   19 1    
    20   18   27 1    
    21   19   20 2    
    22   20   21 1    
    23   21   22 ar   
    24   21   27 ar   
    25   22   23 1    
    26   22   24 ar   
    27   24   25 ar   
    28   25   26 ar   
    29   26   27 ar   
@<TRIPOS>SUBSTRUCTURE
     1 SFG801      1 GROUP   
@<TRIPOS>SET

