#    Name: 6k0w_4_SFG
#    Modification time : Fri May 22 19:25:45 2020

@<TRIPOS>MOLECULE
6k0w_4_SFG
   27    29     1     0     0
SMALL
NO_CHARGES


@<TRIPOS>ATOM
      1 N         144.4810   75.5840  388.5800 N.4       1 SFG901      0.0000 
      2 CA        143.4920   76.6490  388.4280 C.3       1 SFG901      0.0000 
      3 C         142.7640   76.8780  389.7680 C.2       1 SFG901      0.0000 
      4 O         143.1560   76.2860  390.7700 O.co2     1 SFG901      0.0000 
      5 OXT       141.7490   77.6820  389.7870 O.co2     1 SFG901      0.0000 
      6 CB        142.4450   76.3510  387.3860 C.3       1 SFG901      0.0000 
      7 CG        143.0960   76.1830  385.9690 C.3       1 SFG901      0.0000 
      8 CD        141.9830   76.1880  384.9650 C.3       1 SFG901      0.0000 
      9 NE        141.2310   74.9890  385.0570 N.4       1 SFG901      0.0000 
     10 C5'       142.5940   76.3660  383.5040 C.3       1 SFG901      0.0000 
     11 C4'       143.0610   77.8590  383.3620 C.3       1 SFG901      0.0000 
     12 O4'       143.9220   78.0190  382.3880 O.3       1 SFG901      0.0000 
     13 C3'       141.8210   78.7250  383.0410 C.3       1 SFG901      0.0000 
     14 O3'       141.8350   79.8330  383.8200 O.3       1 SFG901      0.0000 
     15 C2'       142.0030   79.0620  381.5740 C.3       1 SFG901      0.0000 
     16 O2'       141.3250   80.3860  381.2310 O.3       1 SFG901      0.0000 
     17 C1'       143.3060   79.1460  381.4420 C.3       1 SFG901      0.0000 
     18 N9        143.6720   78.9940  380.0290 N.pl3     1 SFG901      0.0000 
     19 C8        142.9380   78.4700  379.0320 C.2       1 SFG901      0.0000 
     20 N7        143.6520   78.5740  377.9070 N.2       1 SFG901      0.0000 
     21 C5        144.8160   79.1780  378.1980 C.ar      1 SFG901      0.0000 
     22 C6        145.9090   79.5420  377.4290 C.ar      1 SFG901      0.0000 
     23 N6        146.1810   79.3900  375.9960 N.pl3     1 SFG901      0.0000 
     24 N1        146.9550   80.1430  377.9710 N.ar      1 SFG901      0.0000 
     25 C2        146.9520   80.4100  379.3040 C.ar      1 SFG901      0.0000 
     26 N3        145.8730   80.0570  380.0470 N.ar      1 SFG901      0.0000 
     27 C4        144.8130   79.4470  379.5080 C.ar      1 SFG901      0.0000 
@<TRIPOS>BOND
     1    1    2 1    
     2    2    3 1    
     3    2    6 1    
     4    3    4 ar   
     5    3    5 ar   
     6    6    7 1    
     7    7    8 1    
     8    8    9 1    
     9    8   10 1    
    10   10   11 1    
    11   11   12 1    
    12   11   13 1    
    13   12   17 1    
    14   13   14 1    
    15   13   15 1    
    16   15   16 1    
    17   15   17 1    
    18   17   18 1    
    19   18   19 1    
    20   18   27 1    
    21   19   20 2    
    22   20   21 1    
    23   21   22 ar   
    24   21   27 ar   
    25   22   23 1    
    26   22   24 ar   
    27   24   25 ar   
    28   25   26 ar   
    29   26   27 ar   
@<TRIPOS>SUBSTRUCTURE
     1 SFG901      1 GROUP   
@<TRIPOS>SET

