#    Name: 6k0w_4_SFG_CAVITY_N1_4
#    Modification time : Fri May 22 19:25:47 2020

@<TRIPOS>MOLECULE
6k0w_4_SFG_CAVITY_N1_4
   85     0     5     0     0
SMALL
NO_CHARGES


@<TRIPOS>ATOM
      1 O         145.3300   78.8000  378.0500 O.2       1 ALA2        0.0000 
      2 O         142.6500   77.9300  383.9500 O.2       1 ALA2        0.0000 
      3 N         142.4900   78.9700  382.8900 N.am      1 ALA2        0.0000 
      4 N         143.7900   78.5500  382.2700 N.am      1 ALA2        0.0000 
      5 O         141.0300   80.4400  382.4400 O.2       1 ALA2        0.0000 
      6 O         142.3300   80.0200  381.8200 O.2       1 ALA2        0.0000 
      7 O         143.6300   79.5900  381.2100 O.2       1 ALA2        0.0000 
      8 O         140.8600   81.4900  381.3800 O.2       1 ALA2        0.0000 
      9 O         146.0600   79.7800  378.9100 O.2       1 ALA2        0.0000 
     10 O         147.2000   80.4000  377.2300 O.2       1 ALA2        0.0000 
     11 NZ        139.9700   78.1000  378.1800 N.4       2 LYS4        0.0000 
     12 NZ        139.8100   79.1400  377.1200 N.4       2 LYS4        0.0000 
     13 NZ        141.1000   78.7200  376.5000 N.4       2 LYS4        0.0000 
     14 NZ        140.9400   79.7600  375.4400 N.4       2 LYS4        0.0000 
     15 NZ        138.1000   79.9400  380.2800 N.4       2 LYS4        0.0000 
     16 NZ        139.4000   79.5100  379.6600 N.4       2 LYS4        0.0000 
     17 NZ        140.7000   79.0900  379.0400 N.4       2 LYS4        0.0000 
     18 NZ        141.8400   79.7100  377.3600 N.4       2 LYS4        0.0000 
     19 NZ        141.6700   80.7500  376.3000 N.4       2 LYS4        0.0000 
     20 NZ        145.5700   79.4700  374.4500 N.4       2 LYS4        0.0000 
     21 NZ        145.4100   80.5200  373.3800 N.4       2 LYS4        0.0000 
     22 NZ        140.1300   80.5000  380.5200 N.4       2 LYS4        0.0000 
     23 NZ        146.4700   79.4200  376.3700 N.4       2 LYS4        0.0000 
     24 NZ        146.3000   80.4600  375.3100 N.4       2 LYS4        0.0000 
     25 CZ        140.5300   76.6900  376.7100 C.ar      3 PHE5        0.0000 
     26 CZ        141.6700   77.3000  375.0300 C.ar      3 PHE5        0.0000 
     27 CZ        142.5700   77.2500  376.9500 C.ar      3 PHE5        0.0000 
     28 CZ        142.4000   78.2900  375.8900 C.ar      3 PHE5        0.0000 
     29 CZ        143.7000   77.8700  375.2700 C.ar      3 PHE5        0.0000 
     30 CZ        143.4600   77.1900  378.8700 C.ar      3 PHE5        0.0000 
     31 CZ        143.3000   78.2300  377.8100 C.ar      3 PHE5        0.0000 
     32 CZ        144.6000   77.8100  377.1900 C.ar      3 PHE5        0.0000 
     33 CZ        144.4400   78.8500  376.1300 C.ar      3 PHE5        0.0000 
     34 CZ        145.7300   78.4300  375.5100 C.ar      3 PHE5        0.0000 
     35 CZ        139.3200   77.7900  384.3300 C.ar      3 PHE5        0.0000 
     36 CZ        140.6200   77.3700  383.7100 C.ar      3 PHE5        0.0000 
     37 CZ        139.1600   78.8400  383.2600 C.ar      3 PHE5        0.0000 
     38 CZ        143.0600   77.5600  381.4100 C.ar      3 PHE5        0.0000 
     39 CZ        142.8900   78.6000  380.3500 C.ar      3 PHE5        0.0000 
     40 CZ        144.1900   78.1800  379.7300 C.ar      3 PHE5        0.0000 
     41 CZ        141.3500   78.3500  384.5700 C.ar      3 PHE5        0.0000 
     42 CZ        139.8900   79.8300  384.1200 C.ar      3 PHE5        0.0000 
     43 CZ        141.1900   79.4000  383.5000 C.ar      3 PHE5        0.0000 
     44 CZ        144.9200   79.1700  380.5900 C.ar      3 PHE5        0.0000 
     45 CZ        146.2200   78.7400  379.9700 C.ar      3 PHE5        0.0000 
     46 CA        140.2900   76.0100  380.3100 C.3       4 GLY6        0.0000 
     47 CA        140.1300   77.0500  379.2500 C.3       4 GLY6        0.0000 
     48 CA        141.4300   76.6300  378.6300 C.3       4 GLY6        0.0000 
     49 CA        142.7300   76.2000  378.0100 C.3       4 GLY6        0.0000 
     50 CA        142.2400   79.3400  374.8200 C.3       4 GLY6        0.0000 
     51 CA        143.5400   78.9100  374.2100 C.3       4 GLY6        0.0000 
     52 CA        144.6800   79.5300  372.5200 C.3       4 GLY6        0.0000 
     53 CA        141.0200   77.0000  381.1700 C.3       4 GLY6        0.0000 
     54 CA        142.3200   76.5700  380.5500 C.3       4 GLY6        0.0000 
     55 CA        142.1600   77.6200  379.4900 C.3       4 GLY6        0.0000 
     56 CA        142.9700   80.3300  375.6800 C.3       4 GLY6        0.0000 
     57 CA        144.2700   79.9000  375.0600 C.3       4 GLY6        0.0000 
     58 CA        144.1100   80.9400  374.0000 C.3       4 GLY6        0.0000 
     59 CA        137.7000   80.3100  382.8200 C.3       4 GLY6        0.0000 
     60 CA        139.0000   79.8800  382.2000 C.3       4 GLY6        0.0000 
     61 CA        138.8300   80.9300  381.1300 C.3       4 GLY6        0.0000 
     62 CA        141.4300   80.0800  379.9000 C.3       4 GLY6        0.0000 
     63 CA        142.7300   79.6500  379.2800 C.3       4 GLY6        0.0000 
     64 CA        144.0300   79.2200  378.6700 C.3       4 GLY6        0.0000 
     65 CA        143.8700   80.2700  377.6000 C.3       4 GLY6        0.0000 
     66 CA        145.1700   79.8400  376.9900 C.3       4 GLY6        0.0000 
     67 CA        145.0100   80.8900  375.9200 C.3       4 GLY6        0.0000 
     68 CA        139.7300   80.8700  383.0600 C.3       4 GLY6        0.0000 
     69 CA        142.1600   81.0600  380.7600 C.3       4 GLY6        0.0000 
     70 CA        144.7600   80.2100  379.5300 C.3       4 GLY6        0.0000 
     71 CA        145.9000   80.8300  377.8500 C.3       4 GLY6        0.0000 
     72 DU        138.8300   77.4800  379.8600 H         5 CUB7        0.0000 
     73 DU        141.2700   77.6700  377.5700 H         5 CUB7        0.0000 
     74 DU        138.4300   77.8500  382.4000 H         5 CUB7        0.0000 
     75 DU        139.7200   77.4200  381.7900 H         5 CUB7        0.0000 
     76 DU        138.2600   78.9000  381.3400 H         5 CUB7        0.0000 
     77 DU        139.5600   78.4700  380.7200 H         5 CUB7        0.0000 
     78 DU        140.8600   78.0400  380.1100 H         5 CUB7        0.0000 
     79 DU        142.0000   78.6600  378.4300 H         5 CUB7        0.0000 
     80 DU        143.1400   79.2800  376.7400 H         5 CUB7        0.0000 
     81 DU        141.9200   76.9400  383.0900 H         5 CUB7        0.0000 
     82 DU        140.4600   78.4100  382.6500 H         5 CUB7        0.0000 
     83 DU        141.7600   77.9900  382.0300 H         5 CUB7        0.0000 
     84 DU        140.2900   79.4600  381.5800 H         5 CUB7        0.0000 
     85 DU        141.5900   79.0300  380.9600 H         5 CUB7        0.0000 
@<TRIPOS>BOND
@<TRIPOS>SUBSTRUCTURE
     1 ALA2        1 GROUP   
     2 LYS4       11 GROUP   
     3 PHE5       25 GROUP   
     4 GLY6       46 GROUP   
     5 CUB7       72 GROUP   
@<TRIPOS>SET

