#    Name: 6k0w_1_SFG
#    Modification time : Fri May 22 19:25:16 2020

@<TRIPOS>MOLECULE
6k0w_1_SFG
   27    29     1     0     0
SMALL
NO_CHARGES


@<TRIPOS>ATOM
      1 N         193.1160   79.4310  327.5790 N.4       1 SFG701      0.0000 
      2 CA        193.1950   78.3320  326.6110 C.3       1 SFG701      0.0000 
      3 C         194.6400   78.1670  326.0840 C.2       1 SFG701      0.0000 
      4 O         195.5770   78.6900  326.6810 O.co2     1 SFG701      0.0000 
      5 OXT       194.8330   77.4880  325.0020 O.co2     1 SFG701      0.0000 
      6 CB        192.2930   78.5480  325.4150 C.3       1 SFG701      0.0000 
      7 CG        190.8110   78.7950  325.8800 C.3       1 SFG701      0.0000 
      8 CD        189.9630   78.8330  324.6580 C.3       1 SFG701      0.0000 
      9 NE        190.2440   80.0500  323.9810 N.4       1 SFG701      0.0000 
     10 C5'       188.4240   78.7010  325.0650 C.3       1 SFG701      0.0000 
     11 C4'       188.1370   77.2070  325.4380 C.3       1 SFG701      0.0000 
     12 O4'       187.0360   77.0920  326.1360 O.3       1 SFG701      0.0000 
     13 C3'       187.9600   76.3380  324.1650 C.3       1 SFG701      0.0000 
     14 O3'       188.8030   75.2740  324.2130 O.3       1 SFG701      0.0000 
     15 C2'       186.5060   75.8820  324.2240 C.3       1 SFG701      0.0000 
     16 O2'       186.3590   74.4870  323.6290 O.3       1 SFG701      0.0000 
     17 C1'       186.2420   75.8460  325.5060 C.3       1 SFG701      0.0000 
     18 N9        184.8050   75.9820  325.7520 N.pl3     1 SFG701      0.0000 
     19 C8        183.8710   76.5810  324.9640 C.2       1 SFG701      0.0000 
     20 N7        182.6880   76.4800  325.6040 N.2       1 SFG701      0.0000 
     21 C5        182.8760   75.8140  326.7660 C.ar      1 SFG701      0.0000 
     22 C6        182.0200   75.4350  327.7880 C.ar      1 SFG701      0.0000 
     23 N6        180.5800   75.5990  327.9860 N.pl3     1 SFG701      0.0000 
     24 N1        182.4780   74.7870  328.8490 N.ar      1 SFG701      0.0000 
     25 C2        183.8080   74.4970  328.9290 C.ar      1 SFG701      0.0000 
     26 N3        184.6420   74.8590  327.9190 N.ar      1 SFG701      0.0000 
     27 C4        184.1880   75.5110  326.8470 C.ar      1 SFG701      0.0000 
@<TRIPOS>BOND
     1    1    2 1    
     2    2    3 1    
     3    2    6 1    
     4    3    4 ar   
     5    3    5 ar   
     6    6    7 1    
     7    7    8 1    
     8    8    9 1    
     9    8   10 1    
    10   10   11 1    
    11   11   12 1    
    12   11   13 1    
    13   12   17 1    
    14   13   14 1    
    15   13   15 1    
    16   15   16 1    
    17   15   17 1    
    18   17   18 1    
    19   18   19 1    
    20   18   27 1    
    21   19   20 2    
    22   20   21 1    
    23   21   22 ar   
    24   21   27 ar   
    25   22   23 1    
    26   22   24 ar   
    27   24   25 ar   
    28   25   26 ar   
    29   26   27 ar   
@<TRIPOS>SUBSTRUCTURE
     1 SFG701      1 GROUP   
@<TRIPOS>SET

