#    Name: 6ckl_1_C5P
#    Modification time : Fri May 22 19:26:52 2020

@<TRIPOS>MOLECULE
6ckl_1_C5P
   21    22     1     0     0
SMALL
NO_CHARGES


@<TRIPOS>ATOM
      1 O3P       133.6030   33.3440  -11.5430 O.co2     1 C5P701      0.0000 
      2 P         132.4530   34.2480  -11.9660 P.3       1 C5P701      0.0000 
      3 O1P       132.0210   34.0700  -13.3810 O.co2     1 C5P701      0.0000 
      4 O2P       132.5450   35.7080  -11.6570 O.co2     1 C5P701      0.0000 
      5 O5'       131.2530   33.8330  -10.9910 O.3       1 C5P701      0.0000 
      6 C5'       131.4680   33.9100   -9.5890 C.3       1 C5P701      0.0000 
      7 C4'       130.1880   33.6060   -8.8260 C.3       1 C5P701      0.0000 
      8 O4'       129.6010   34.8380   -8.4830 O.3       1 C5P701      0.0000 
      9 C3'       129.1270   32.8590   -9.6230 C.3       1 C5P701      0.0000 
     10 O3'       128.2870   32.0880   -8.7750 O.3       1 C5P701      0.0000 
     11 C2'       128.3290   33.9570  -10.2740 C.3       1 C5P701      0.0000 
     12 O2'       127.0050   33.5300  -10.5990 O.3       1 C5P701      0.0000 
     13 C1'       128.3430   34.9470   -9.1530 C.3       1 C5P701      0.0000 
     14 N1        128.3060   36.3260   -9.5560 N.am      1 C5P701      0.0000 
     15 C2        127.2270   37.1450   -9.2050 C.2       1 C5P701      0.0000 
     16 N3        127.2420   38.4550   -9.5500 N.2       1 C5P701      0.0000 
     17 C4        128.3180   38.9700  -10.2140 C.2       1 C5P701      0.0000 
     18 C5        129.3890   38.1640  -10.5500 C.2       1 C5P701      0.0000 
     19 C6        129.3660   36.8290  -10.1940 C.2       1 C5P701      0.0000 
     20 O2        126.2620   36.6660   -8.6010 O.2       1 C5P701      0.0000 
     21 N4        128.3730   40.2650  -10.5610 N.pl3     1 C5P701      0.0000 
@<TRIPOS>BOND
     1    1    2 ar   
     2    2    3 ar   
     3    2    4 ar   
     4    2    5 1    
     5    5    6 1    
     6    6    7 1    
     7    7    8 1    
     8    7    9 1    
     9    8   13 1    
    10    9   10 1    
    11    9   11 1    
    12   11   12 1    
    13   11   13 1    
    14   13   14 1    
    15   14   15 am   
    16   14   19 1    
    17   15   16 1    
    18   15   20 2    
    19   16   17 2    
    20   17   18 1    
    21   17   21 1    
    22   18   19 2    
@<TRIPOS>SUBSTRUCTURE
     1 C5P701      1 GROUP   
@<TRIPOS>SET

