#    Name: 6ckl_1_C5P_CAVITY_N1_12
#    Modification time : Fri May 22 19:26:53 2020

@<TRIPOS>MOLECULE
6ckl_1_C5P_CAVITY_N1_12
  185     0     7     0     0
SMALL
NO_CHARGES


@<TRIPOS>ATOM
      1 OG        130.7900   32.9800   -9.3200 O.3       1 SER1        0.0000 
      2 OG        131.9700   32.1400   -9.7300 O.3       1 SER1        0.0000 
      3 OG        133.1400   31.3100  -10.1300 O.3       1 SER1        0.0000 
      4 OG        129.3900   39.3400   -9.8300 O.3       1 SER1        0.0000 
      5 OG        128.9500   38.2600   -8.8900 O.3       1 SER1        0.0000 
      6 OG        130.5700   38.5100  -10.2400 O.3       1 SER1        0.0000 
      7 OG        130.1300   37.4300   -9.3000 O.3       1 SER1        0.0000 
      8 OG        131.7500   37.6700  -10.6500 O.3       1 SER1        0.0000 
      9 OG        131.3100   36.5900   -9.7000 O.3       1 SER1        0.0000 
     10 OG        133.0100   39.3800  -10.4900 O.3       1 SER1        0.0000 
     11 OG        133.7400   37.4600   -9.9600 O.3       1 SER1        0.0000 
     12 OG        133.8200   40.0000   -9.4000 O.3       1 SER1        0.0000 
     13 OG        134.5600   38.0800   -8.8600 O.3       1 SER1        0.0000 
     14 OG        136.4800   35.3300   -8.7300 O.3       1 SER1        0.0000 
     15 OG        137.6500   34.5000   -9.1400 O.3       1 SER1        0.0000 
     16 OG        135.3800   38.7000   -7.7700 O.3       1 SER1        0.0000 
     17 OG        136.5600   37.8700   -8.1700 O.3       1 SER1        0.0000 
     18 OG        136.1200   36.7900   -7.2300 O.3       1 SER1        0.0000 
     19 O         128.8300   32.7400  -20.0600 O.2       2 ALA2        0.0000 
     20 O         130.0000   31.9100  -20.4700 O.2       2 ALA2        0.0000 
     21 O         129.7900   37.4400  -21.3900 O.2       2 ALA2        0.0000 
     22 O         128.0200   33.1200  -17.6200 O.2       2 ALA2        0.0000 
     23 O         127.5800   32.0400  -16.6800 O.2       2 ALA2        0.0000 
     24 N         130.5300   35.5300  -20.8500 N.am      2 ALA2        0.0000 
     25 O         129.6400   33.3600  -18.9700 O.2       2 ALA2        0.0000 
     26 O         129.2000   32.2800  -18.0200 O.2       2 ALA2        0.0000 
     27 O         128.7600   31.2000  -17.0800 O.2       2 ALA2        0.0000 
     28 O         130.3800   31.4500  -18.4300 O.2       2 ALA2        0.0000 
     29 N         130.1600   36.9800  -19.3500 N.am      2 ALA2        0.0000 
     30 N         130.9000   35.0700  -18.8100 N.am      2 ALA2        0.0000 
     31 N         132.5200   35.3100  -20.1600 N.am      2 ALA2        0.0000 
     32 N         132.0800   34.2300  -19.2200 N.am      2 ALA2        0.0000 
     33 N         130.5400   36.5200  -17.3100 N.am      2 ALA2        0.0000 
     34 N         131.7200   35.6900  -17.7200 N.am      2 ALA2        0.0000 
     35 N         132.9000   34.8500  -18.1300 N.am      2 ALA2        0.0000 
     36 O         126.8000   33.4100  -10.7000 O.2       2 ALA2        0.0000 
     37 N         131.3600   37.1400  -16.2200 N.am      2 ALA2        0.0000 
     38 N         132.5400   36.3100  -16.6200 N.am      2 ALA2        0.0000 
     39 O         126.4400   34.8600   -9.1900 O.2       2 ALA2        0.0000 
     40 O         127.6100   34.0300   -9.6000 O.2       2 ALA2        0.0000 
     41 O         127.1700   32.9500   -8.6600 O.2       2 ALA2        0.0000 
     42 N         128.3500   32.1100   -9.0700 N.am      2 ALA2        0.0000 
     43 O         133.3500   36.9300  -15.5300 O.2       2 ALA2        0.0000 
     44 O         132.9100   35.8500  -14.5900 O.2       2 ALA2        0.0000 
     45 N         128.4300   34.6500   -8.5100 N.am      2 ALA2        0.0000 
     46 O         132.4100   33.2200  -10.6700 O.2       2 ALA2        0.0000 
     47 N         131.0100   39.5900  -11.1800 N.am      2 ALA2        0.0000 
     48 N         132.6300   39.8400  -12.5300 N.am      2 ALA2        0.0000 
     49 N         132.1900   38.7600  -11.5900 N.am      2 ALA2        0.0000 
     50 N         132.4900   35.7600  -10.1100 N.am      2 ALA2        0.0000 
     51 N         132.0500   34.6800   -9.1700 N.am      2 ALA2        0.0000 
     52 O         131.6000   33.6000   -8.2300 O.2       2 ALA2        0.0000 
     53 N         133.6600   34.9200  -10.5200 N.am      2 ALA2        0.0000 
     54 O         133.2200   33.8400   -9.5700 O.2       2 ALA2        0.0000 
     55 O         134.8400   34.0900  -10.9200 O.2       2 ALA2        0.0000 
     56 O         134.4000   33.0100   -9.9800 O.2       2 ALA2        0.0000 
     57 O         140.0000   31.8300  -13.4900 O.2       2 ALA2        0.0000 
     58 N         133.4500   40.4600  -11.4300 N.am      2 ALA2        0.0000 
     59 N         134.1900   38.5400  -10.9000 N.am      2 ALA2        0.0000 
     60 N         134.4800   35.5400   -9.4200 N.am      2 ALA2        0.0000 
     61 O         135.6600   34.7100   -9.8300 O.2       2 ALA2        0.0000 
     62 N         135.0000   39.1600   -9.8000 N.am      2 ALA2        0.0000 
     63 N         136.1800   38.3300  -10.2100 N.am      2 ALA2        0.0000 
     64 N         135.7400   37.2500   -9.2700 N.am      2 ALA2        0.0000 
     65 N         135.3000   36.1600   -8.3300 N.am      2 ALA2        0.0000 
     66 N         134.9400   37.6200   -6.8300 N.am      2 ALA2        0.0000 
     67 OD1       130.8200   32.5300  -19.3700 O.co2     3 ASP3        0.0000 
     68 OD1       127.2200   33.4900  -15.1700 O.co2     3 ASP3        0.0000 
     69 OD1       128.4000   32.6600  -15.5800 O.co2     3 ASP3        0.0000 
     70 OD1       127.9600   31.5800  -14.6400 O.co2     3 ASP3        0.0000 
     71 OD1       130.4600   33.9800  -17.8700 O.co2     3 ASP3        0.0000 
     72 OD1       130.0200   32.9000  -16.9300 O.co2     3 ASP3        0.0000 
     73 OD1       129.5800   31.8200  -15.9900 O.co2     3 ASP3        0.0000 
     74 OD1       131.6400   33.1500  -18.2800 O.co2     3 ASP3        0.0000 
     75 OD1       133.2600   33.4000  -19.6300 O.co2     3 ASP3        0.0000 
     76 OD1       127.6000   33.0300  -13.1400 O.co2     3 ASP3        0.0000 
     77 OD1       129.6600   34.3600  -15.4300 O.co2     3 ASP3        0.0000 
     78 OD1       129.2200   33.2800  -14.4900 O.co2     3 ASP3        0.0000 
     79 OD1       131.2800   34.6000  -16.7800 O.co2     3 ASP3        0.0000 
     80 OD1       130.4000   32.4400  -14.8900 O.co2     3 ASP3        0.0000 
     81 OD1       129.7400   36.8900  -14.8700 O.co2     3 ASP3        0.0000 
     82 OD1       128.4200   33.6500  -12.0400 O.co2     3 ASP3        0.0000 
     83 OD1       130.9200   36.0600  -15.2800 O.co2     3 ASP3        0.0000 
     84 OD1       130.4800   34.9800  -14.3300 O.co2     3 ASP3        0.0000 
     85 OD1       130.0300   33.9000  -13.3900 O.co2     3 ASP3        0.0000 
     86 OD1       129.5900   32.8200  -12.4500 O.co2     3 ASP3        0.0000 
     87 OD1       132.0900   35.2200  -15.6800 O.co2     3 ASP3        0.0000 
     88 OD1       131.6500   34.1400  -14.7400 O.co2     3 ASP3        0.0000 
     89 OD1       128.0500   35.1100  -10.5400 O.co2     3 ASP3        0.0000 
     90 OD1       130.5600   37.5100  -13.7800 O.co2     3 ASP3        0.0000 
     91 OD1       130.1100   36.4300  -12.8300 O.co2     3 ASP3        0.0000 
     92 OD1       129.6700   35.3500  -11.8900 O.co2     3 ASP3        0.0000 
     93 OD1       129.2300   34.2700  -10.9500 O.co2     3 ASP3        0.0000 
     94 OD1       131.2900   35.6000  -13.2400 O.co2     3 ASP3        0.0000 
     95 OD1       130.8500   34.5200  -12.3000 O.co2     3 ASP3        0.0000 
     96 OD1       132.4700   34.7600  -13.6500 O.co2     3 ASP3        0.0000 
     97 OD1       132.0300   33.6800  -12.7000 O.co2     3 ASP3        0.0000 
     98 OD1       131.5900   32.6000  -11.7600 O.co2     3 ASP3        0.0000 
     99 OD1       134.0900   35.0100  -14.9900 O.co2     3 ASP3        0.0000 
    100 OD1       132.7700   31.7700  -12.1700 O.co2     3 ASP3        0.0000 
    101 OD1       126.9600   38.4800   -9.5800 O.co2     3 ASP3        0.0000 
    102 OD1       128.5800   38.7200  -10.9300 O.co2     3 ASP3        0.0000 
    103 OD1       128.1300   37.6400   -9.9800 O.co2     3 ASP3        0.0000 
    104 OD1       130.1900   38.9700  -12.2700 O.co2     3 ASP3        0.0000 
    105 OD1       129.7500   37.8900  -11.3300 O.co2     3 ASP3        0.0000 
    106 OD1       129.3100   36.8100  -10.3900 O.co2     3 ASP3        0.0000 
    107 OD1       131.3700   38.1400  -12.6800 O.co2     3 ASP3        0.0000 
    108 OD1       130.9300   37.0500  -11.7400 O.co2     3 ASP3        0.0000 
    109 OD1       130.4900   35.9700  -10.8000 O.co2     3 ASP3        0.0000 
    110 OD1       134.9100   35.6300  -13.9000 O.co2     3 ASP3        0.0000 
    111 OD1       134.4700   34.5500  -12.9600 O.co2     3 ASP3        0.0000 
    112 OD1       134.0300   33.4700  -12.0200 O.co2     3 ASP3        0.0000 
    113 OD1       133.5800   32.3900  -11.0700 O.co2     3 ASP3        0.0000 
    114 OD1       134.7600   31.5500  -11.4800 O.co2     3 ASP3        0.0000 
    115 OD1       136.8200   32.8800  -13.7700 O.co2     3 ASP3        0.0000 
    116 OD1       136.3800   31.8000  -12.8300 O.co2     3 ASP3        0.0000 
    117 OD1       134.5500   37.0900  -12.4000 O.co2     3 ASP3        0.0000 
    118 OD1       134.1100   36.0100  -11.4600 O.co2     3 ASP3        0.0000 
    119 OD1       135.2800   35.1700  -11.8600 O.co2     3 ASP3        0.0000 
    120 OD1       136.4600   34.3400  -12.2700 O.co2     3 ASP3        0.0000 
    121 OD1       136.0200   33.2500  -11.3300 O.co2     3 ASP3        0.0000 
    122 OD1       137.6400   33.5000  -12.6800 O.co2     3 ASP3        0.0000 
    123 OD1       137.2000   32.4200  -11.7400 O.co2     3 ASP3        0.0000 
    124 OD1       135.3600   37.7100  -11.3100 O.co2     3 ASP3        0.0000 
    125 OD1       134.9200   36.6300  -10.3600 O.co2     3 ASP3        0.0000 
    126 OD1       136.1000   35.7900  -10.7700 O.co2     3 ASP3        0.0000 
    127 OD1       136.8400   33.8700  -10.2300 O.co2     3 ASP3        0.0000 
    128 OD1       138.4600   34.1200  -11.5800 O.co2     3 ASP3        0.0000 
    129 OD1       136.9200   36.4100   -9.6800 O.co2     3 ASP3        0.0000 
    130 OD1       138.1000   35.5800  -10.0800 O.co2     3 ASP3        0.0000 
    131 NZ        129.3500   36.3600  -20.4400 N.4       4 LYS4        0.0000 
    132 NZ        128.9100   35.2800  -19.5000 N.4       4 LYS4        0.0000 
    133 NZ        127.6600   34.5700  -16.1200 N.4       4 LYS4        0.0000 
    134 NZ        129.7200   35.9000  -18.4100 N.4       4 LYS4        0.0000 
    135 NZ        129.2800   34.8200  -17.4600 N.4       4 LYS4        0.0000 
    136 NZ        128.8400   33.7400  -16.5200 N.4       4 LYS4        0.0000 
    137 NZ        128.9200   36.2700  -15.9600 N.4       4 LYS4        0.0000 
    138 NZ        130.1000   35.4400  -16.3700 N.4       4 LYS4        0.0000 
    139 NZ        135.9400   30.7200  -11.8900 N.4       4 LYS4        0.0000 
    140 CZ        137.5600   30.9600  -13.2400 C.ar      5 PHE5        0.0000 
    141 CZ        138.3800   31.5800  -12.1400 C.ar      5 PHE5        0.0000 
    142 CA        129.1900   31.2900  -21.5600 C.3       6 GLY6        0.0000 
    143 CA        129.7100   34.9100  -21.9400 C.3       6 GLY6        0.0000 
    144 CA        129.2700   33.8200  -21.0000 C.3       6 GLY6        0.0000 
    145 CA        128.6100   38.2800  -20.9800 C.3       6 GLY6        0.0000 
    146 CA        128.4700   34.2000  -18.5600 C.3       6 GLY6        0.0000 
    147 CA        130.9700   36.6100  -21.7900 C.3       6 GLY6        0.0000 
    148 CA        130.0800   34.4400  -19.9100 C.3       6 GLY6        0.0000 
    149 CA        129.9400   30.3700  -17.4900 C.3       6 GLY6        0.0000 
    150 CA        133.7000   34.4800  -20.5700 C.3       6 GLY6        0.0000 
    151 CA        127.9700   32.5700  -11.1000 C.3       6 GLY6        0.0000 
    152 CA        129.1500   31.7400  -11.5100 C.3       6 GLY6        0.0000 
    153 CA        126.8800   35.9400  -10.1400 C.3       6 GLY6        0.0000 
    154 CA        132.1700   37.7600  -15.1200 C.3       6 GLY6        0.0000 
    155 CA        129.9700   32.3600  -10.4100 C.3       6 GLY6        0.0000 
    156 CA        132.3300   30.6900  -11.2300 C.3       6 GLY6        0.0000 
    157 CA        127.6900   36.5600   -9.0400 C.3       6 GLY6        0.0000 
    158 CA        131.8100   39.2200  -13.6200 C.3       6 GLY6        0.0000 
    159 CA        129.1700   32.7300   -7.9700 C.3       6 GLY6        0.0000 
    160 CA        132.5500   37.3000  -13.0900 C.3       6 GLY6        0.0000 
    161 CA        133.7300   36.4700  -13.4900 C.3       6 GLY6        0.0000 
    162 CA        138.0000   32.0500  -14.1800 C.3       6 GLY6        0.0000 
    163 CA        127.7700   39.1000   -8.4800 C.3       6 GLY6        0.0000 
    164 CA        128.5100   37.1800   -7.9500 C.3       6 GLY6        0.0000 
    165 CA        133.8100   39.0000  -12.9400 C.3       6 GLY6        0.0000 
    166 CA        133.3700   37.9200  -11.9900 C.3       6 GLY6        0.0000 
    167 CA        139.2600   33.7500  -14.0300 C.3       6 GLY6        0.0000 
    168 CA        138.8200   32.6700  -13.0800 C.3       6 GLY6        0.0000 
    169 CA        139.6300   33.2900  -11.9900 C.3       6 GLY6        0.0000 
    170 CA        135.8200   39.7800   -8.7100 C.3       6 GLY6        0.0000 
    171 DU        131.2600   33.6100  -20.3100 H         7 CUB7        0.0000 
    172 DU        128.7900   33.1900  -10.0100 H         7 CUB7        0.0000 
    173 DU        131.7300   36.6800  -14.1800 H         7 CUB7        0.0000 
    174 DU        130.4100   33.4400  -11.3600 H         7 CUB7        0.0000 
    175 DU        128.8700   35.7300   -9.4500 H         7 CUB7        0.0000 
    176 DU        130.0500   34.8900   -9.8600 H         7 CUB7        0.0000 
    177 DU        129.6100   33.8100   -8.9100 H         7 CUB7        0.0000 
    178 DU        132.1100   36.2200  -12.1500 H         7 CUB7        0.0000 
    179 DU        131.6700   35.1400  -11.2000 H         7 CUB7        0.0000 
    180 DU        131.2300   34.0600  -10.2600 H         7 CUB7        0.0000 
    181 DU        133.2900   35.3800  -12.5500 H         7 CUB7        0.0000 
    182 DU        132.8500   34.3000  -11.6100 H         7 CUB7        0.0000 
    183 DU        132.9300   36.8400  -11.0500 H         7 CUB7        0.0000 
    184 DU        138.0200   33.0400  -10.6400 H         7 CUB7        0.0000 
    185 DU        139.1900   32.2100  -11.0500 H         7 CUB7        0.0000 
@<TRIPOS>BOND
@<TRIPOS>SUBSTRUCTURE
     1 SER1        1 GROUP   
     2 ALA2       19 GROUP   
     3 ASP3       67 GROUP   
     4 LYS4      131 GROUP   
     5 PHE5      140 GROUP   
     6 GLY6      142 GROUP   
     7 CUB7      171 GROUP   
@<TRIPOS>SET

