#    Name: 6ckl_1_C5P_CAVITY_N1_4
#    Modification time : Fri May 22 19:26:53 2020

@<TRIPOS>MOLECULE
6ckl_1_C5P_CAVITY_N1_4
  111     0     6     0     0
SMALL
NO_CHARGES


@<TRIPOS>ATOM
      1 OG        130.7900   32.9800   -9.3200 O.3       1 SER1        0.0000 
      2 OG        131.9700   32.1400   -9.7300 O.3       1 SER1        0.0000 
      3 OG        133.1400   31.3100  -10.1300 O.3       1 SER1        0.0000 
      4 OG        129.3900   39.3400   -9.8300 O.3       1 SER1        0.0000 
      5 OG        128.9500   38.2600   -8.8900 O.3       1 SER1        0.0000 
      6 OG        130.5700   38.5100  -10.2400 O.3       1 SER1        0.0000 
      7 OG        130.1300   37.4300   -9.3000 O.3       1 SER1        0.0000 
      8 OG        131.7500   37.6700  -10.6500 O.3       1 SER1        0.0000 
      9 OG        131.3100   36.5900   -9.7000 O.3       1 SER1        0.0000 
     10 OG        133.0100   39.3800  -10.4900 O.3       1 SER1        0.0000 
     11 OG        133.7400   37.4600   -9.9600 O.3       1 SER1        0.0000 
     12 O         126.8000   33.4100  -10.7000 O.2       2 ALA2        0.0000 
     13 N         132.5400   36.3100  -16.6200 N.am      2 ALA2        0.0000 
     14 O         126.4400   34.8600   -9.1900 O.2       2 ALA2        0.0000 
     15 O         127.6100   34.0300   -9.6000 O.2       2 ALA2        0.0000 
     16 O         127.1700   32.9500   -8.6600 O.2       2 ALA2        0.0000 
     17 N         128.3500   32.1100   -9.0700 N.am      2 ALA2        0.0000 
     18 O         133.3500   36.9300  -15.5300 O.2       2 ALA2        0.0000 
     19 O         132.9100   35.8500  -14.5900 O.2       2 ALA2        0.0000 
     20 N         128.4300   34.6500   -8.5100 N.am      2 ALA2        0.0000 
     21 O         132.4100   33.2200  -10.6700 O.2       2 ALA2        0.0000 
     22 N         131.0100   39.5900  -11.1800 N.am      2 ALA2        0.0000 
     23 N         132.1900   38.7600  -11.5900 N.am      2 ALA2        0.0000 
     24 N         132.4900   35.7600  -10.1100 N.am      2 ALA2        0.0000 
     25 N         132.0500   34.6800   -9.1700 N.am      2 ALA2        0.0000 
     26 O         131.6000   33.6000   -8.2300 O.2       2 ALA2        0.0000 
     27 N         133.6600   34.9200  -10.5200 N.am      2 ALA2        0.0000 
     28 O         133.2200   33.8400   -9.5700 O.2       2 ALA2        0.0000 
     29 O         134.8400   34.0900  -10.9200 O.2       2 ALA2        0.0000 
     30 O         134.4000   33.0100   -9.9800 O.2       2 ALA2        0.0000 
     31 N         134.1900   38.5400  -10.9000 N.am      2 ALA2        0.0000 
     32 N         134.4800   35.5400   -9.4200 N.am      2 ALA2        0.0000 
     33 O         135.6600   34.7100   -9.8300 O.2       2 ALA2        0.0000 
     34 OD1       127.6000   33.0300  -13.1400 O.co2     3 ASP3        0.0000 
     35 OD1       129.6600   34.3600  -15.4300 O.co2     3 ASP3        0.0000 
     36 OD1       129.2200   33.2800  -14.4900 O.co2     3 ASP3        0.0000 
     37 OD1       131.2800   34.6000  -16.7800 O.co2     3 ASP3        0.0000 
     38 OD1       130.4000   32.4400  -14.8900 O.co2     3 ASP3        0.0000 
     39 OD1       129.7400   36.8900  -14.8700 O.co2     3 ASP3        0.0000 
     40 OD1       128.4200   33.6500  -12.0400 O.co2     3 ASP3        0.0000 
     41 OD1       130.9200   36.0600  -15.2800 O.co2     3 ASP3        0.0000 
     42 OD1       130.4800   34.9800  -14.3300 O.co2     3 ASP3        0.0000 
     43 OD1       130.0300   33.9000  -13.3900 O.co2     3 ASP3        0.0000 
     44 OD1       129.5900   32.8200  -12.4500 O.co2     3 ASP3        0.0000 
     45 OD1       132.0900   35.2200  -15.6800 O.co2     3 ASP3        0.0000 
     46 OD1       131.6500   34.1400  -14.7400 O.co2     3 ASP3        0.0000 
     47 OD1       128.0500   35.1100  -10.5400 O.co2     3 ASP3        0.0000 
     48 OD1       130.5600   37.5100  -13.7800 O.co2     3 ASP3        0.0000 
     49 OD1       130.1100   36.4300  -12.8300 O.co2     3 ASP3        0.0000 
     50 OD1       129.6700   35.3500  -11.8900 O.co2     3 ASP3        0.0000 
     51 OD1       129.2300   34.2700  -10.9500 O.co2     3 ASP3        0.0000 
     52 OD1       131.2900   35.6000  -13.2400 O.co2     3 ASP3        0.0000 
     53 OD1       130.8500   34.5200  -12.3000 O.co2     3 ASP3        0.0000 
     54 OD1       132.4700   34.7600  -13.6500 O.co2     3 ASP3        0.0000 
     55 OD1       132.0300   33.6800  -12.7000 O.co2     3 ASP3        0.0000 
     56 OD1       131.5900   32.6000  -11.7600 O.co2     3 ASP3        0.0000 
     57 OD1       134.0900   35.0100  -14.9900 O.co2     3 ASP3        0.0000 
     58 OD1       132.7700   31.7700  -12.1700 O.co2     3 ASP3        0.0000 
     59 OD1       126.9600   38.4800   -9.5800 O.co2     3 ASP3        0.0000 
     60 OD1       128.5800   38.7200  -10.9300 O.co2     3 ASP3        0.0000 
     61 OD1       128.1300   37.6400   -9.9800 O.co2     3 ASP3        0.0000 
     62 OD1       130.1900   38.9700  -12.2700 O.co2     3 ASP3        0.0000 
     63 OD1       129.7500   37.8900  -11.3300 O.co2     3 ASP3        0.0000 
     64 OD1       129.3100   36.8100  -10.3900 O.co2     3 ASP3        0.0000 
     65 OD1       131.3700   38.1400  -12.6800 O.co2     3 ASP3        0.0000 
     66 OD1       130.9300   37.0500  -11.7400 O.co2     3 ASP3        0.0000 
     67 OD1       130.4900   35.9700  -10.8000 O.co2     3 ASP3        0.0000 
     68 OD1       134.9100   35.6300  -13.9000 O.co2     3 ASP3        0.0000 
     69 OD1       134.4700   34.5500  -12.9600 O.co2     3 ASP3        0.0000 
     70 OD1       134.0300   33.4700  -12.0200 O.co2     3 ASP3        0.0000 
     71 OD1       133.5800   32.3900  -11.0700 O.co2     3 ASP3        0.0000 
     72 OD1       134.7600   31.5500  -11.4800 O.co2     3 ASP3        0.0000 
     73 OD1       136.8200   32.8800  -13.7700 O.co2     3 ASP3        0.0000 
     74 OD1       136.3800   31.8000  -12.8300 O.co2     3 ASP3        0.0000 
     75 OD1       134.5500   37.0900  -12.4000 O.co2     3 ASP3        0.0000 
     76 OD1       134.1100   36.0100  -11.4600 O.co2     3 ASP3        0.0000 
     77 OD1       135.2800   35.1700  -11.8600 O.co2     3 ASP3        0.0000 
     78 OD1       136.4600   34.3400  -12.2700 O.co2     3 ASP3        0.0000 
     79 OD1       136.0200   33.2500  -11.3300 O.co2     3 ASP3        0.0000 
     80 OD1       137.2000   32.4200  -11.7400 O.co2     3 ASP3        0.0000 
     81 OD1       135.3600   37.7100  -11.3100 O.co2     3 ASP3        0.0000 
     82 OD1       134.9200   36.6300  -10.3600 O.co2     3 ASP3        0.0000 
     83 OD1       136.1000   35.7900  -10.7700 O.co2     3 ASP3        0.0000 
     84 OD1       136.8400   33.8700  -10.2300 O.co2     3 ASP3        0.0000 
     85 NZ        130.1000   35.4400  -16.3700 N.4       4 LYS4        0.0000 
     86 NZ        135.9400   30.7200  -11.8900 N.4       4 LYS4        0.0000 
     87 CA        127.9700   32.5700  -11.1000 C.3       5 GLY6        0.0000 
     88 CA        129.1500   31.7400  -11.5100 C.3       5 GLY6        0.0000 
     89 CA        126.8800   35.9400  -10.1400 C.3       5 GLY6        0.0000 
     90 CA        129.9700   32.3600  -10.4100 C.3       5 GLY6        0.0000 
     91 CA        132.3300   30.6900  -11.2300 C.3       5 GLY6        0.0000 
     92 CA        127.6900   36.5600   -9.0400 C.3       5 GLY6        0.0000 
     93 CA        129.1700   32.7300   -7.9700 C.3       5 GLY6        0.0000 
     94 CA        132.5500   37.3000  -13.0900 C.3       5 GLY6        0.0000 
     95 CA        133.7300   36.4700  -13.4900 C.3       5 GLY6        0.0000 
     96 CA        127.7700   39.1000   -8.4800 C.3       5 GLY6        0.0000 
     97 CA        128.5100   37.1800   -7.9500 C.3       5 GLY6        0.0000 
     98 CA        133.8100   39.0000  -12.9400 C.3       5 GLY6        0.0000 
     99 CA        133.3700   37.9200  -11.9900 C.3       5 GLY6        0.0000 
    100 DU        128.7900   33.1900  -10.0100 H         6 CUB7        0.0000 
    101 DU        131.7300   36.6800  -14.1800 H         6 CUB7        0.0000 
    102 DU        130.4100   33.4400  -11.3600 H         6 CUB7        0.0000 
    103 DU        128.8700   35.7300   -9.4500 H         6 CUB7        0.0000 
    104 DU        130.0500   34.8900   -9.8600 H         6 CUB7        0.0000 
    105 DU        129.6100   33.8100   -8.9100 H         6 CUB7        0.0000 
    106 DU        132.1100   36.2200  -12.1500 H         6 CUB7        0.0000 
    107 DU        131.6700   35.1400  -11.2000 H         6 CUB7        0.0000 
    108 DU        131.2300   34.0600  -10.2600 H         6 CUB7        0.0000 
    109 DU        133.2900   35.3800  -12.5500 H         6 CUB7        0.0000 
    110 DU        132.8500   34.3000  -11.6100 H         6 CUB7        0.0000 
    111 DU        132.9300   36.8400  -11.0500 H         6 CUB7        0.0000 
@<TRIPOS>BOND
@<TRIPOS>SUBSTRUCTURE
     1 SER1        1 GROUP   
     2 ALA2       12 GROUP   
     3 ASP3       34 GROUP   
     4 LYS4       85 GROUP   
     5 GLY6       87 GROUP   
     6 CUB7      100 GROUP   
@<TRIPOS>SET

