#    Name: 6ckl_2_C5P_CAVITY_N1_4
#    Modification time : Fri May 22 19:27:01 2020

@<TRIPOS>MOLECULE
6ckl_2_C5P_CAVITY_N1_4
  130     0     6     0     0
SMALL
NO_CHARGES


@<TRIPOS>ATOM
      1 OG        155.2300   18.4400  -19.3300 O.3       1 SER1        0.0000 
      2 OG        156.8500   18.6900  -20.6800 O.3       1 SER1        0.0000 
      3 OG        158.0300   17.8500  -21.0900 O.3       1 SER1        0.0000 
      4 OG        159.2100   17.0200  -21.4900 O.3       1 SER1        0.0000 
      5 OG        160.9800   22.3400  -21.7200 O.3       1 SER1        0.0000 
      6 OG        161.7200   20.4200  -21.1900 O.3       1 SER1        0.0000 
      7 OG        162.9000   19.5900  -21.6000 O.3       1 SER1        0.0000 
      8 OG        164.0800   18.7500  -22.0000 O.3       1 SER1        0.0000 
      9 OG        161.8000   22.9600  -20.6300 O.3       1 SER1        0.0000 
     10 OG        162.9800   22.1200  -21.0400 O.3       1 SER1        0.0000 
     11 OG        162.5400   21.0400  -20.0900 O.3       1 SER1        0.0000 
     12 OG        163.7200   20.2100  -20.5000 O.3       1 SER1        0.0000 
     13 O         155.6700   19.5200  -20.2700 O.2       2 ALA2        0.0000 
     14 N         160.3800   16.1800  -21.9000 N.am      2 ALA2        0.0000 
     15 N         159.9400   15.1000  -20.9600 N.am      2 ALA2        0.0000 
     16 O         157.3700   22.3000  -21.0600 O.2       2 ALA2        0.0000 
     17 O         156.9300   21.2200  -20.1200 O.2       2 ALA2        0.0000 
     18 N         158.9900   22.5500  -22.4100 N.am      2 ALA2        0.0000 
     19 N         158.5500   21.4700  -21.4700 N.am      2 ALA2        0.0000 
     20 O         158.1100   20.3900  -20.5300 O.2       2 ALA2        0.0000 
     21 O         157.6700   19.3100  -19.5900 O.2       2 ALA2        0.0000 
     22 N         159.2900   19.5500  -20.9400 N.am      2 ALA2        0.0000 
     23 O         158.8400   18.4700  -19.9900 O.2       2 ALA2        0.0000 
     24 N         160.4600   18.7200  -21.3400 N.am      2 ALA2        0.0000 
     25 N         161.6400   17.8800  -21.7500 N.am      2 ALA2        0.0000 
     26 N         161.2000   16.8000  -20.8100 N.am      2 ALA2        0.0000 
     27 N         160.7600   15.7200  -19.8600 N.am      2 ALA2        0.0000 
     28 N         160.3200   14.6400  -18.9200 N.am      2 ALA2        0.0000 
     29 N         162.8200   17.0500  -22.1500 N.am      2 ALA2        0.0000 
     30 N         162.3800   15.9700  -21.2100 N.am      2 ALA2        0.0000 
     31 O         161.9400   14.8900  -20.2700 O.2       2 ALA2        0.0000 
     32 O         163.5600   15.1300  -21.6200 O.2       2 ALA2        0.0000 
     33 N         159.8100   23.1700  -21.3200 N.am      2 ALA2        0.0000 
     34 N         159.3700   22.0900  -20.3800 N.am      2 ALA2        0.0000 
     35 N         160.5400   21.2600  -20.7800 N.am      2 ALA2        0.0000 
     36 N         160.1000   20.1700  -19.8400 N.am      2 ALA2        0.0000 
     37 O         164.3700   15.7500  -20.5200 O.2       2 ALA2        0.0000 
     38 N         160.6200   23.7900  -20.2200 N.am      2 ALA2        0.0000 
     39 N         159.8200   24.1700  -17.7800 N.am      2 ALA2        0.0000 
     40 O         159.3800   23.0900  -16.8400 O.2       2 ALA2        0.0000 
     41 N         162.6200   23.5800  -19.5400 N.am      2 ALA2        0.0000 
     42 N         163.8000   22.7400  -19.9400 N.am      2 ALA2        0.0000 
     43 N         163.3600   21.6600  -19.0000 N.am      2 ALA2        0.0000 
     44 N         164.5300   20.8300  -19.4100 N.am      2 ALA2        0.0000 
     45 N         165.7100   19.9900  -19.8100 N.am      2 ALA2        0.0000 
     46 O         160.9400   21.7900  -15.2100 O.2       2 ALA2        0.0000 
     47 N         164.1700   22.2800  -17.9100 N.am      2 ALA2        0.0000 
     48 OD1       155.3100   20.9800  -18.7700 O.co2     3 ASP3        0.0000 
     49 OD1       154.8700   19.9000  -17.8300 O.co2     3 ASP3        0.0000 
     50 OD1       156.4900   20.1400  -19.1800 O.co2     3 ASP3        0.0000 
     51 OD1       156.0500   19.0600  -18.2400 O.co2     3 ASP3        0.0000 
     52 OD1       156.5700   22.6800  -18.6200 O.co2     3 ASP3        0.0000 
     53 OD1       158.1900   22.9300  -19.9700 O.co2     3 ASP3        0.0000 
     54 OD1       157.7500   21.8400  -19.0300 O.co2     3 ASP3        0.0000 
     55 OD1       157.3100   20.7600  -18.0900 O.co2     3 ASP3        0.0000 
     56 OD1       158.4800   19.9300  -18.4900 O.co2     3 ASP3        0.0000 
     57 OD1       158.0400   18.8500  -17.5500 O.co2     3 ASP3        0.0000 
     58 OD1       157.6000   17.7700  -16.6100 O.co2     3 ASP3        0.0000 
     59 OD1       159.2200   18.0100  -17.9600 O.co2     3 ASP3        0.0000 
     60 OD1       160.8400   18.2600  -19.3100 O.co2     3 ASP3        0.0000 
     61 OD1       159.9600   16.1000  -17.4200 O.co2     3 ASP3        0.0000 
     62 OD1       162.4600   18.5100  -20.6500 O.co2     3 ASP3        0.0000 
     63 OD1       162.0200   17.4200  -19.7100 O.co2     3 ASP3        0.0000 
     64 OD1       161.5800   16.3400  -18.7700 O.co2     3 ASP3        0.0000 
     65 OD1       163.6400   17.6700  -21.0600 O.co2     3 ASP3        0.0000 
     66 OD1       163.2000   16.5900  -20.1200 O.co2     3 ASP3        0.0000 
     67 OD1       162.7600   15.5100  -19.1800 O.co2     3 ASP3        0.0000 
     68 OD1       165.2600   17.9200  -22.4100 O.co2     3 ASP3        0.0000 
     69 OD1       164.8200   16.8400  -21.4700 O.co2     3 ASP3        0.0000 
     70 OD1       157.3900   23.3000  -17.5300 O.co2     3 ASP3        0.0000 
     71 OD1       158.5600   22.4600  -17.9300 O.co2     3 ASP3        0.0000 
     72 OD1       160.1800   22.7100  -19.2800 O.co2     3 ASP3        0.0000 
     73 OD1       159.3000   20.5500  -17.4000 O.co2     3 ASP3        0.0000 
     74 OD1       158.8600   19.4700  -16.4600 O.co2     3 ASP3        0.0000 
     75 OD1       160.4800   19.7100  -17.8000 O.co2     3 ASP3        0.0000 
     76 OD1       160.0400   18.6300  -16.8600 O.co2     3 ASP3        0.0000 
     77 OD1       159.6000   17.5500  -15.9200 O.co2     3 ASP3        0.0000 
     78 OD1       162.1000   19.9600  -19.1500 O.co2     3 ASP3        0.0000 
     79 OD1       161.6600   18.8800  -18.2100 O.co2     3 ASP3        0.0000 
     80 OD1       161.2200   17.8000  -17.2700 O.co2     3 ASP3        0.0000 
     81 OD1       160.7800   16.7200  -16.3300 O.co2     3 ASP3        0.0000 
     82 OD1       161.9500   15.8800  -16.7300 O.co2     3 ASP3        0.0000 
     83 OD1       164.9000   19.3700  -20.9100 O.co2     3 ASP3        0.0000 
     84 OD1       164.4500   18.2900  -19.9700 O.co2     3 ASP3        0.0000 
     85 OD1       166.5100   19.6200  -22.2600 O.co2     3 ASP3        0.0000 
     86 OD1       166.0700   18.5400  -21.3100 O.co2     3 ASP3        0.0000 
     87 OD1       165.6300   17.4600  -20.3700 O.co2     3 ASP3        0.0000 
     88 OD1       158.9400   22.0000  -15.9000 O.co2     3 ASP3        0.0000 
     89 OD1       160.1200   21.1700  -16.3000 O.co2     3 ASP3        0.0000 
     90 OD1       161.7400   21.4200  -17.6500 O.co2     3 ASP3        0.0000 
     91 OD1       161.3000   20.3300  -16.7100 O.co2     3 ASP3        0.0000 
     92 OD1       160.8600   19.2500  -15.7700 O.co2     3 ASP3        0.0000 
     93 OD1       160.4100   18.1700  -14.8300 O.co2     3 ASP3        0.0000 
     94 OD1       159.9700   17.0900  -13.8800 O.co2     3 ASP3        0.0000 
     95 OD1       161.5900   17.3400  -15.2300 O.co2     3 ASP3        0.0000 
     96 OD1       166.8900   19.1600  -20.2200 O.co2     3 ASP3        0.0000 
     97 OD1       160.4900   20.7100  -14.2700 O.co2     3 ASP3        0.0000 
     98 OD1       162.1100   20.9500  -15.6200 O.co2     3 ASP3        0.0000 
     99 OD1       161.6700   19.8700  -14.6700 O.co2     3 ASP3        0.0000 
    100 OD1       161.2300   18.7900  -13.7300 O.co2     3 ASP3        0.0000 
    101 OD1       163.7300   21.2000  -16.9600 O.co2     3 ASP3        0.0000 
    102 NZ        154.4900   20.3600  -19.8700 N.4       4 LYS4        0.0000 
    103 NZ        154.0500   19.2800  -18.9300 N.4       4 LYS4        0.0000 
    104 NZ        155.6100   17.9800  -17.3000 N.4       4 LYS4        0.0000 
    105 CA        154.7900   17.3600  -18.3900 C.3       5 GLY6        0.0000 
    106 CA        158.7600   15.9400  -20.5500 C.3       5 GLY6        0.0000 
    107 CA        157.2300   18.2300  -18.6400 C.3       5 GLY6        0.0000 
    108 CA        156.7800   17.1500  -17.7000 C.3       5 GLY6        0.0000 
    109 CA        158.4000   17.3900  -19.0500 C.3       5 GLY6        0.0000 
    110 CA        159.5800   16.5600  -19.4600 C.3       5 GLY6        0.0000 
    111 CA        159.1400   15.4800  -18.5200 C.3       5 GLY6        0.0000 
    112 CA        164.0000   16.2200  -22.5600 C.3       5 GLY6        0.0000 
    113 CA        161.1400   15.2600  -17.8300 C.3       5 GLY6        0.0000 
    114 CA        160.7000   14.1800  -16.8900 C.3       5 GLY6        0.0000 
    115 CA        162.3100   14.4300  -18.2300 C.3       5 GLY6        0.0000 
    116 CA        161.5100   14.8000  -15.7900 C.3       5 GLY6        0.0000 
    117 CA        165.3400   20.4500  -21.8500 C.3       5 GLY6        0.0000 
    118 CA        161.0000   23.3300  -18.1900 C.3       5 GLY6        0.0000 
    119 CA        160.5600   22.2500  -17.2500 C.3       5 GLY6        0.0000 
    120 CA        162.1800   22.5000  -18.5900 C.3       5 GLY6        0.0000 
    121 CA        162.5500   22.0400  -16.5600 C.3       5 GLY6        0.0000 
    122 DU        155.7500   22.0600  -19.7200 H         6 CUB7        0.0000 
    123 DU        160.0200   17.6400  -20.4000 H         6 CUB7        0.0000 
    124 DU        158.9200   21.0100  -19.4300 H         6 CUB7        0.0000 
    125 DU        159.6600   19.0900  -18.9000 H         6 CUB7        0.0000 
    126 DU        161.2800   19.3400  -20.2500 H         6 CUB7        0.0000 
    127 DU        160.4000   17.1800  -18.3600 H         6 CUB7        0.0000 
    128 DU        159.7400   21.6300  -18.3400 H         6 CUB7        0.0000 
    129 DU        161.3600   21.8800  -19.6900 H         6 CUB7        0.0000 
    130 DU        160.9200   20.8000  -18.7500 H         6 CUB7        0.0000 
@<TRIPOS>BOND
@<TRIPOS>SUBSTRUCTURE
     1 SER1        1 GROUP   
     2 ALA2       13 GROUP   
     3 ASP3       48 GROUP   
     4 LYS4      102 GROUP   
     5 GLY6      105 GROUP   
     6 CUB7      122 GROUP   
@<TRIPOS>SET

