#    Name: 6ckl_2_C5P
#    Modification time : Fri May 22 19:26:59 2020

@<TRIPOS>MOLECULE
6ckl_2_C5P
   21    22     1     0     0
SMALL
NO_CHARGES


@<TRIPOS>ATOM
      1 O3P       159.9950   19.2680  -17.0880 O.co2     1 C5P303      0.0000 
      2 P         159.2990   19.5630  -18.3840 P.3       1 C5P303      0.0000 
      3 O1P       160.0610   20.5310  -19.2280 O.co2     1 C5P303      0.0000 
      4 O2P       157.7950   19.8120  -18.4540 O.co2     1 C5P303      0.0000 
      5 O5'       159.6390   18.2300  -19.1930 O.3       1 C5P303      0.0000 
      6 C5'       159.4040   18.2050  -20.6170 C.3       1 C5P303      0.0000 
      7 C4'       159.7750   16.8670  -21.2310 C.3       1 C5P303      0.0000 
      8 O4'       161.0240   17.0080  -21.8860 O.3       1 C5P303      0.0000 
      9 C3'       160.0010   15.7790  -20.2160 C.3       1 C5P303      0.0000 
     10 O3'       159.8450   14.5970  -20.9460 O.3       1 C5P303      0.0000 
     11 C2'       161.4320   15.9820  -19.7860 C.3       1 C5P303      0.0000 
     12 O2'       162.0120   14.7870  -19.2950 O.3       1 C5P303      0.0000 
     13 C1'       162.0560   16.4030  -21.0940 C.3       1 C5P303      0.0000 
     14 N1        163.1900   17.3230  -20.9640 N.am      1 C5P303      0.0000 
     15 C2        164.4730   16.8870  -21.3170 C.2       1 C5P303      0.0000 
     16 N3        165.5170   17.7470  -21.2170 N.2       1 C5P303      0.0000 
     17 C4        165.3680   19.0170  -20.8090 C.2       1 C5P303      0.0000 
     18 C5        164.1100   19.4580  -20.4740 C.2       1 C5P303      0.0000 
     19 C6        163.0290   18.5880  -20.5640 C.2       1 C5P303      0.0000 
     20 O2        164.6550   15.7100  -21.7090 O.2       1 C5P303      0.0000 
     21 N4        166.4390   19.8380  -20.7290 N.pl3     1 C5P303      0.0000 
@<TRIPOS>BOND
     1    1    2 ar   
     2    2    3 ar   
     3    2    4 ar   
     4    2    5 1    
     5    5    6 1    
     6    6    7 1    
     7    7    8 1    
     8    7    9 1    
     9    8   13 1    
    10    9   10 1    
    11    9   11 1    
    12   11   12 1    
    13   11   13 1    
    14   13   14 1    
    15   14   15 am   
    16   14   19 1    
    17   15   16 1    
    18   15   20 2    
    19   16   17 2    
    20   17   18 1    
    21   17   21 1    
    22   18   19 2    
@<TRIPOS>SUBSTRUCTURE
     1 C5P303      1 GROUP   
@<TRIPOS>SET

