#    Name: 6iy2_1_ADP
#    Modification time : Fri May 22 19:25:00 2020

@<TRIPOS>MOLECULE
6iy2_1_ADP
   27    29     1     0     1
SMALL
NO_CHARGES


@<TRIPOS>ATOM
      1 PB         94.3170   94.6450  103.3080 P.3       1 ADP2000     0.0000 
      2 O1B        95.5090   95.1290  102.5230 O.co2     1 ADP2000     0.0000 
      3 O2B        94.3160   93.1680  103.6060 O.co2     1 ADP2000     0.0000 
      4 O3B        93.9150   95.5050  104.4750 O.co2     1 ADP2000     0.0000 
      5 PA         92.5380   96.3080  101.9870 P.3       1 ADP2000     0.0000 
      6 O1A        93.6800   97.1970  101.5730 O.co2     1 ADP2000     0.0000 
      7 O2A        91.6170   96.7000  103.1130 O.co2     1 ADP2000     0.0000 
      8 O3A        93.0990   94.8400  102.2980 O.3       1 ADP2000     0.0000 
      9 O5'        91.6710   95.9390  100.6910 O.3       1 ADP2000     0.0000 
     10 C5'        91.0140   96.9060   99.8910 C.3       1 ADP2000     0.0000 
     11 C4'        90.8300   96.2650   98.5250 C.3       1 ADP2000     0.0000 
     12 O4'        89.9950   95.1070   98.6000 O.3       1 ADP2000     0.0000 
     13 C3'        90.1700   97.2120   97.5460 C.3       1 ADP2000     0.0000 
     14 O3'        91.1590   97.7740   96.6810 O.3       1 ADP2000     0.0000 
     15 C2'        89.2070   96.3480   96.7610 C.3       1 ADP2000     0.0000 
     16 O2'        89.6080   96.3050   95.3900 O.3       1 ADP2000     0.0000 
     17 C1'        89.2950   94.9530   97.3640 C.3       1 ADP2000     0.0000 
     18 N9         87.9340   94.3870   97.5760 N.pl3     1 ADP2000     0.0000 
     19 C8         87.4050   94.0320   98.7600 C.2       1 ADP2000     0.0000 
     20 N7         86.1450   93.5490   98.6170 N.2       1 ADP2000     0.0000 
     21 C5         85.8570   93.5750   97.3070 C.ar      1 ADP2000     0.0000 
     22 C6         84.7010   93.1960   96.4640 C.ar      1 ADP2000     0.0000 
     23 N6         83.5770   92.6820   97.0150 N.pl3     1 ADP2000     0.0000 
     24 N1         84.8010   93.3790   95.1300 N.ar      1 ADP2000     0.0000 
     25 C2         85.9120   93.8840   94.5710 C.ar      1 ADP2000     0.0000 
     26 N3         86.9970   94.2450   95.2740 N.ar      1 ADP2000     0.0000 
     27 C4         87.0370   94.1180   96.6230 C.ar      1 ADP2000     0.0000 
@<TRIPOS>BOND
     1    1    2 ar   
     2    1    3 ar   
     3    1    4 ar   
     4    1    8 1    
     5    5    6 ar   
     6    5    7 ar   
     7    5    8 1    
     8    5    9 1    
     9    9   10 1    
    10   10   11 1    
    11   11   12 1    
    12   11   13 1    
    13   12   17 1    
    14   13   14 1    
    15   13   15 1    
    16   15   16 1    
    17   15   17 1    
    18   17   18 1    
    19   18   19 1    
    20   18   27 1    
    21   19   20 2    
    22   20   21 1    
    23   21   22 ar   
    24   21   27 ar   
    25   22   23 1    
    26   22   24 ar   
    27   24   25 ar   
    28   25   26 ar   
    29   26   27 ar   
@<TRIPOS>SUBSTRUCTURE
     1 ADP2000     1 GROUP   
@<TRIPOS>SET
ATOM$ORANGE STATIC     ATOMS   COLORGROUP SYSTEM 
20 10 10 11 11 13 13 15 15 17 17 19 19 21 21 22 22 25 \
25 27 27 

