#    Name: 6bq3_2_DSH
#    Modification time : Fri May 22 19:30:43 2020

@<TRIPOS>MOLECULE
6bq3_2_DSH
   23    25     1     0     0
SMALL
NO_CHARGES


@<TRIPOS>ATOM
      1 N          20.5570   39.2320   17.7220 N.4       1 DSH401      0.0000 
      2 N1         24.2840   51.6280   16.7570 N.ar      1 DSH401      0.0000 
      3 C2         22.8870   51.3990   16.8140 C.ar      1 DSH401      0.0000 
      4 N3         22.3320   50.2220   16.1660 N.ar      1 DSH401      0.0000 
      5 C4         23.2310   49.2970   15.4170 C.ar      1 DSH401      0.0000 
      6 C5         24.5710   49.5150   15.3590 C.ar      1 DSH401      0.0000 
      7 C6         25.1550   50.7380   16.0630 C.ar      1 DSH401      0.0000 
      8 N6         26.5620   51.0110   16.0380 N.pl3     1 DSH401      0.0000 
      9 N7         25.1240   48.5280   14.6450 N.2       1 DSH401      0.0000 
     10 C8         24.1300   47.6920   14.2440 C.2       1 DSH401      0.0000 
     11 N9         22.9440   48.1730   14.7350 N.pl3     1 DSH401      0.0000 
     12 CA         20.4240   40.6790   17.9200 C.3       1 DSH401      0.0000 
     13 CB         20.9250   41.4740   16.6990 C.3       1 DSH401      0.0000 
     14 SD         20.5340   42.8630   14.4260 S.3       1 DSH401      0.0000 
     15 CG         19.7850   42.1740   15.9360 C.3       1 DSH401      0.0000 
     16 C1'        21.7060   47.6680   14.6280 C.3       1 DSH401      0.0000 
     17 C2'        21.2680   47.0370   13.2360 C.3       1 DSH401      0.0000 
     18 O2'        20.7370   48.1440   12.3890 O.3       1 DSH401      0.0000 
     19 C3'        20.3820   46.1770   13.5340 C.3       1 DSH401      0.0000 
     20 O3'        19.0390   46.7250   13.7370 O.3       1 DSH401      0.0000 
     21 C4'        20.8370   45.5760   14.9970 C.3       1 DSH401      0.0000 
     22 O4'        21.5750   46.5060   15.5700 O.3       1 DSH401      0.0000 
     23 C5'        21.6260   44.2980   14.7890 C.3       1 DSH401      0.0000 
@<TRIPOS>BOND
     1    1   12 1    
     2    2    3 ar   
     3    2    7 ar   
     4    3    4 ar   
     5    4    5 ar   
     6    5    6 ar   
     7    5   11 1    
     8    6    7 ar   
     9    6    9 1    
    10    7    8 1    
    11    9   10 2    
    12   10   11 1    
    13   11   16 1    
    14   12   13 1    
    15   13   15 1    
    16   14   15 1    
    17   14   23 1    
    18   16   17 1    
    19   16   22 1    
    20   17   18 1    
    21   17   19 1    
    22   19   20 1    
    23   19   21 1    
    24   21   22 1    
    25   21   23 1    
@<TRIPOS>SUBSTRUCTURE
     1 DSH401      1 GROUP   
@<TRIPOS>SET

