#    Name: 6bq3_1_DSH_CAVITY_N1_4
#    Modification time : Fri May 22 19:30:40 2020

@<TRIPOS>MOLECULE
6bq3_1_DSH_CAVITY_N1_4
   57     0     4     0     0
SMALL
NO_CHARGES


@<TRIPOS>ATOM
      1 N          14.6200   -2.0700   19.8300 N.am      1 ALA2        0.0000 
      2 N          17.4700   -0.0500   16.6200 N.am      1 ALA2        0.0000 
      3 N          16.2700    0.5100   15.9100 N.am      1 ALA2        0.0000 
      4 N          16.6400   -0.2700   17.8500 N.am      1 ALA2        0.0000 
      5 N          15.8100   -0.4800   19.0800 N.am      1 ALA2        0.0000 
      6 N          14.9700   -0.7000   20.3100 N.am      1 ALA2        0.0000 
      7 N          19.0200    0.7600   17.8100 N.am      1 ALA2        0.0000 
      8 N          17.8200    1.3200   17.1000 N.am      1 ALA2        0.0000 
      9 N          16.6300    1.8800   16.3900 N.am      1 ALA2        0.0000 
     10 N          16.9900    1.1100   18.3300 N.am      1 ALA2        0.0000 
     11 N          19.0100    2.9100   16.3600 N.am      1 ALA2        0.0000 
     12 N          17.8100    3.4700   15.6500 N.am      1 ALA2        0.0000 
     13 N          19.7400    1.3600   20.2400 N.am      1 ALA2        0.0000 
     14 O          18.5500    1.9200   19.5300 O.2       1 ALA2        0.0000 
     15 O          17.3500    2.4800   18.8200 O.2       1 ALA2        0.0000 
     16 N          18.9100    1.1500   21.4700 N.am      1 ALA2        0.0000 
     17 O          18.1700    4.8500   16.1300 O.2       1 ALA2        0.0000 
     18 N          20.1000    2.7400   20.7200 N.am      1 ALA2        0.0000 
     19 O          18.9000    3.3000   20.0100 O.2       1 ALA2        0.0000 
     20 N          20.0900    4.8900   19.2600 N.am      1 ALA2        0.0000 
     21 O          18.8900    5.4500   18.5500 O.2       1 ALA2        0.0000 
     22 N          20.4600    4.1100   21.2000 N.am      1 ALA2        0.0000 
     23 N          21.6500    5.7000   20.4500 N.am      1 ALA2        0.0000 
     24 N          20.4500    6.2600   19.7400 N.am      1 ALA2        0.0000 
     25 N          19.6200    6.0500   20.9700 N.am      1 ALA2        0.0000 
     26 N          18.4200    6.6100   20.2600 N.am      1 ALA2        0.0000 
     27 NZ         19.0300   -1.3900   19.2700 N.4       2 LYS4        0.0000 
     28 NZ         18.2000   -1.6000   20.5000 N.4       2 LYS4        0.0000 
     29 NZ         19.3900   -0.0100   19.7500 N.4       2 LYS4        0.0000 
     30 NZ         20.8100    5.4900   21.6800 N.4       2 LYS4        0.0000 
     31 CA         15.4600   -4.0100   20.0600 C.3       3 GLY6        0.0000 
     32 CA         16.2800   -1.6400   17.3700 C.3       3 GLY6        0.0000 
     33 CA         16.6500   -2.4200   19.3100 C.3       3 GLY6        0.0000 
     34 CA         15.4500   -1.8600   18.6000 C.3       3 GLY6        0.0000 
     35 CA         17.0100   -3.1900   21.2500 C.3       3 GLY6        0.0000 
     36 CA         15.8100   -2.6300   20.5400 C.3       3 GLY6        0.0000 
     37 CA         14.9800   -2.8500   21.7700 C.3       3 GLY6        0.0000 
     38 CA         17.8300   -0.8300   18.5600 C.3       3 GLY6        0.0000 
     39 CA         15.4400    0.2900   17.1400 C.3       3 GLY6        0.0000 
     40 CA         17.0000   -1.0400   19.7900 C.3       3 GLY6        0.0000 
     41 CA         17.3700   -1.8200   21.7300 C.3       3 GLY6        0.0000 
     42 CA         16.1700   -1.2600   21.0200 C.3       3 GLY6        0.0000 
     43 CA         18.5600   -0.2300   20.9800 C.3       3 GLY6        0.0000 
     44 CA         17.3600    0.3300   20.2700 C.3       3 GLY6        0.0000 
     45 CA         20.5700    1.5800   19.0100 C.3       3 GLY6        0.0000 
     46 CA         19.3800    2.1400   18.3000 C.3       3 GLY6        0.0000 
     47 CA         18.1800    2.7000   17.5900 C.3       3 GLY6        0.0000 
     48 CA         17.7200    1.7100   20.7600 C.3       3 GLY6        0.0000 
     49 CA         19.3700    4.2900   16.8400 C.3       3 GLY6        0.0000 
     50 CA         20.9300    2.9500   19.4900 C.3       3 GLY6        0.0000 
     51 CA         19.7300    3.5100   18.7800 C.3       3 GLY6        0.0000 
     52 CA         18.5400    4.0700   18.0700 C.3       3 GLY6        0.0000 
     53 CA         22.1200    4.5500   18.7400 C.3       3 GLY6        0.0000 
     54 CA         20.9200    5.1000   18.0300 C.3       3 GLY6        0.0000 
     55 CA         19.2600    4.6700   20.4900 C.3       3 GLY6        0.0000 
     56 DU         18.1900    0.5500   19.0400 H         4 CUB7        0.0000 
     57 DU         21.2900    4.3300   19.9700 H         4 CUB7        0.0000 
@<TRIPOS>BOND
@<TRIPOS>SUBSTRUCTURE
     1 ALA2        1 GROUP   
     2 LYS4       27 GROUP   
     3 GLY6       31 GROUP   
     4 CUB7       56 GROUP   
@<TRIPOS>SET

