#    Name: 6bq3_1_DSH
#    Modification time : Fri May 22 19:30:38 2020

@<TRIPOS>MOLECULE
6bq3_1_DSH
   23    25     1     0     0
SMALL
NO_CHARGES


@<TRIPOS>ATOM
      1 N          19.4610    8.3800   21.4670 N.4       1 DSH401      0.0000 
      2 N1         16.0280   -3.9920   22.2230 N.ar      1 DSH401      0.0000 
      3 C2         17.4060   -3.7440   22.5090 C.ar      1 DSH401      0.0000 
      4 N3         18.1250   -2.7510   21.7130 N.ar      1 DSH401      0.0000 
      5 C4         17.4070   -2.0070   20.6150 C.ar      1 DSH401      0.0000 
      6 C5         16.1000   -2.2500   20.3540 C.ar      1 DSH401      0.0000 
      7 C6         15.3410   -3.3000   21.1830 C.ar      1 DSH401      0.0000 
      8 N6         13.9490   -3.6050   20.9440 N.pl3     1 DSH401      0.0000 
      9 N7         15.7310   -1.4590   19.3390 N.2       1 DSH401      0.0000 
     10 C8         16.8070   -0.7210   18.9750 C.2       1 DSH401      0.0000 
     11 N9         17.8540   -1.0640   19.7620 N.pl3     1 DSH401      0.0000 
     12 CA         20.4580    7.3200   21.2980 C.3       1 DSH401      0.0000 
     13 CB         19.7530    6.0040   20.8980 C.3       1 DSH401      0.0000 
     14 SD         20.2380    4.1460   18.8390 S.3       1 DSH401      0.0000 
     15 CG         20.7860    4.9700   20.3710 C.3       1 DSH401      0.0000 
     16 C1'        19.1120   -0.5660   19.7830 C.3       1 DSH401      0.0000 
     17 C2'        19.7700   -0.1960   18.3910 C.3       1 DSH401      0.0000 
     18 O2'        20.3800   -1.4160   17.7340 O.3       1 DSH401      0.0000 
     19 C3'        20.6120    0.7030   18.6840 C.3       1 DSH401      0.0000 
     20 O3'        21.9080    0.2240   19.2050 O.3       1 DSH401      0.0000 
     21 C4'        19.9090    1.5800   19.8970 C.3       1 DSH401      0.0000 
     22 O4'        19.1220    0.7520   20.5320 O.3       1 DSH401      0.0000 
     23 C5'        19.1390    2.7520   19.3240 C.3       1 DSH401      0.0000 
@<TRIPOS>BOND
     1    1   12 1    
     2    2    3 ar   
     3    2    7 ar   
     4    3    4 ar   
     5    4    5 ar   
     6    5    6 ar   
     7    5   11 1    
     8    6    7 ar   
     9    6    9 1    
    10    7    8 1    
    11    9   10 2    
    12   10   11 1    
    13   11   16 1    
    14   12   13 1    
    15   13   15 1    
    16   14   15 1    
    17   14   23 1    
    18   16   17 1    
    19   16   22 1    
    20   17   18 1    
    21   17   19 1    
    22   19   20 1    
    23   19   21 1    
    24   21   22 1    
    25   21   23 1    
@<TRIPOS>SUBSTRUCTURE
     1 DSH401      1 GROUP   
@<TRIPOS>SET

