#    Name: 6ohu_2_CTX
#    Modification time : Fri May 22 19:26:43 2020

@<TRIPOS>MOLECULE
6ohu_2_CTX
   28    30     1     0     0
SMALL
NO_CHARGES


@<TRIPOS>ATOM
      1 CA        -23.7110  -29.8920   83.5740 C.3       1 CTX301      0.0000 
      2 CB        -22.9640  -28.6920   84.1610 C.3       1 CTX301      0.0000 
      3 OL        -15.0120  -29.4350   83.8450 O.3       1 CTX301      0.0000 
      4 CA1       -14.5780  -30.2970   84.8940 C.3       1 CTX301      0.0000 
      5 CB1       -13.6210  -31.3280   84.2920 C.3       1 CTX301      0.0000 
      6 C1        -16.3530  -29.3600   83.9930 C.ar      1 CTX301      0.0000 
      7 C2        -16.8660  -28.8070   85.1530 C.ar      1 CTX301      0.0000 
      8 C3        -18.2270  -28.7290   85.3130 C.ar      1 CTX301      0.0000 
      9 C5        -18.5650  -29.7610   83.1610 C.ar      1 CTX301      0.0000 
     10 C6        -17.1960  -29.8370   83.0010 C.ar      1 CTX301      0.0000 
     11 C4        -19.0930  -29.1870   84.3190 C.ar      1 CTX301      0.0000 
     12 C7        -20.5440  -29.0840   84.5990 C.2       1 CTX301      0.0000 
     13 C8        -20.8850  -29.5110   85.9680 C.ar      1 CTX301      0.0000 
     14 C9        -20.9040  -30.8740   86.2440 C.ar      1 CTX301      0.0000 
     15 C10       -21.1960  -31.2930   87.5180 C.ar      1 CTX301      0.0000 
     16 C11       -21.4580  -30.3760   88.5190 C.ar      1 CTX301      0.0000 
     17 C12       -21.4260  -29.0190   88.2510 C.ar      1 CTX301      0.0000 
     18 C13       -21.1310  -28.5750   86.9790 C.ar      1 CTX301      0.0000 
     19 C14       -21.1630  -28.2760   80.0320 C.ar      1 CTX301      0.0000 
     20 C15       -20.5670  -27.0330   79.9630 C.ar      1 CTX301      0.0000 
     21 C16       -20.2730  -26.3140   81.1010 C.ar      1 CTX301      0.0000 
     22 C17       -20.5750  -26.8360   82.3360 C.ar      1 CTX301      0.0000 
     23 C18       -21.1780  -28.0920   82.4240 C.ar      1 CTX301      0.0000 
     24 C19       -21.4710  -28.8110   81.2590 C.ar      1 CTX301      0.0000 
     25 C20       -21.5110  -28.6570   83.7390 C.2       1 CTX301      0.0000 
     26 NI        -12.4120  -31.4450   85.1170 N.4       1 CTX301      0.0000 
     27 C21       -11.3730  -31.9880   84.2330 C.3       1 CTX301      0.0000 
     28 C22       -11.9800  -30.0800   85.4590 C.3       1 CTX301      0.0000 
@<TRIPOS>BOND
     1    1    2 1    
     2    2   25 1    
     3    3    4 1    
     4    3    6 1    
     5    4    5 1    
     6    5   26 1    
     7    6    7 ar   
     8    6   10 ar   
     9    7    8 ar   
    10    8   11 ar   
    11    9   10 ar   
    12    9   11 ar   
    13   11   12 1    
    14   12   13 1    
    15   12   25 2    
    16   13   14 ar   
    17   13   18 ar   
    18   14   15 ar   
    19   15   16 ar   
    20   16   17 ar   
    21   17   18 ar   
    22   19   20 ar   
    23   19   24 ar   
    24   20   21 ar   
    25   21   22 ar   
    26   22   23 ar   
    27   23   24 ar   
    28   23   25 1    
    29   26   27 1    
    30   26   28 1    
@<TRIPOS>SUBSTRUCTURE
     1 CTX301      1 GROUP   
@<TRIPOS>SET

