#    Name: 6ohu_1_CTX
#    Modification time : Fri May 22 19:26:38 2020

@<TRIPOS>MOLECULE
6ohu_1_CTX
   28    30     1     0     0
SMALL
NO_CHARGES


@<TRIPOS>ATOM
      1 CA         -8.4940    7.7450   25.9090 C.3       1 CTX301      0.0000 
      2 CB         -9.1070    8.8510   26.7670 C.3       1 CTX301      0.0000 
      3 OL        -17.0700    9.4940   26.2670 O.3       1 CTX301      0.0000 
      4 CA1       -17.3960   10.3430   25.1590 C.3       1 CTX301      0.0000 
      5 CB1       -18.9120   10.5090   25.0210 C.3       1 CTX301      0.0000 
      6 C1        -15.7120    9.4340   26.2620 C.ar      1 CTX301      0.0000 
      7 C2        -14.9850   10.5070   26.7520 C.ar      1 CTX301      0.0000 
      8 C3        -13.6110   10.4530   26.7400 C.ar      1 CTX301      0.0000 
      9 C5        -13.6770    8.2570   25.7400 C.ar      1 CTX301      0.0000 
     10 C6        -15.0570    8.3170   25.7560 C.ar      1 CTX301      0.0000 
     11 C4        -12.9450    9.3230   26.2640 C.ar      1 CTX301      0.0000 
     12 C7        -11.4680    9.3520   26.2310 C.2       1 CTX301      0.0000 
     13 C8        -10.9840   10.2760   25.1830 C.ar      1 CTX301      0.0000 
     14 C9        -11.0830    9.8840   23.8500 C.ar      1 CTX301      0.0000 
     15 C10       -10.6600   10.7500   22.8710 C.ar      1 CTX301      0.0000 
     16 C11       -10.1560   11.9970   23.2030 C.ar      1 CTX301      0.0000 
     17 C12       -10.0670   12.4000   24.5220 C.ar      1 CTX301      0.0000 
     18 C13       -10.4920   11.5470   25.5160 C.ar      1 CTX301      0.0000 
     19 C14       -11.4340    5.2800   28.4750 C.ar      1 CTX301      0.0000 
     20 C15       -11.4720    5.6280   29.8160 C.ar      1 CTX301      0.0000 
     21 C16       -11.2320    6.9270   30.2200 C.ar      1 CTX301      0.0000 
     22 C17       -10.9490    7.8890   29.2780 C.ar      1 CTX301      0.0000 
     23 C18       -10.9250    7.5560   27.9230 C.ar      1 CTX301      0.0000 
     24 C19       -11.1530    6.2330   27.5210 C.ar      1 CTX301      0.0000 
     25 C20       -10.5840    8.5990   26.9470 C.2       1 CTX301      0.0000 
     26 NI        -19.4070    9.7490   23.8670 N.4       1 CTX301      0.0000 
     27 C21       -20.8330   10.0800   23.7540 C.3       1 CTX301      0.0000 
     28 C22       -19.3460    8.3300   24.2400 C.3       1 CTX301      0.0000 
@<TRIPOS>BOND
     1    1    2 1    
     2    2   25 1    
     3    3    4 1    
     4    3    6 1    
     5    4    5 1    
     6    5   26 1    
     7    6    7 ar   
     8    6   10 ar   
     9    7    8 ar   
    10    8   11 ar   
    11    9   10 ar   
    12    9   11 ar   
    13   11   12 1    
    14   12   13 1    
    15   12   25 2    
    16   13   14 ar   
    17   13   18 ar   
    18   14   15 ar   
    19   15   16 ar   
    20   16   17 ar   
    21   17   18 ar   
    22   19   20 ar   
    23   19   24 ar   
    24   20   21 ar   
    25   21   22 ar   
    26   22   23 ar   
    27   23   24 ar   
    28   23   25 1    
    29   26   27 1    
    30   26   28 1    
@<TRIPOS>SUBSTRUCTURE
     1 CTX301      1 GROUP   
@<TRIPOS>SET

