#    Name: 6fd6_1_AMP_CAVITY_N1_4
#    Modification time : Fri May 22 19:31:09 2020

@<TRIPOS>MOLECULE
6fd6_1_AMP_CAVITY_N1_4
   70     0     6     0     0
SMALL
NO_CHARGES


@<TRIPOS>ATOM
      1 OG        -18.7800    7.3600    5.2500 O.3       1 SER1        0.0000 
      2 OG        -17.9100    8.2300    6.1100 O.3       1 SER1        0.0000 
      3 OG        -17.9900    8.9400    8.1000 O.3       1 SER1        0.0000 
      4 OG        -17.0300    9.1100    6.9600 O.3       1 SER1        0.0000 
      5 OG        -17.8000   10.3100    6.5000 O.3       1 SER1        0.0000 
      6 OG        -16.9300   11.1900    7.3500 O.3       1 SER1        0.0000 
      7 O         -20.7100    4.2300    5.1500 O.2       2 ALA2        0.0000 
      8 O         -19.7600    4.4000    4.0000 O.2       2 ALA2        0.0000 
      9 O         -10.1700    4.9500    4.1900 O.2       2 ALA2        0.0000 
     10 N         -15.5100    6.6900    7.8700 N.am      2 ALA2        0.0000 
     11 N         -16.2700    7.9000    7.4100 N.am      2 ALA2        0.0000 
     12 O          -9.3000    5.8300    5.0500 O.2       2 ALA2        0.0000 
     13 N         -10.0600    7.0400    4.5900 N.am      2 ALA2        0.0000 
     14 N          -9.1100    7.2100    3.4400 N.am      2 ALA2        0.0000 
     15 N          -9.8800    8.4100    2.9900 N.am      2 ALA2        0.0000 
     16 O         -15.4000    8.7700    8.2700 O.2       2 ALA2        0.0000 
     17 N          -9.0000    9.2900    3.8400 N.am      2 ALA2        0.0000 
     18 OD1       -20.5200    5.6100    3.5500 O.co2     3 ASP3        0.0000 
     19 OD1       -18.8900    5.2800    4.8600 O.co2     3 ASP3        0.0000 
     20 OD1       -19.6500    6.4800    4.4000 O.co2     3 ASP3        0.0000 
     21 OD1       -18.7000    6.6500    3.2500 O.co2     3 ASP3        0.0000 
     22 OD1       -17.7500    6.8200    2.1100 O.co2     3 ASP3        0.0000 
     23 OD1       -17.0600    6.3200    4.5600 O.co2     3 ASP3        0.0000 
     24 OD1       -17.8300    7.5300    4.1100 O.co2     3 ASP3        0.0000 
     25 OD1       -16.8700    7.7000    2.9600 O.co2     3 ASP3        0.0000 
     26 OD1       -12.7600    5.1200    4.0300 O.co2     3 ASP3        0.0000 
     27 OD1       -15.4300    5.9900    5.8700 O.co2     3 ASP3        0.0000 
     28 OD1       -14.4700    6.1600    4.7200 O.co2     3 ASP3        0.0000 
     29 OD1       -16.1900    7.1900    5.4100 O.co2     3 ASP3        0.0000 
     30 CZ        -10.9300    6.1600    3.7400 C.ar      4 PHE5        0.0000 
     31 CZ        -11.7000    7.3700    3.2800 C.ar      4 PHE5        0.0000 
     32 CZ        -10.7500    7.5400    2.1400 C.ar      4 PHE5        0.0000 
     33 CA        -19.4600    7.8600    2.8000 C.3       5 GLY6        0.0000 
     34 CA        -18.5900    8.7300    3.6500 C.3       5 GLY6        0.0000 
     35 CA        -17.6400    8.9000    2.5000 C.3       5 GLY6        0.0000 
     36 CA        -17.7200    9.6100    4.5000 C.3       5 GLY6        0.0000 
     37 CA        -16.7700    9.7800    3.3600 C.3       5 GLY6        0.0000 
     38 CA        -15.8200    9.9500    2.2100 C.3       5 GLY6        0.0000 
     39 CA        -11.1200    4.7900    5.3400 C.3       5 GLY6        0.0000 
     40 CA        -12.8400    5.8200    6.0300 C.3       5 GLY6        0.0000 
     41 CA        -11.8900    5.9900    4.8900 C.3       5 GLY6        0.0000 
     42 CA        -14.5500    6.8600    6.7200 C.3       5 GLY6        0.0000 
     43 CA        -13.6000    7.0300    5.5800 C.3       5 GLY6        0.0000 
     44 CA        -15.3200    8.0700    6.2700 C.3       5 GLY6        0.0000 
     45 CA        -11.5100    8.7500    1.6800 C.3       5 GLY6        0.0000 
     46 CA        -16.8500   10.4800    5.3500 C.3       5 GLY6        0.0000 
     47 CA        -15.9000   10.6500    4.2100 C.3       5 GLY6        0.0000 
     48 CA        -10.2500    5.6600    6.1900 C.3       5 GLY6        0.0000 
     49 CA        -11.0100    6.8700    5.7400 C.3       5 GLY6        0.0000 
     50 CA        -11.7800    8.0700    5.2800 C.3       5 GLY6        0.0000 
     51 CA        -14.4500    8.9400    7.1200 C.3       5 GLY6        0.0000 
     52 CA        -13.5000    9.1100    5.9700 C.3       5 GLY6        0.0000 
     53 CA        -16.1600    9.9800    7.8100 C.3       5 GLY6        0.0000 
     54 CA        -15.2100   10.1500    6.6600 C.3       5 GLY6        0.0000 
     55 CA         -9.1900    7.9100    5.4400 C.3       5 GLY6        0.0000 
     56 CA         -9.9600    9.1200    4.9900 C.3       5 GLY6        0.0000 
     57 CA         -9.7700   10.4900    3.3800 C.3       5 GLY6        0.0000 
     58 DU        -17.1400    7.0300    6.5600 H         6 CUB7        0.0000 
     59 DU        -16.9500    8.4000    4.9600 H         6 CUB7        0.0000 
     60 DU        -16.0000    8.5700    3.8100 H         6 CUB7        0.0000 
     61 DU        -12.6500    7.2000    4.4300 H         6 CUB7        0.0000 
     62 DU        -14.3700    8.2400    5.1200 H         6 CUB7        0.0000 
     63 DU        -13.4200    8.4100    3.9700 H         6 CUB7        0.0000 
     64 DU        -12.4600    8.5800    2.8300 H         6 CUB7        0.0000 
     65 DU        -16.0800    9.2800    5.8100 H         6 CUB7        0.0000 
     66 DU        -15.1300    9.4400    4.6600 H         6 CUB7        0.0000 
     67 DU        -13.2300    9.7800    2.3700 H         6 CUB7        0.0000 
     68 DU        -14.9400   10.8200    3.0600 H         6 CUB7        0.0000 
     69 DU        -10.8300    8.2400    4.1300 H         6 CUB7        0.0000 
     70 DU        -10.6400    9.6200    2.5300 H         6 CUB7        0.0000 
@<TRIPOS>BOND
@<TRIPOS>SUBSTRUCTURE
     1 SER1        1 GROUP   
     2 ALA2        7 GROUP   
     3 ASP3       18 GROUP   
     4 PHE5       30 GROUP   
     5 GLY6       33 GROUP   
     6 CUB7       58 GROUP   
@<TRIPOS>SET

