#    Name: 6fd6_1_AMP
#    Modification time : Fri May 22 19:31:08 2020

@<TRIPOS>MOLECULE
6fd6_1_AMP
   23    25     1     0     1
SMALL
NO_CHARGES


@<TRIPOS>ATOM
      1 P         -16.5930   11.2600    8.1660 P.3       1 AMP200      0.0000 
      2 O1P       -15.6490   12.2580    7.5410 O.co2     1 AMP200      0.0000 
      3 O2P       -16.2040   10.8310    9.5470 O.co2     1 AMP200      0.0000 
      4 O3P       -18.0640   11.5960    8.0320 O.co2     1 AMP200      0.0000 
      5 O5'       -16.3930   10.0400    7.1590 O.3       1 AMP200      0.0000 
      6 C5'       -16.6150    8.7520    7.6810 C.3       1 AMP200      0.0000 
      7 C4'       -17.2230    7.8760    6.6030 C.3       1 AMP200      0.0000 
      8 O4'       -16.4730    7.8860    5.3790 O.3       1 AMP200      0.0000 
      9 C3'       -17.1420    6.5110    7.1980 C.3       1 AMP200      0.0000 
     10 O3'       -18.3660    5.8400    6.8950 O.3       1 AMP200      0.0000 
     11 C2'       -15.8750    5.9400    6.5830 C.3       1 AMP200      0.0000 
     12 O2'       -16.1260    4.5880    6.2180 O.3       1 AMP200      0.0000 
     13 C1'       -15.5340    6.7990    5.3470 C.3       1 AMP200      0.0000 
     14 N9        -14.1020    7.2700    5.3260 N.pl3     1 AMP200      0.0000 
     15 C8        -13.6730    8.5370    5.5350 C.2       1 AMP200      0.0000 
     16 N7        -12.3080    8.6350    5.4600 N.2       1 AMP200      0.0000 
     17 C5        -11.8290    7.3880    5.1850 C.ar      1 AMP200      0.0000 
     18 C6        -10.4950    6.7640    4.9660 C.ar      1 AMP200      0.0000 
     19 N6         -9.3550    7.4930    5.0300 N.pl3     1 AMP200      0.0000 
     20 N1        -10.4430    5.4260    4.7190 N.ar      1 AMP200      0.0000 
     21 C2        -11.5640    4.6850    4.6500 C.ar      1 AMP200      0.0000 
     22 N3        -12.8050    5.1790    4.8260 N.ar      1 AMP200      0.0000 
     23 C4        -13.0160    6.5010    5.1020 C.ar      1 AMP200      0.0000 
@<TRIPOS>BOND
     1    1    2 ar   
     2    1    3 ar   
     3    1    4 ar   
     4    1    5 1    
     5    5    6 1    
     6    6    7 1    
     7    7    8 1    
     8    7    9 1    
     9    8   13 1    
    10    9   10 1    
    11    9   11 1    
    12   11   12 1    
    13   11   13 1    
    14   13   14 1    
    15   14   15 1    
    16   14   23 1    
    17   15   16 2    
    18   16   17 1    
    19   17   18 ar   
    20   17   23 ar   
    21   18   19 1    
    22   18   20 ar   
    23   20   21 ar   
    24   21   22 ar   
    25   22   23 ar   
@<TRIPOS>SUBSTRUCTURE
     1 AMP200      1 GROUP   
@<TRIPOS>SET
ATOM$ORANGE STATIC     ATOMS   COLORGROUP SYSTEM 
20 6 6 7 7 9 9 11 11 13 13 15 15 17 17 18 18 21 \
21 23 23 

