#    Name: 5yu1_5_NAD
#    Modification time : Fri May 22 19:25:30 2020

@<TRIPOS>MOLECULE
5yu1_5_NAD
   44    48     1     0     1
SMALL
NO_CHARGES


@<TRIPOS>ATOM
      1 PA        278.9020  -33.9840   26.3600 P.3       1 NAD402      0.0000 
      2 O1A       278.1500  -35.2760   26.5040 O.co2     1 NAD402      0.0000 
      3 O2A       280.2430  -33.7420   27.0300 O.co2     1 NAD402      0.0000 
      4 O5B       277.9590  -32.7430   26.7480 O.3       1 NAD402      0.0000 
      5 C5B       276.6180  -32.7010   26.2840 C.3       1 NAD402      0.0000 
      6 C4B       275.7820  -32.1570   27.4300 C.3       1 NAD402      0.0000 
      7 O4B       274.4880  -31.7910   26.9440 O.3       1 NAD402      0.0000 
      8 C3B       275.5600  -33.1800   28.5470 C.3       1 NAD402      0.0000 
      9 O3B       275.9680  -32.6020   29.7980 O.3       1 NAD402      0.0000 
     10 C2B       274.0570  -33.4250   28.5290 C.3       1 NAD402      0.0000 
     11 O2B       273.4710  -33.6510   29.8110 O.3       1 NAD402      0.0000 
     12 C1B       273.5560  -32.1080   27.9740 C.3       1 NAD402      0.0000 
     13 N9A       272.1980  -32.1370   27.4110 N.pl3     1 NAD402      0.0000 
     14 C8A       271.5660  -33.1470   26.7660 C.2       1 NAD402      0.0000 
     15 N7A       270.3190  -32.7490   26.3670 N.2       1 NAD402      0.0000 
     16 C5A       270.1550  -31.4680   26.7800 C.ar      1 NAD402      0.0000 
     17 C6A       269.0990  -30.4410   26.7230 C.ar      1 NAD402      0.0000 
     18 N6A       267.9060  -30.6870   26.1300 N.pl3     1 NAD402      0.0000 
     19 N1A       269.3630  -29.2410   27.2780 N.ar      1 NAD402      0.0000 
     20 C2A       270.5210  -28.9490   27.8840 C.ar      1 NAD402      0.0000 
     21 N3A       271.5250  -29.8340   27.9900 N.ar      1 NAD402      0.0000 
     22 C4A       271.3990  -31.0750   27.4640 C.ar      1 NAD402      0.0000 
     23 O3        279.1100  -33.7360   24.7730 O.3       1 NAD402      0.0000 
     24 PN        280.0220  -32.6040   24.0970 P.3       1 NAD402      0.0000 
     25 O1N       279.9340  -31.3150   24.8720 O.co2     1 NAD402      0.0000 
     26 O2N       281.3520  -33.2140   23.7020 O.co2     1 NAD402      0.0000 
     27 O5D       279.2580  -32.4340   22.6760 O.3       1 NAD402      0.0000 
     28 C5D       277.9910  -31.7620   22.6120 C.3       1 NAD402      0.0000 
     29 C4D       277.5270  -31.6450   21.1590 C.3       1 NAD402      0.0000 
     30 O4D       278.5020  -30.9360   20.4030 O.3       1 NAD402      0.0000 
     31 C3D       277.3430  -32.9900   20.4720 C.3       1 NAD402      0.0000 
     32 O3D       276.1830  -32.9360   19.6020 O.3       1 NAD402      0.0000 
     33 C2D       278.6050  -33.1140   19.6400 C.3       1 NAD402      0.0000 
     34 O2D       278.4850  -34.0180   18.5420 O.3       1 NAD402      0.0000 
     35 C1D       278.8000  -31.6740   19.2130 C.3       1 NAD402      0.0000 
     36 N1N       280.1250  -31.3340   18.7000 N.pl3     1 NAD402      0.0000 
     37 C2N       280.1810  -30.4470   17.6980 C.ar      1 NAD402      0.0000 
     38 C3N       281.3940  -30.0480   17.1580 C.ar      1 NAD402      0.0000 
     39 C7N       281.4080  -29.0500   16.0510 C.2       1 NAD402      0.0000 
     40 O7N       282.4350  -28.8990   15.4130 O.2       1 NAD402      0.0000 
     41 N7N       280.3020  -28.3210   15.7990 N.am      1 NAD402      0.0000 
     42 C4N       282.5820  -30.5760   17.6680 C.ar      1 NAD402      0.0000 
     43 C5N       282.4920  -31.4800   18.7270 C.ar      1 NAD402      0.0000 
     44 C6N       281.2490  -31.8400   19.2390 C.ar      1 NAD402      0.0000 
@<TRIPOS>BOND
     1    1    2 ar   
     2    1    3 ar   
     3    1    4 1    
     4    1   23 1    
     5    4    5 1    
     6    5    6 1    
     7    6    7 1    
     8    6    8 1    
     9    7   12 1    
    10    8    9 1    
    11    8   10 1    
    12   10   11 1    
    13   10   12 1    
    14   12   13 1    
    15   13   14 1    
    16   13   22 1    
    17   14   15 2    
    18   15   16 1    
    19   16   17 ar   
    20   16   22 ar   
    21   17   18 1    
    22   17   19 ar   
    23   19   20 ar   
    24   20   21 ar   
    25   21   22 ar   
    26   23   24 1    
    27   24   25 ar   
    28   24   26 ar   
    29   24   27 1    
    30   27   28 1    
    31   28   29 1    
    32   29   30 1    
    33   29   31 1    
    34   30   35 1    
    35   31   32 1    
    36   31   33 1    
    37   33   34 1    
    38   33   35 1    
    39   35   36 1    
    40   36   37 ar   
    41   36   44 ar   
    42   37   38 ar   
    43   38   39 1    
    44   38   42 ar   
    45   39   40 2    
    46   39   41 am   
    47   42   43 ar   
    48   43   44 ar   
@<TRIPOS>SUBSTRUCTURE
     1 NAD402      1 GROUP   
@<TRIPOS>SET
ATOM$ORANGE STATIC     ATOMS   COLORGROUP SYSTEM 
42 5 5 6 6 8 8 10 10 12 12 14 14 16 16 17 17 20 \
20 22 22 28 28 29 29 31 31 33 33 35 35 37 37 38 38 39 \
39 42 42 43 43 44 44 

