#    Name: 5yu1_4_NAD
#    Modification time : Fri May 22 19:25:39 2020

@<TRIPOS>MOLECULE
5yu1_4_NAD
   44    48     1     0     1
SMALL
NO_CHARGES


@<TRIPOS>ATOM
      1 PA        297.2010   -6.4620   74.8990 P.3       1 NAD402      0.0000 
      2 O1A       297.6110   -5.3310   74.0060 O.co2     1 NAD402      0.0000 
      3 O2A       295.8940   -7.1780   74.6680 O.co2     1 NAD402      0.0000 
      4 O5B       297.2640   -6.0080   76.4380 O.3       1 NAD402      0.0000 
      5 C5B       298.3950   -5.3250   76.9420 C.3       1 NAD402      0.0000 
      6 C4B       297.8730   -4.2310   77.8590 C.3       1 NAD402      0.0000 
      7 O4B       298.9600   -3.6360   78.5710 O.3       1 NAD402      0.0000 
      8 C3B       297.1720   -3.0960   77.1170 C.3       1 NAD402      0.0000 
      9 O3B       295.8060   -3.0500   77.5800 O.3       1 NAD402      0.0000 
     10 C2B       297.9620   -1.8520   77.5050 C.3       1 NAD402      0.0000 
     11 O2B       297.1790   -0.6680   77.6920 O.3       1 NAD402      0.0000 
     12 C1B       298.5910   -2.2810   78.8170 C.3       1 NAD402      0.0000 
     13 N9A       299.8010   -1.5590   79.2530 N.pl3     1 NAD402      0.0000 
     14 C8A       300.8170   -1.0600   78.5040 C.2       1 NAD402      0.0000 
     15 N7A       301.7570   -0.4880   79.3150 N.2       1 NAD402      0.0000 
     16 C5A       301.3210   -0.6370   80.5880 C.ar      1 NAD402      0.0000 
     17 C6A       301.8050   -0.2820   81.9290 C.ar      1 NAD402      0.0000 
     18 N6A       302.9690    0.3760   82.0580 N.pl3     1 NAD402      0.0000 
     19 N1A       301.0490   -0.6210   82.9970 N.ar      1 NAD402      0.0000 
     20 C2A       299.8750   -1.2680   82.8750 C.ar      1 NAD402      0.0000 
     21 N3A       299.3530   -1.6180   81.6940 N.ar      1 NAD402      0.0000 
     22 C4A       300.0420   -1.3450   80.5430 C.ar      1 NAD402      0.0000 
     23 O3        298.4050   -7.5350   74.8160 O.3       1 NAD402      0.0000 
     24 PN        298.4100   -9.0240   75.4200 P.3       1 NAD402      0.0000 
     25 O1N       297.6690   -9.0550   76.7400 O.co2     1 NAD402      0.0000 
     26 O2N       297.9810   -9.9560   74.3090 O.co2     1 NAD402      0.0000 
     27 O5D       299.9720   -9.2090   75.6900 O.3       1 NAD402      0.0000 
     28 C5D       300.6110   -8.6520   76.8500 C.3       1 NAD402      0.0000 
     29 C4D       302.0750   -9.0770   76.9280 C.3       1 NAD402      0.0000 
     30 O4D       302.1930  -10.4880   77.1480 O.3       1 NAD402      0.0000 
     31 C3D       302.8310   -8.7850   75.6420 C.3       1 NAD402      0.0000 
     32 O3D       304.1620   -8.4370   76.0390 O.3       1 NAD402      0.0000 
     33 C2D       302.8590  -10.1300   74.9410 C.3       1 NAD402      0.0000 
     34 O2D       303.9110  -10.2350   73.9770 O.3       1 NAD402      0.0000 
     35 C1D       303.0380  -11.0450   76.1410 C.3       1 NAD402      0.0000 
     36 N1N       302.6820  -12.4420   75.9010 N.pl3     1 NAD402      0.0000 
     37 C2N       303.3630  -13.3620   76.5890 C.ar      1 NAD402      0.0000 
     38 C3N       303.1040  -14.7120   76.4380 C.ar      1 NAD402      0.0000 
     39 C7N       303.8890  -15.7210   77.2340 C.2       1 NAD402      0.0000 
     40 O7N       303.7990  -16.9080   76.9700 O.2       1 NAD402      0.0000 
     41 N7N       304.6350  -15.3080   78.2590 N.am      1 NAD402      0.0000 
     42 C4N       302.0820  -15.1020   75.5750 C.ar      1 NAD402      0.0000 
     43 C5N       301.3540  -14.1180   74.8960 C.ar      1 NAD402      0.0000 
     44 C6N       301.6770  -12.7770   75.0800 C.ar      1 NAD402      0.0000 
@<TRIPOS>BOND
     1    1    2 ar   
     2    1    3 ar   
     3    1    4 1    
     4    1   23 1    
     5    4    5 1    
     6    5    6 1    
     7    6    7 1    
     8    6    8 1    
     9    7   12 1    
    10    8    9 1    
    11    8   10 1    
    12   10   11 1    
    13   10   12 1    
    14   12   13 1    
    15   13   14 1    
    16   13   22 1    
    17   14   15 2    
    18   15   16 1    
    19   16   17 ar   
    20   16   22 ar   
    21   17   18 1    
    22   17   19 ar   
    23   19   20 ar   
    24   20   21 ar   
    25   21   22 ar   
    26   23   24 1    
    27   24   25 ar   
    28   24   26 ar   
    29   24   27 1    
    30   27   28 1    
    31   28   29 1    
    32   29   30 1    
    33   29   31 1    
    34   30   35 1    
    35   31   32 1    
    36   31   33 1    
    37   33   34 1    
    38   33   35 1    
    39   35   36 1    
    40   36   37 ar   
    41   36   44 ar   
    42   37   38 ar   
    43   38   39 1    
    44   38   42 ar   
    45   39   40 2    
    46   39   41 am   
    47   42   43 ar   
    48   43   44 ar   
@<TRIPOS>SUBSTRUCTURE
     1 NAD402      1 GROUP   
@<TRIPOS>SET
ATOM$ORANGE STATIC     ATOMS   COLORGROUP SYSTEM 
42 5 5 6 6 8 8 10 10 12 12 14 14 16 16 17 17 20 \
20 22 22 28 28 29 29 31 31 33 33 35 35 37 37 38 38 39 \
39 42 42 43 43 44 44 

