#    Name: 6nhg_1_AZO
#    Modification time : Fri May 22 19:33:58 2020

@<TRIPOS>MOLECULE
6nhg_1_AZO
   47    49     1     0     0
SMALL
NO_CHARGES


@<TRIPOS>ATOM
      1 N1         74.9230   53.6670  164.5280 N.1       1 AZO1003     0.0000 
      2 C1         74.0020   53.8070  163.8710 C.1       1 AZO1003     0.0000 
      3 C2         72.8490   53.9830  163.0510 C.ar      1 AZO1003     0.0000 
      4 C3         72.7560   53.2790  161.8520 C.ar      1 AZO1003     0.0000 
      5 C4         71.6550   53.4220  161.0340 C.ar      1 AZO1003     0.0000 
      6 C5         70.6300   54.2770  161.4070 C.ar      1 AZO1003     0.0000 
      7 C6         70.7150   54.9820  162.5900 C.ar      1 AZO1003     0.0000 
      8 C7         71.8140   54.8310  163.4140 C.ar      1 AZO1003     0.0000 
      9 O1         71.8360   55.5780  164.5920 O.3       1 AZO1003     0.0000 
     10 C8         71.0600   55.1990  165.6620 C.ar      1 AZO1003     0.0000 
     11 C9         71.1210   56.0090  166.7810 C.ar      1 AZO1003     0.0000 
     12 C10        70.3430   55.6420  167.8630 C.ar      1 AZO1003     0.0000 
     13 N3         69.5830   54.5520  167.7970 N.ar      1 AZO1003     0.0000 
     14 C11        69.5940   53.8300  166.6840 C.ar      1 AZO1003     0.0000 
     15 N2         70.3100   54.1250  165.6040 N.ar      1 AZO1003     0.0000 
     16 O2         70.4240   56.4630  168.9770 O.3       1 AZO1003     0.0000 
     17 C12        69.6320   56.2000  170.1230 C.ar      1 AZO1003     0.0000 
     18 C13        69.6320   54.9790  170.7740 C.ar      1 AZO1003     0.0000 
     19 C14        68.8470   54.7790  171.8910 C.ar      1 AZO1003     0.0000 
     20 C15        68.0900   55.8180  172.3950 C.ar      1 AZO1003     0.0000 
     21 C16        68.1200   57.0440  171.7640 C.ar      1 AZO1003     0.0000 
     22 C17        68.8800   57.2560  170.6240 C.ar      1 AZO1003     0.0000 
     23 C18        68.8820   58.5950  169.9930 C.2       1 AZO1003     0.0000 
     24 C19        67.8100   58.9350  169.0440 C.2       1 AZO1003     0.0000 
     25 O3         66.8850   58.2270  168.7450 O.2       1 AZO1003     0.0000 
     26 O4         67.9680   60.1810  168.4990 O.3       1 AZO1003     0.0000 
     27 C20        67.0260   60.7110  167.5330 C.3       1 AZO1003     0.0000 
     28 C21        69.8550   59.4500  170.2720 C.2       1 AZO1003     0.0000 
     29 O5         70.8400   59.1530  171.1430 O.3       1 AZO1003     0.0000 
     30 C22        71.8400   60.1690  171.3590 C.3       1 AZO1003     0.0000 
     31 H3         73.5550   52.6230  161.5740 H         1 AZO1003     0.0000 
     32 H4         71.5960   52.8740  160.1150 H         1 AZO1003     0.0000 
     33 H5         69.7680   54.3960  160.7820 H         1 AZO1003     0.0000 
     34 H6         69.9420   55.6550  162.8950 H         1 AZO1003     0.0000 
     35 H9         71.7410   56.8750  166.8030 H         1 AZO1003     0.0000 
     36 H11        68.9880   52.9530  166.6500 H         1 AZO1003     0.0000 
     37 H13        70.2490   54.1840  170.4040 H         1 AZO1003     0.0000 
     38 H14        68.8290   53.8170  172.3610 H         1 AZO1003     0.0000 
     39 H15        67.4850   55.6750  173.2670 H         1 AZO1003     0.0000 
     40 H16        67.5490   57.8610  172.1530 H         1 AZO1003     0.0000 
     41 H201       67.5010   61.4550  166.9120 H         1 AZO1003     0.0000 
     42 H202       66.1880   61.1700  168.0350 H         1 AZO1003     0.0000 
     43 H203       66.6530   59.9230  166.8970 H         1 AZO1003     0.0000 
     44 H21        69.8800   60.4120  169.8030 H         1 AZO1003     0.0000 
     45 H221       72.7140   59.7510  171.8410 H         1 AZO1003     0.0000 
     46 H222       71.4540   60.9600  171.9880 H         1 AZO1003     0.0000 
     47 H223       72.1510   60.6070  170.4190 H         1 AZO1003     0.0000 
@<TRIPOS>BOND
     1    1    2 3    
     2    2    3 1    
     3    3    4 ar   
     4    3    8 ar   
     5    4    5 ar   
     6    4   31 1    
     7    5    6 ar   
     8    5   32 1    
     9    6    7 ar   
    10    6   33 1    
    11    7    8 ar   
    12    7   34 1    
    13    8    9 1    
    14    9   10 1    
    15   10   11 ar   
    16   10   15 ar   
    17   11   12 ar   
    18   11   35 1    
    19   12   13 ar   
    20   12   16 1    
    21   13   14 ar   
    22   14   15 ar   
    23   14   36 1    
    24   16   17 1    
    25   17   18 ar   
    26   17   22 ar   
    27   18   19 ar   
    28   18   37 1    
    29   19   20 ar   
    30   19   38 1    
    31   20   21 ar   
    32   20   39 1    
    33   21   22 ar   
    34   21   40 1    
    35   22   23 1    
    36   23   24 1    
    37   23   28 2    
    38   24   25 2    
    39   24   26 1    
    40   26   27 1    
    41   27   41 1    
    42   27   42 1    
    43   27   43 1    
    44   28   29 1    
    45   28   44 1    
    46   29   30 1    
    47   30   45 1    
    48   30   46 1    
    49   30   47 1    
@<TRIPOS>SUBSTRUCTURE
     1 AZO1003     1 GROUP   
@<TRIPOS>SET

