#    Name: 5nmw_2_FAD
#    Modification time : Fri May 22 19:18:34 2020

@<TRIPOS>MOLECULE
5nmw_2_FAD
   53    58     1     0     1
SMALL
NO_CHARGES


@<TRIPOS>ATOM
      1 PA        -44.6580  -38.9320   -3.2140 P.3       1 FAD501      0.0000 
      2 O1A       -45.5140  -37.6910   -3.0620 O.co2     1 FAD501      0.0000 
      3 O2A       -43.5230  -38.8860   -4.2050 O.co2     1 FAD501      0.0000 
      4 O5B       -45.6350  -40.1450   -3.5610 O.3       1 FAD501      0.0000 
      5 C5B       -46.9040  -40.2880   -2.9280 C.3       1 FAD501      0.0000 
      6 C4B       -47.8110  -41.1040   -3.8300 C.3       1 FAD501      0.0000 
      7 O4B       -49.0270  -41.4280   -3.1500 O.3       1 FAD501      0.0000 
      8 C3B       -48.2010  -40.2750   -5.0420 C.3       1 FAD501      0.0000 
      9 O3B       -48.0090  -41.0500   -6.2260 O.3       1 FAD501      0.0000 
     10 C2B       -49.6820  -40.0170   -4.9010 C.3       1 FAD501      0.0000 
     11 O2B       -50.2660  -40.1250   -6.1990 O.3       1 FAD501      0.0000 
     12 C1B       -50.1120  -41.1850   -4.0460 C.3       1 FAD501      0.0000 
     13 N9A       -51.3220  -40.9580   -3.2310 N.pl3     1 FAD501      0.0000 
     14 C8A       -51.5230  -39.9920   -2.3100 C.2       1 FAD501      0.0000 
     15 N7A       -52.7370  -40.1270   -1.7560 N.2       1 FAD501      0.0000 
     16 C5A       -53.3390  -41.1940   -2.3250 C.ar      1 FAD501      0.0000 
     17 C6A       -54.6320  -41.8900   -2.1930 C.ar      1 FAD501      0.0000 
     18 N6A       -55.5480  -41.4400   -1.3090 N.pl3     1 FAD501      0.0000 
     19 N1A       -54.8610  -42.9730   -2.9790 N.ar      1 FAD501      0.0000 
     20 C2A       -53.9410  -43.4260   -3.8420 C.ar      1 FAD501      0.0000 
     21 N3A       -52.7460  -42.8390   -4.0170 N.ar      1 FAD501      0.0000 
     22 C4A       -52.3970  -41.7420   -3.2920 C.ar      1 FAD501      0.0000 
     23 N1        -36.1190  -34.9670   -3.5270 N.2       1 FAD501      0.0000 
     24 C2        -34.8270  -35.1590   -3.8880 C.2       1 FAD501      0.0000 
     25 O2        -34.1750  -36.1110   -3.3960 O.2       1 FAD501      0.0000 
     26 N3        -34.2120  -34.3640   -4.7790 N.am      1 FAD501      0.0000 
     27 C4        -34.8230  -33.3210   -5.3580 C.2       1 FAD501      0.0000 
     28 O4        -34.2170  -32.5940   -6.1710 O.2       1 FAD501      0.0000 
     29 C4X       -36.2280  -33.0390   -5.0180 C.2       1 FAD501      0.0000 
     30 N5        -36.9130  -32.0000   -5.5570 N.2       1 FAD501      0.0000 
     31 C5X       -38.2040  -31.7590   -5.2380 C.ar      1 FAD501      0.0000 
     32 C6        -38.9070  -30.7030   -5.8150 C.ar      1 FAD501      0.0000 
     33 C7        -40.2350  -30.4880   -5.4570 C.ar      1 FAD501      0.0000 
     34 C7M       -41.0260  -29.3510   -6.0500 C.3       1 FAD501      0.0000 
     35 C8        -40.9070  -31.3770   -4.4790 C.ar      1 FAD501      0.0000 
     36 C8M       -42.3470  -31.1000   -4.1240 C.3       1 FAD501      0.0000 
     37 C9        -40.2190  -32.4400   -3.9120 C.ar      1 FAD501      0.0000 
     38 C9A       -38.8870  -32.6500   -4.2610 C.ar      1 FAD501      0.0000 
     39 N10       -38.1830  -33.7320   -3.6900 N.pl3     1 FAD501      0.0000 
     40 C10       -36.8480  -33.9470   -4.0380 C.2       1 FAD501      0.0000 
     41 C1'       -38.8460  -34.5800   -2.7160 C.3       1 FAD501      0.0000 
     42 C2'       -39.2790  -35.8760   -3.3370 C.3       1 FAD501      0.0000 
     43 O2'       -40.3160  -35.5930   -4.2770 O.3       1 FAD501      0.0000 
     44 C3'       -39.7820  -36.7340   -2.2050 C.3       1 FAD501      0.0000 
     45 O3'       -38.7280  -36.9540   -1.2600 O.3       1 FAD501      0.0000 
     46 C4'       -40.2980  -38.0560   -2.7340 C.3       1 FAD501      0.0000 
     47 O4'       -41.0400  -37.8350   -3.9430 O.3       1 FAD501      0.0000 
     48 C5'       -41.2210  -38.6030   -1.6720 C.3       1 FAD501      0.0000 
     49 O5'       -41.6860  -39.8600   -2.1030 O.3       1 FAD501      0.0000 
     50 P         -43.0060  -40.4410   -1.4280 P.3       1 FAD501      0.0000 
     51 O1P       -42.8330  -40.4350    0.0640 O.co2     1 FAD501      0.0000 
     52 O2P       -43.4050  -41.6430   -2.2460 O.co2     1 FAD501      0.0000 
     53 O3P       -44.1170  -39.3090   -1.7450 O.3       1 FAD501      0.0000 
@<TRIPOS>BOND
     1    1    2 ar   
     2    1    3 ar   
     3    1    4 1    
     4    1   53 1    
     5    4    5 1    
     6    5    6 1    
     7    6    7 1    
     8    6    8 1    
     9    7   12 1    
    10    8    9 1    
    11    8   10 1    
    12   10   11 1    
    13   10   12 1    
    14   12   13 1    
    15   13   14 1    
    16   13   22 1    
    17   14   15 2    
    18   15   16 1    
    19   16   17 ar   
    20   16   22 ar   
    21   17   18 1    
    22   17   19 ar   
    23   19   20 ar   
    24   20   21 ar   
    25   21   22 ar   
    26   23   24 1    
    27   23   40 2    
    28   24   25 2    
    29   24   26 am   
    30   26   27 am   
    31   27   28 2    
    32   27   29 1    
    33   29   30 2    
    34   29   40 1    
    35   30   31 1    
    36   31   32 ar   
    37   31   38 ar   
    38   32   33 ar   
    39   33   34 1    
    40   33   35 ar   
    41   35   36 1    
    42   35   37 ar   
    43   37   38 ar   
    44   38   39 1    
    45   39   40 1    
    46   39   41 1    
    47   41   42 1    
    48   42   43 1    
    49   42   44 1    
    50   44   45 1    
    51   44   46 1    
    52   46   47 1    
    53   46   48 1    
    54   48   49 1    
    55   49   50 1    
    56   50   51 ar   
    57   50   52 ar   
    58   50   53 1    
@<TRIPOS>SUBSTRUCTURE
     1 FAD501      1 GROUP   
@<TRIPOS>SET
ATOM$ORANGE STATIC     ATOMS   COLORGROUP SYSTEM 
54 5 5 6 6 8 8 10 10 12 12 14 14 16 16 17 17 20 \
20 22 22 24 24 27 27 29 29 31 31 32 32 33 33 34 34 35 \
35 36 36 37 37 38 38 40 40 41 41 42 42 44 44 46 46 48 \
48 

