#    Name: 5nmw_3_FAD_CAVITY_N1_8
#    Modification time : Fri May 22 19:18:43 2020

@<TRIPOS>MOLECULE
5nmw_3_FAD_CAVITY_N1_8
   85     0     6     0     0
SMALL
NO_CHARGES


@<TRIPOS>ATOM
      1 OG         25.4600   -1.5900   41.5200 O.3       1 SER1        0.0000 
      2 OG         27.4700   -1.3400   40.9000 O.3       1 SER1        0.0000 
      3 OG         26.6700   -0.9300   42.1000 O.3       1 SER1        0.0000 
      4 OG         32.3400    1.1200   39.5600 O.3       1 SER1        0.0000 
      5 N          29.5000   -1.4600   32.9400 N.am      2 ALA2        0.0000 
      6 N          27.1000   -0.2400   36.5500 N.am      2 ALA2        0.0000 
      7 N          26.3100    0.1600   37.7500 N.am      2 ALA2        0.0000 
      8 N          25.5100    0.5700   38.9600 N.am      2 ALA2        0.0000 
      9 N          26.6800   -1.1200   38.4300 N.am      2 ALA2        0.0000 
     10 N          25.8800   -0.7100   39.6400 N.am      2 ALA2        0.0000 
     11 O          27.4200   -3.6900   39.7900 O.2       2 ALA2        0.0000 
     12 O          29.4400   -3.4300   39.1700 O.2       2 ALA2        0.0000 
     13 O          28.6400   -3.0300   40.3700 O.2       2 ALA2        0.0000 
     14 N          29.5300    1.2700   41.3800 N.am      2 ALA2        0.0000 
     15 N          30.7400    1.9300   41.9600 N.am      2 ALA2        0.0000 
     16 NZ         26.6300   -3.2800   41.0000 N.4       3 LYS4        0.0000 
     17 CZ         28.7400    1.3000   35.2500 C.ar      4 PHE5        0.0000 
     18 CZ         27.9500    1.7000   36.4500 C.ar      4 PHE5        0.0000 
     19 CZ         31.5100   -1.2100   32.3200 C.ar      4 PHE5        0.0000 
     20 CZ         26.3000    0.3500   41.4200 C.ar      4 PHE5        0.0000 
     21 CZ         32.3500    0.7400   32.2200 C.ar      4 PHE5        0.0000 
     22 CZ         29.9600    1.9600   35.8300 C.ar      4 PHE5        0.0000 
     23 CZ         32.7200   -0.5400   32.9000 C.ar      4 PHE5        0.0000 
     24 CZ         29.5300    1.0800   37.7100 C.ar      4 PHE5        0.0000 
     25 CZ         27.5100    1.0100   42.0000 C.ar      4 PHE5        0.0000 
     26 CZ         31.4400   -2.9900   42.2200 C.ar      4 PHE5        0.0000 
     27 CA         26.7300    1.0400   35.8700 C.3       5 GLY6        0.0000 
     28 CA         25.0800   -0.3100   40.8400 C.3       5 GLY6        0.0000 
     29 CA         28.3700    2.5800   34.5700 C.3       5 GLY6        0.0000 
     30 CA         26.7200    1.2300   39.5400 C.3       5 GLY6        0.0000 
     31 CA         27.8400   -2.6200   41.5800 C.3       5 GLY6        0.0000 
     32 CA         31.5500    1.1500   33.4200 C.3       5 GLY6        0.0000 
     33 CA         30.7600    1.5500   34.6300 C.3       5 GLY6        0.0000 
     34 CA         31.9200   -0.1400   34.1000 C.3       5 GLY6        0.0000 
     35 CA         31.1300    0.2700   35.3100 C.3       5 GLY6        0.0000 
     36 CA         30.3300    0.6700   36.5100 C.3       5 GLY6        0.0000 
     37 CA         28.6800   -0.6800   41.4800 C.3       5 GLY6        0.0000 
     38 CA         29.0600   -1.9600   42.1600 C.3       5 GLY6        0.0000 
     39 CA         32.7700    1.8100   34.0000 C.3       5 GLY6        0.0000 
     40 CA         33.1400    0.5200   34.6800 C.3       5 GLY6        0.0000 
     41 CA         32.7100   -0.3600   36.5700 C.3       5 GLY6        0.0000 
     42 CA         31.9200    0.0500   37.7700 C.3       5 GLY6        0.0000 
     43 CA         29.9000   -0.0200   42.0600 C.3       5 GLY6        0.0000 
     44 CA         29.1000    0.3900   43.2700 C.3       5 GLY6        0.0000 
     45 CA         30.2700   -1.3000   42.7400 C.3       5 GLY6        0.0000 
     46 CA         33.1300    0.7100   38.3500 C.3       5 GLY6        0.0000 
     47 CA         31.5400    1.5200   40.7600 C.3       5 GLY6        0.0000 
     48 CA         33.5000   -0.5700   39.0300 C.3       5 GLY6        0.0000 
     49 CA         32.7100   -0.1700   40.2400 C.3       5 GLY6        0.0000 
     50 CA         31.9100    0.2400   41.4400 C.3       5 GLY6        0.0000 
     51 CA         31.1100    0.6400   42.6400 C.3       5 GLY6        0.0000 
     52 CA         32.2800   -1.0500   42.1200 C.3       5 GLY6        0.0000 
     53 DU         28.3300    0.2300   33.4600 H         6 CUB7        0.0000 
     54 DU         27.5300    0.6400   34.6700 H         6 CUB7        0.0000 
     55 DU         28.7000   -1.0500   34.1400 H         6 CUB7        0.0000 
     56 DU         27.9000   -0.6500   35.3500 H         6 CUB7        0.0000 
     57 DU         27.4800   -1.5300   37.2300 H         6 CUB7        0.0000 
     58 DU         27.8500   -2.8100   37.9100 H         6 CUB7        0.0000 
     59 DU         27.0500   -2.4000   39.1100 H         6 CUB7        0.0000 
     60 DU         26.2500   -2.0000   40.3200 H         6 CUB7        0.0000 
     61 DU         30.3400    0.4900   32.8400 H         6 CUB7        0.0000 
     62 DU         29.5400    0.8900   34.0400 H         6 CUB7        0.0000 
     63 DU         30.7100   -0.8000   33.5200 H         6 CUB7        0.0000 
     64 DU         29.9100   -0.3900   34.7200 H         6 CUB7        0.0000 
     65 DU         29.1200    0.0100   35.9300 H         6 CUB7        0.0000 
     66 DU         28.3200    0.4200   37.1300 H         6 CUB7        0.0000 
     67 DU         27.5200    0.8200   38.3400 H         6 CUB7        0.0000 
     68 DU         27.8900   -0.4600   39.0100 H         6 CUB7        0.0000 
     69 DU         27.1000   -0.0500   40.2200 H         6 CUB7        0.0000 
     70 DU         29.0600   -2.1500   38.4900 H         6 CUB7        0.0000 
     71 DU         28.2700   -1.7400   39.6900 H         6 CUB7        0.0000 
     72 DU         30.7000   -0.6100   37.1900 H         6 CUB7        0.0000 
     73 DU         29.9100   -0.2000   38.3900 H         6 CUB7        0.0000 
     74 DU         28.3100    0.6100   40.8000 H         6 CUB7        0.0000 
     75 DU         29.4800   -1.0800   40.2800 H         6 CUB7        0.0000 
     76 DU         30.6500   -2.7700   39.7500 H         6 CUB7        0.0000 
     77 DU         29.8500   -2.3700   40.9600 H         6 CUB7        0.0000 
     78 DU         31.1200    0.4600   38.9700 H         6 CUB7        0.0000 
     79 DU         30.3200    0.8600   40.1800 H         6 CUB7        0.0000 
     80 DU         32.2900   -1.2300   38.4500 H         6 CUB7        0.0000 
     81 DU         31.4900   -0.8300   39.6500 H         6 CUB7        0.0000 
     82 DU         30.7000   -0.4200   40.8600 H         6 CUB7        0.0000 
     83 DU         31.8700   -2.1100   40.3300 H         6 CUB7        0.0000 
     84 DU         31.0700   -1.7100   41.5400 H         6 CUB7        0.0000 
     85 DU         33.0800   -1.4500   40.9200 H         6 CUB7        0.0000 
@<TRIPOS>BOND
@<TRIPOS>SUBSTRUCTURE
     1 SER1        1 GROUP   
     2 ALA2        5 GROUP   
     3 LYS4       16 GROUP   
     4 PHE5       17 GROUP   
     5 GLY6       27 GROUP   
     6 CUB7       53 GROUP   
@<TRIPOS>SET

