#    Name: 5nmw_3_FAD_CAVITY_N1_4
#    Modification time : Fri May 22 19:18:43 2020

@<TRIPOS>MOLECULE
5nmw_3_FAD_CAVITY_N1_4
   45     0     5     0     0
SMALL
NO_CHARGES


@<TRIPOS>ATOM
      1 OG         27.4700   -1.3400   40.9000 O.3       1 SER1        0.0000 
      2 OG         26.6700   -0.9300   42.1000 O.3       1 SER1        0.0000 
      3 OG         32.3400    1.1200   39.5600 O.3       1 SER1        0.0000 
      4 O          29.4400   -3.4300   39.1700 O.2       2 ALA2        0.0000 
      5 O          28.6400   -3.0300   40.3700 O.2       2 ALA2        0.0000 
      6 N          29.5300    1.2700   41.3800 N.am      2 ALA2        0.0000 
      7 N          30.7400    1.9300   41.9600 N.am      2 ALA2        0.0000 
      8 CZ         26.3000    0.3500   41.4200 C.ar      3 PHE5        0.0000 
      9 CZ         29.5300    1.0800   37.7100 C.ar      3 PHE5        0.0000 
     10 CZ         27.5100    1.0100   42.0000 C.ar      3 PHE5        0.0000 
     11 CZ         31.4400   -2.9900   42.2200 C.ar      3 PHE5        0.0000 
     12 CA         26.7200    1.2300   39.5400 C.3       4 GLY6        0.0000 
     13 CA         27.8400   -2.6200   41.5800 C.3       4 GLY6        0.0000 
     14 CA         28.6800   -0.6800   41.4800 C.3       4 GLY6        0.0000 
     15 CA         29.0600   -1.9600   42.1600 C.3       4 GLY6        0.0000 
     16 CA         32.7100   -0.3600   36.5700 C.3       4 GLY6        0.0000 
     17 CA         31.9200    0.0500   37.7700 C.3       4 GLY6        0.0000 
     18 CA         29.9000   -0.0200   42.0600 C.3       4 GLY6        0.0000 
     19 CA         29.1000    0.3900   43.2700 C.3       4 GLY6        0.0000 
     20 CA         30.2700   -1.3000   42.7400 C.3       4 GLY6        0.0000 
     21 CA         33.1300    0.7100   38.3500 C.3       4 GLY6        0.0000 
     22 CA         31.5400    1.5200   40.7600 C.3       4 GLY6        0.0000 
     23 CA         33.5000   -0.5700   39.0300 C.3       4 GLY6        0.0000 
     24 CA         32.7100   -0.1700   40.2400 C.3       4 GLY6        0.0000 
     25 CA         31.9100    0.2400   41.4400 C.3       4 GLY6        0.0000 
     26 CA         31.1100    0.6400   42.6400 C.3       4 GLY6        0.0000 
     27 CA         32.2800   -1.0500   42.1200 C.3       4 GLY6        0.0000 
     28 DU         27.8900   -0.4600   39.0100 H         5 CUB7        0.0000 
     29 DU         27.1000   -0.0500   40.2200 H         5 CUB7        0.0000 
     30 DU         29.0600   -2.1500   38.4900 H         5 CUB7        0.0000 
     31 DU         28.2700   -1.7400   39.6900 H         5 CUB7        0.0000 
     32 DU         30.7000   -0.6100   37.1900 H         5 CUB7        0.0000 
     33 DU         29.9100   -0.2000   38.3900 H         5 CUB7        0.0000 
     34 DU         28.3100    0.6100   40.8000 H         5 CUB7        0.0000 
     35 DU         29.4800   -1.0800   40.2800 H         5 CUB7        0.0000 
     36 DU         30.6500   -2.7700   39.7500 H         5 CUB7        0.0000 
     37 DU         29.8500   -2.3700   40.9600 H         5 CUB7        0.0000 
     38 DU         31.1200    0.4600   38.9700 H         5 CUB7        0.0000 
     39 DU         30.3200    0.8600   40.1800 H         5 CUB7        0.0000 
     40 DU         32.2900   -1.2300   38.4500 H         5 CUB7        0.0000 
     41 DU         31.4900   -0.8300   39.6500 H         5 CUB7        0.0000 
     42 DU         30.7000   -0.4200   40.8600 H         5 CUB7        0.0000 
     43 DU         31.8700   -2.1100   40.3300 H         5 CUB7        0.0000 
     44 DU         31.0700   -1.7100   41.5400 H         5 CUB7        0.0000 
     45 DU         33.0800   -1.4500   40.9200 H         5 CUB7        0.0000 
@<TRIPOS>BOND
@<TRIPOS>SUBSTRUCTURE
     1 SER1        1 GROUP   
     2 ALA2        4 GROUP   
     3 PHE5        8 GROUP   
     4 GLY6       12 GROUP   
     5 CUB7       28 GROUP   
@<TRIPOS>SET

