#    Name: 5nmw_3_FAD
#    Modification time : Fri May 22 19:18:41 2020

@<TRIPOS>MOLECULE
5nmw_3_FAD
   53    58     1     0     1
SMALL
NO_CHARGES


@<TRIPOS>ATOM
      1 PA         39.6770    2.3850   39.9500 P.3       1 FAD501      0.0000 
      2 O1A        39.3620    1.2490   40.8640 O.co2     1 FAD501      0.0000 
      3 O2A        38.6050    3.4100   39.6690 O.co2     1 FAD501      0.0000 
      4 O5B        40.9430    3.1870   40.4920 O.3       1 FAD501      0.0000 
      5 C5B        41.4070    4.3730   39.8750 C.3       1 FAD501      0.0000 
      6 C4B        42.3950    5.0350   40.8180 C.3       1 FAD501      0.0000 
      7 O4B        43.0290    6.1890   40.2580 O.3       1 FAD501      0.0000 
      8 C3B        41.6290    5.5010   42.0330 C.3       1 FAD501      0.0000 
      9 O3B        42.3400    5.0640   43.2000 O.3       1 FAD501      0.0000 
     10 C2B        41.6170    7.0090   41.9260 C.3       1 FAD501      0.0000 
     11 O2B        41.6470    7.5970   43.2280 O.3       1 FAD501      0.0000 
     12 C1B        42.9020    7.2810   41.1790 C.3       1 FAD501      0.0000 
     13 N9A        42.9000    8.5510   40.4160 N.pl3     1 FAD501      0.0000 
     14 C8A        41.9930    8.9510   39.4940 C.2       1 FAD501      0.0000 
     15 N7A        42.3310   10.1590   38.9840 N.2       1 FAD501      0.0000 
     16 C5A        43.4860   10.5400   39.5750 C.ar      1 FAD501      0.0000 
     17 C6A        44.3890   11.7120   39.5020 C.ar      1 FAD501      0.0000 
     18 N6A        44.1410   12.7520   38.6660 N.pl3     1 FAD501      0.0000 
     19 N1A        45.4820   11.7070   40.3020 N.ar      1 FAD501      0.0000 
     20 C2A        45.7540   10.6860   41.1360 C.ar      1 FAD501      0.0000 
     21 N3A        44.9680    9.6010   41.2650 N.ar      1 FAD501      0.0000 
     22 C4A        43.8490    9.4770   40.5160 C.ar      1 FAD501      0.0000 
     23 N1         34.2550   -5.2870   39.5310 N.2       1 FAD501      0.0000 
     24 C2         34.1830   -6.6070   39.8420 C.2       1 FAD501      0.0000 
     25 O2         35.0070   -7.4200   39.3500 O.2       1 FAD501      0.0000 
     26 N3         33.2490   -7.0960   40.6680 N.am      1 FAD501      0.0000 
     27 C4         32.3360   -6.3260   41.2520 C.2       1 FAD501      0.0000 
     28 O4         31.4950   -6.8380   42.0150 O.2       1 FAD501      0.0000 
     29 C4X        32.3400   -4.8730   40.9680 C.2       1 FAD501      0.0000 
     30 N5         31.4460   -4.0190   41.5180 N.2       1 FAD501      0.0000 
     31 C5X        31.4670   -2.6870   41.2480 C.ar      1 FAD501      0.0000 
     32 C6         30.5410   -1.8050   41.8180 C.ar      1 FAD501      0.0000 
     33 C7         30.5880   -0.4400   41.5270 C.ar      1 FAD501      0.0000 
     34 C7M        29.5840    0.5030   42.1450 C.3       1 FAD501      0.0000 
     35 C8         31.6330    0.0820   40.6020 C.ar      1 FAD501      0.0000 
     36 C8M        31.7100    1.5480   40.2530 C.3       1 FAD501      0.0000 
     37 C9         32.5470   -0.7930   40.0330 C.ar      1 FAD501      0.0000 
     38 C9A        32.4970   -2.1490   40.3290 C.ar      1 FAD501      0.0000 
     39 N10        33.4310   -3.0170   39.7440 N.pl3     1 FAD501      0.0000 
     40 C10        33.3840   -4.3880   40.0430 C.2       1 FAD501      0.0000 
     41 C1'        34.4160   -2.4600   38.8330 C.3       1 FAD501      0.0000 
     42 C2'        35.7220   -2.2840   39.5490 C.3       1 FAD501      0.0000 
     43 O2'        35.5850   -1.2120   40.4680 O.3       1 FAD501      0.0000 
     44 C3'        36.7340   -1.9310   38.5000 C.3       1 FAD501      0.0000 
     45 O3'        36.8250   -3.0110   37.5720 O.3       1 FAD501      0.0000 
     46 C4'        38.0840   -1.7700   39.1490 C.3       1 FAD501      0.0000 
     47 O4'        37.9650   -1.0380   40.3740 O.3       1 FAD501      0.0000 
     48 C5'        38.9660   -1.0200   38.1730 C.3       1 FAD501      0.0000 
     49 O5'        40.1000   -0.5910   38.8920 O.3       1 FAD501      0.0000 
     50 P          41.0580    0.5060   38.2750 P.3       1 FAD501      0.0000 
     51 O1P        42.3120    0.6080   39.1120 O.co2     1 FAD501      0.0000 
     52 O2P        41.1100    0.3020   36.7760 O.co2     1 FAD501      0.0000 
     53 O3P        40.1780    1.8470   38.5090 O.3       1 FAD501      0.0000 
@<TRIPOS>BOND
     1    1    2 ar   
     2    1    3 ar   
     3    1    4 1    
     4    1   53 1    
     5    4    5 1    
     6    5    6 1    
     7    6    7 1    
     8    6    8 1    
     9    7   12 1    
    10    8    9 1    
    11    8   10 1    
    12   10   11 1    
    13   10   12 1    
    14   12   13 1    
    15   13   14 1    
    16   13   22 1    
    17   14   15 2    
    18   15   16 1    
    19   16   17 ar   
    20   16   22 ar   
    21   17   18 1    
    22   17   19 ar   
    23   19   20 ar   
    24   20   21 ar   
    25   21   22 ar   
    26   23   24 1    
    27   23   40 2    
    28   24   25 2    
    29   24   26 am   
    30   26   27 am   
    31   27   28 2    
    32   27   29 1    
    33   29   30 2    
    34   29   40 1    
    35   30   31 1    
    36   31   32 ar   
    37   31   38 ar   
    38   32   33 ar   
    39   33   34 1    
    40   33   35 ar   
    41   35   36 1    
    42   35   37 ar   
    43   37   38 ar   
    44   38   39 1    
    45   39   40 1    
    46   39   41 1    
    47   41   42 1    
    48   42   43 1    
    49   42   44 1    
    50   44   45 1    
    51   44   46 1    
    52   46   47 1    
    53   46   48 1    
    54   48   49 1    
    55   49   50 1    
    56   50   51 ar   
    57   50   52 ar   
    58   50   53 1    
@<TRIPOS>SUBSTRUCTURE
     1 FAD501      1 GROUP   
@<TRIPOS>SET
ATOM$ORANGE STATIC     ATOMS   COLORGROUP SYSTEM 
54 5 5 6 6 8 8 10 10 12 12 14 14 16 16 17 17 20 \
20 22 22 24 24 27 27 29 29 31 31 32 32 33 33 34 34 35 \
35 36 36 37 37 38 38 40 40 41 41 42 42 44 44 46 46 48 \
48 

