#    Name: 5nmw_4_FAD
#    Modification time : Fri May 22 19:18:47 2020

@<TRIPOS>MOLECULE
5nmw_4_FAD
   53    58     1     0     1
SMALL
NO_CHARGES


@<TRIPOS>ATOM
      1 PA         -7.5280  -39.7090   40.7350 P.3       1 FAD500      0.0000 
      2 O1A        -7.1960  -38.6840   41.7770 O.co2     1 FAD500      0.0000 
      3 O2A        -6.5090  -40.7800   40.4490 O.co2     1 FAD500      0.0000 
      4 O5B        -8.8690  -40.4600   41.2050 O.3       1 FAD500      0.0000 
      5 C5B        -9.3740  -41.5620   40.4650 C.3       1 FAD500      0.0000 
      6 C4B       -10.3660  -42.3380   41.3110 C.3       1 FAD500      0.0000 
      7 O4B       -10.8820  -43.4430   40.5730 O.3       1 FAD500      0.0000 
      8 C3B        -9.6850  -42.9240   42.5420 C.3       1 FAD500      0.0000 
      9 O3B       -10.5000  -42.5870   43.6820 O.3       1 FAD500      0.0000 
     10 C2B        -9.6850  -44.4170   42.3240 C.3       1 FAD500      0.0000 
     11 O2B        -9.8320  -45.0850   43.5770 O.3       1 FAD500      0.0000 
     12 C1B       -10.9000  -44.5880   41.4220 C.3       1 FAD500      0.0000 
     13 N9A       -10.9110  -45.7960   40.5650 N.pl3     1 FAD500      0.0000 
     14 C8A        -9.9930  -46.1300   39.6310 C.2       1 FAD500      0.0000 
     15 N7A       -10.3360  -47.2850   39.0250 N.2       1 FAD500      0.0000 
     16 C5A       -11.5120  -47.6940   39.5490 C.ar      1 FAD500      0.0000 
     17 C6A       -12.4170  -48.8450   39.3420 C.ar      1 FAD500      0.0000 
     18 N6A       -12.1060  -49.7990   38.4200 N.pl3     1 FAD500      0.0000 
     19 N1A       -13.5390  -48.9060   40.1000 N.ar      1 FAD500      0.0000 
     20 C2A       -13.8380  -47.9570   41.0110 C.ar      1 FAD500      0.0000 
     21 N3A       -13.0380  -46.8910   41.2540 N.ar      1 FAD500      0.0000 
     22 C4A       -11.8870  -46.7090   40.5640 C.ar      1 FAD500      0.0000 
     23 N1         -1.9410  -32.1010   41.4160 N.2       1 FAD500      0.0000 
     24 C2         -1.8710  -30.8290   41.8590 C.2       1 FAD500      0.0000 
     25 O2         -2.6640  -29.9920   41.3770 O.2       1 FAD500      0.0000 
     26 N3         -0.9840  -30.4400   42.7930 N.am      1 FAD500      0.0000 
     27 C4         -0.1190  -31.2880   43.3600 C.2       1 FAD500      0.0000 
     28 O4          0.7020  -30.9180   44.2250 O.2       1 FAD500      0.0000 
     29 C4X        -0.1260  -32.6960   42.9260 C.2       1 FAD500      0.0000 
     30 N5          0.7210  -33.6270   43.4400 N.2       1 FAD500      0.0000 
     31 C5X         0.6880  -34.9220   43.0270 C.ar      1 FAD500      0.0000 
     32 C6          1.5480  -35.8950   43.5480 C.ar      1 FAD500      0.0000 
     33 C7          1.4620  -37.2120   43.0900 C.ar      1 FAD500      0.0000 
     34 C7M         2.3760  -38.2850   43.6270 C.3       1 FAD500      0.0000 
     35 C8          0.4610  -37.5790   42.0570 C.ar      1 FAD500      0.0000 
     36 C8M         0.3630  -38.9920   41.5390 C.3       1 FAD500      0.0000 
     37 C9         -0.3820  -36.6220   41.5420 C.ar      1 FAD500      0.0000 
     38 C9A        -0.3050  -35.3150   41.9940 C.ar      1 FAD500      0.0000 
     39 N10        -1.1880  -34.3600   41.4560 N.pl3     1 FAD500      0.0000 
     40 C10        -1.1240  -33.0450   41.9030 C.2       1 FAD500      0.0000 
     41 C1'        -2.1550  -34.7340   40.4370 C.3       1 FAD500      0.0000 
     42 C2'        -3.4920  -35.0060   41.0830 C.3       1 FAD500      0.0000 
     43 O2'        -3.3600  -36.0950   41.9900 O.3       1 FAD500      0.0000 
     44 C3'        -4.3990  -35.3910   39.9530 C.3       1 FAD500      0.0000 
     45 O3'        -4.2820  -34.3790   38.9630 O.3       1 FAD500      0.0000 
     46 C4'        -5.8340  -35.4930   40.4290 C.3       1 FAD500      0.0000 
     47 O4'        -5.8610  -36.2120   41.6680 O.3       1 FAD500      0.0000 
     48 C5'        -6.6080  -36.2590   39.3840 C.3       1 FAD500      0.0000 
     49 O5'        -7.8690  -36.6200   39.9050 O.3       1 FAD500      0.0000 
     50 P          -8.7840  -37.6660   39.1350 P.3       1 FAD500      0.0000 
     51 O1P       -10.0930  -37.7660   39.8650 O.co2     1 FAD500      0.0000 
     52 O2P        -8.7280  -37.4640   37.6420 O.co2     1 FAD500      0.0000 
     53 O3P        -7.9370  -39.0380   39.3390 O.3       1 FAD500      0.0000 
@<TRIPOS>BOND
     1    1    2 ar   
     2    1    3 ar   
     3    1    4 1    
     4    1   53 1    
     5    4    5 1    
     6    5    6 1    
     7    6    7 1    
     8    6    8 1    
     9    7   12 1    
    10    8    9 1    
    11    8   10 1    
    12   10   11 1    
    13   10   12 1    
    14   12   13 1    
    15   13   14 1    
    16   13   22 1    
    17   14   15 2    
    18   15   16 1    
    19   16   17 ar   
    20   16   22 ar   
    21   17   18 1    
    22   17   19 ar   
    23   19   20 ar   
    24   20   21 ar   
    25   21   22 ar   
    26   23   24 1    
    27   23   40 2    
    28   24   25 2    
    29   24   26 am   
    30   26   27 am   
    31   27   28 2    
    32   27   29 1    
    33   29   30 2    
    34   29   40 1    
    35   30   31 1    
    36   31   32 ar   
    37   31   38 ar   
    38   32   33 ar   
    39   33   34 1    
    40   33   35 ar   
    41   35   36 1    
    42   35   37 ar   
    43   37   38 ar   
    44   38   39 1    
    45   39   40 1    
    46   39   41 1    
    47   41   42 1    
    48   42   43 1    
    49   42   44 1    
    50   44   45 1    
    51   44   46 1    
    52   46   47 1    
    53   46   48 1    
    54   48   49 1    
    55   49   50 1    
    56   50   51 ar   
    57   50   52 ar   
    58   50   53 1    
@<TRIPOS>SUBSTRUCTURE
     1 FAD500      1 GROUP   
@<TRIPOS>SET
ATOM$ORANGE STATIC     ATOMS   COLORGROUP SYSTEM 
54 5 5 6 6 8 8 10 10 12 12 14 14 16 16 17 17 20 \
20 22 22 24 24 27 27 29 29 31 31 32 32 33 33 34 34 35 \
35 36 36 37 37 38 38 40 40 41 41 42 42 44 44 46 46 48 \
48 

