#    Name: 6gg9_3_FMN
#    Modification time : Fri May 22 19:28:48 2020

@<TRIPOS>MOLECULE
6gg9_3_FMN
   31    33     1     0     1
SMALL
NO_CHARGES


@<TRIPOS>ATOM
      1 N1        -17.5620  -14.5390   28.5700 N.2       1 FMN500      0.0000 
      2 C2        -16.9610  -15.7400   28.2600 C.2       1 FMN500      0.0000 
      3 O2        -17.4390  -16.7950   28.6660 O.2       1 FMN500      0.0000 
      4 N3        -15.8050  -15.7760   27.5010 N.am      1 FMN500      0.0000 
      5 C4        -15.2480  -14.6080   27.0480 C.2       1 FMN500      0.0000 
      6 O4        -14.2170  -14.6500   26.3780 O.2       1 FMN500      0.0000 
      7 C4A       -15.8470  -13.3920   27.3570 C.2       1 FMN500      0.0000 
      8 N5        -15.2850  -12.2210   26.9080 N.2       1 FMN500      0.0000 
      9 C5A       -15.8500  -11.0140   27.1770 C.ar      1 FMN500      0.0000 
     10 C6        -15.2610   -9.8540   26.6950 C.ar      1 FMN500      0.0000 
     11 C7        -15.8440   -8.6340   27.0110 C.ar      1 FMN500      0.0000 
     12 C7M       -15.2620   -7.3340   26.5390 C.3       1 FMN500      0.0000 
     13 C8        -17.0040   -8.5960   27.7770 C.ar      1 FMN500      0.0000 
     14 C8M       -17.6160   -7.2780   28.0890 C.3       1 FMN500      0.0000 
     15 C9        -17.5900   -9.7540   28.2530 C.ar      1 FMN500      0.0000 
     16 C9A       -17.0140  -10.9730   27.9510 C.ar      1 FMN500      0.0000 
     17 N10       -17.5850  -12.1390   28.4130 N.pl3     1 FMN500      0.0000 
     18 C10       -17.0040  -13.3570   28.1210 C.2       1 FMN500      0.0000 
     19 C1'       -18.8220  -12.0830   29.2630 C.3       1 FMN500      0.0000 
     20 C2'       -20.1280  -12.1900   28.5010 C.3       1 FMN500      0.0000 
     21 O2'       -20.1170  -11.3260   27.3840 O.3       1 FMN500      0.0000 
     22 C3'       -21.2280  -11.7430   29.4580 C.3       1 FMN500      0.0000 
     23 O3'       -21.0000  -10.4060   29.8580 O.3       1 FMN500      0.0000 
     24 C4'       -21.2890  -12.6160   30.7060 C.3       1 FMN500      0.0000 
     25 O4'       -21.6480  -13.9370   30.3570 O.3       1 FMN500      0.0000 
     26 C5'       -22.3350  -12.0660   31.6750 C.3       1 FMN500      0.0000 
     27 O5'       -23.4270  -11.6580   30.8830 O.3       1 FMN500      0.0000 
     28 P         -24.8140  -12.4550   30.9140 P.3       1 FMN500      0.0000 
     29 O1P       -25.8690  -11.5160   30.3980 O.co2     1 FMN500      0.0000 
     30 O2P       -24.7130  -13.6850   30.0410 O.co2     1 FMN500      0.0000 
     31 O3P       -25.1260  -12.8630   32.3320 O.co2     1 FMN500      0.0000 
@<TRIPOS>BOND
     1    1    2 1    
     2    1   18 2    
     3    2    3 2    
     4    2    4 am   
     5    4    5 am   
     6    5    6 2    
     7    5    7 1    
     8    7    8 2    
     9    7   18 1    
    10    8    9 1    
    11    9   10 ar   
    12    9   16 ar   
    13   10   11 ar   
    14   11   12 1    
    15   11   13 ar   
    16   13   14 1    
    17   13   15 ar   
    18   15   16 ar   
    19   16   17 1    
    20   17   18 1    
    21   17   19 1    
    22   19   20 1    
    23   20   21 1    
    24   20   22 1    
    25   22   23 1    
    26   22   24 1    
    27   24   25 1    
    28   24   26 1    
    29   26   27 1    
    30   27   28 1    
    31   28   29 ar   
    32   28   30 ar   
    33   28   31 ar   
@<TRIPOS>SUBSTRUCTURE
     1 FMN500      1 GROUP   
@<TRIPOS>SET
ATOM$ORANGE STATIC     ATOMS   COLORGROUP SYSTEM 
34 2 2 5 5 7 7 9 9 10 10 11 11 12 12 13 13 14 \
14 15 15 16 16 18 18 19 19 20 20 22 22 24 24 26 26 

