#    Name: 6gg9_4_FMN
#    Modification time : Fri May 22 19:28:52 2020

@<TRIPOS>MOLECULE
6gg9_4_FMN
   31    33     1     0     1
SMALL
NO_CHARGES


@<TRIPOS>ATOM
      1 N1          8.5580  -32.7100   19.1680 N.2       1 FMN500      0.0000 
      2 C2          9.5300  -33.2030   20.0160 C.2       1 FMN500      0.0000 
      3 O2          9.2800  -33.3410   21.2120 O.2       1 FMN500      0.0000 
      4 N3         10.7970  -33.5310   19.5380 N.am      1 FMN500      0.0000 
      5 C4         11.0950  -33.3840   18.2030 C.2       1 FMN500      0.0000 
      6 O4         12.2070  -33.6680   17.7530 O.2       1 FMN500      0.0000 
      7 C4A        10.1280  -32.8960   17.3470 C.2       1 FMN500      0.0000 
      8 N5         10.4520  -32.7480   16.0170 N.2       1 FMN500      0.0000 
      9 C5A         9.5070  -32.2600   15.1460 C.ar      1 FMN500      0.0000 
     10 C6          9.8290  -32.1220   13.7980 C.ar      1 FMN500      0.0000 
     11 C7          8.8950  -31.6200   12.9120 C.ar      1 FMN500      0.0000 
     12 C7M         9.2370  -31.4650   11.4570 C.3       1 FMN500      0.0000 
     13 C8          7.6150  -31.2850   13.3620 C.ar      1 FMN500      0.0000 
     14 C8M         6.6090  -30.7550   12.3750 C.3       1 FMN500      0.0000 
     15 C9          7.2880  -31.4250   14.7120 C.ar      1 FMN500      0.0000 
     16 C9A         8.2290  -31.9220   15.6120 C.ar      1 FMN500      0.0000 
     17 N10         7.9090  -32.0730   16.9500 N.pl3     1 FMN500      0.0000 
     18 C10         8.8570  -32.5490   17.8280 C.2       1 FMN500      0.0000 
     19 C1'         6.5440  -31.6500   17.4450 C.3       1 FMN500      0.0000 
     20 C2'         5.4750  -32.6970   17.6140 C.3       1 FMN500      0.0000 
     21 O2'         5.4440  -33.5360   16.4820 O.3       1 FMN500      0.0000 
     22 C3'         4.1100  -31.9930   17.8010 C.3       1 FMN500      0.0000 
     23 O3'         3.8590  -31.0700   16.7720 O.3       1 FMN500      0.0000 
     24 C4'         4.0170  -31.1700   19.0750 C.3       1 FMN500      0.0000 
     25 O4'         4.2370  -32.0220   20.1710 O.3       1 FMN500      0.0000 
     26 C5'         2.6300  -30.5130   19.1970 C.3       1 FMN500      0.0000 
     27 O5'         1.6560  -31.4150   18.7320 O.3       1 FMN500      0.0000 
     28 P           0.6760  -32.1650   19.7710 P.3       1 FMN500      0.0000 
     29 O1P        -0.5550  -32.6080   19.0220 O.co2     1 FMN500      0.0000 
     30 O2P         1.4220  -33.3520   20.3360 O.co2     1 FMN500      0.0000 
     31 O3P         0.2730  -31.2490   20.9020 O.co2     1 FMN500      0.0000 
@<TRIPOS>BOND
     1    1    2 1    
     2    1   18 2    
     3    2    3 2    
     4    2    4 am   
     5    4    5 am   
     6    5    6 2    
     7    5    7 1    
     8    7    8 2    
     9    7   18 1    
    10    8    9 1    
    11    9   10 ar   
    12    9   16 ar   
    13   10   11 ar   
    14   11   12 1    
    15   11   13 ar   
    16   13   14 1    
    17   13   15 ar   
    18   15   16 ar   
    19   16   17 1    
    20   17   18 1    
    21   17   19 1    
    22   19   20 1    
    23   20   21 1    
    24   20   22 1    
    25   22   23 1    
    26   22   24 1    
    27   24   25 1    
    28   24   26 1    
    29   26   27 1    
    30   27   28 1    
    31   28   29 ar   
    32   28   30 ar   
    33   28   31 ar   
@<TRIPOS>SUBSTRUCTURE
     1 FMN500      1 GROUP   
@<TRIPOS>SET
ATOM$ORANGE STATIC     ATOMS   COLORGROUP SYSTEM 
34 2 2 5 5 7 7 9 9 10 10 11 11 12 12 13 13 14 \
14 15 15 16 16 18 18 19 19 20 20 22 22 24 24 26 26 

