#    Name: 6gg9_1_FMN
#    Modification time : Fri May 22 19:28:39 2020

@<TRIPOS>MOLECULE
6gg9_1_FMN
   31    33     1     0     1
SMALL
NO_CHARGES


@<TRIPOS>ATOM
      1 N1         15.8030   -9.1400   26.7110 N.2       1 FMN500      0.0000 
      2 C2         15.4400   -9.5430   27.9750 C.2       1 FMN500      0.0000 
      3 O2         16.2240  -10.2160   28.6380 O.2       1 FMN500      0.0000 
      4 N3         14.2010   -9.2030   28.4910 N.am      1 FMN500      0.0000 
      5 C4         13.3060   -8.4540   27.7540 C.2       1 FMN500      0.0000 
      6 O4         12.1930   -8.1530   28.2260 O.2       1 FMN500      0.0000 
      7 C4A        13.6810   -8.0460   26.4750 C.2       1 FMN500      0.0000 
      8 N5         12.8200   -7.2900   25.7140 N.2       1 FMN500      0.0000 
      9 C5A        13.1980   -6.9010   24.4470 C.ar      1 FMN500      0.0000 
     10 C6         12.3220   -6.1380   23.6750 C.ar      1 FMN500      0.0000 
     11 C7         12.6950   -5.7420   22.4020 C.ar      1 FMN500      0.0000 
     12 C7M        11.7670   -4.9270   21.5410 C.3       1 FMN500      0.0000 
     13 C8         13.9490   -6.0940   21.8930 C.ar      1 FMN500      0.0000 
     14 C8M        14.3280   -5.6500   20.5170 C.3       1 FMN500      0.0000 
     15 C9         14.8360   -6.8450   22.6620 C.ar      1 FMN500      0.0000 
     16 C9A        14.4590   -7.2490   23.9430 C.ar      1 FMN500      0.0000 
     17 N10        15.3350   -7.9910   24.7070 N.pl3     1 FMN500      0.0000 
     18 C10        14.9420   -8.3940   25.9600 C.2       1 FMN500      0.0000 
     19 C1'        16.6800   -8.4090   24.1330 C.3       1 FMN500      0.0000 
     20 C2'        17.8290   -7.4590   24.3960 C.3       1 FMN500      0.0000 
     21 O2'        17.3620   -6.1330   24.3700 O.3       1 FMN500      0.0000 
     22 C3'        18.9770   -7.6710   23.3830 C.3       1 FMN500      0.0000 
     23 O3'        18.5440   -7.4700   22.0520 O.3       1 FMN500      0.0000 
     24 C4'        19.5720   -9.0760   23.4920 C.3       1 FMN500      0.0000 
     25 O4'        20.0680   -9.2560   24.8020 O.3       1 FMN500      0.0000 
     26 C5'        20.7120   -9.3040   22.4880 C.3       1 FMN500      0.0000 
     27 O5'        21.5340   -8.1610   22.4620 O.3       1 FMN500      0.0000 
     28 P          22.9630   -8.1610   23.2090 P.3       1 FMN500      0.0000 
     29 O1P        23.7520   -6.9750   22.7170 O.co2     1 FMN500      0.0000 
     30 O2P        22.7050   -8.0590   24.7030 O.co2     1 FMN500      0.0000 
     31 O3P        23.7240   -9.4280   22.9040 O.co2     1 FMN500      0.0000 
@<TRIPOS>BOND
     1    1    2 1    
     2    1   18 2    
     3    2    3 2    
     4    2    4 am   
     5    4    5 am   
     6    5    6 2    
     7    5    7 1    
     8    7    8 2    
     9    7   18 1    
    10    8    9 1    
    11    9   10 ar   
    12    9   16 ar   
    13   10   11 ar   
    14   11   12 1    
    15   11   13 ar   
    16   13   14 1    
    17   13   15 ar   
    18   15   16 ar   
    19   16   17 1    
    20   17   18 1    
    21   17   19 1    
    22   19   20 1    
    23   20   21 1    
    24   20   22 1    
    25   22   23 1    
    26   22   24 1    
    27   24   25 1    
    28   24   26 1    
    29   26   27 1    
    30   27   28 1    
    31   28   29 ar   
    32   28   30 ar   
    33   28   31 ar   
@<TRIPOS>SUBSTRUCTURE
     1 FMN500      1 GROUP   
@<TRIPOS>SET
ATOM$ORANGE STATIC     ATOMS   COLORGROUP SYSTEM 
34 2 2 5 5 7 7 9 9 10 10 11 11 12 12 13 13 14 \
14 15 15 16 16 18 18 19 19 20 20 22 22 24 24 26 26 

