#    Name: 6gg9_2_FMN
#    Modification time : Fri May 22 19:28:44 2020

@<TRIPOS>MOLECULE
6gg9_2_FMN
   31    33     1     0     1
SMALL
NO_CHARGES


@<TRIPOS>ATOM
      1 N1         39.4510  -23.7180    8.1660 N.2       1 FMN500      0.0000 
      2 C2         39.0430  -22.8500    9.1670 C.2       1 FMN500      0.0000 
      3 O2         39.8640  -22.3110    9.9080 O.2       1 FMN500      0.0000 
      4 N3         37.7010  -22.5770    9.3380 N.am      1 FMN500      0.0000 
      5 C4         36.7480  -23.1660    8.5340 C.2       1 FMN500      0.0000 
      6 O4         35.5490  -22.9130    8.7010 O.2       1 FMN500      0.0000 
      7 C4A        37.1430  -24.0410    7.5370 C.2       1 FMN500      0.0000 
      8 N5         36.1870  -24.6240    6.7350 N.2       1 FMN500      0.0000 
      9 C5A        36.6030  -25.4870    5.7390 C.ar      1 FMN500      0.0000 
     10 C6         35.6640  -26.0850    4.9150 C.ar      1 FMN500      0.0000 
     11 C7         36.0560  -26.9600    3.9240 C.ar      1 FMN500      0.0000 
     12 C7M        35.0300  -27.6000    3.0450 C.3       1 FMN500      0.0000 
     13 C8         37.4020  -27.2430    3.7360 C.ar      1 FMN500      0.0000 
     14 C8M        37.8210  -28.1850    2.6490 C.3       1 FMN500      0.0000 
     15 C9         38.3530  -26.6470    4.5510 C.ar      1 FMN500      0.0000 
     16 C9A        37.9610  -25.7680    5.5550 C.ar      1 FMN500      0.0000 
     17 N10        38.9180  -25.1710    6.3570 N.pl3     1 FMN500      0.0000 
     18 C10        38.5110  -24.3120    7.3500 C.2       1 FMN500      0.0000 
     19 C1'        40.3800  -25.5090    6.1810 C.3       1 FMN500      0.0000 
     20 C2'        41.2010  -24.6030    5.2820 C.3       1 FMN500      0.0000 
     21 O2'        40.4610  -24.2720    4.1290 O.3       1 FMN500      0.0000 
     22 C3'        42.5210  -25.3160    4.9050 C.3       1 FMN500      0.0000 
     23 O3'        42.2660  -26.5240    4.2330 O.3       1 FMN500      0.0000 
     24 C4'        43.3910  -25.6560    6.1140 C.3       1 FMN500      0.0000 
     25 O4'        43.8160  -24.4600    6.7220 O.3       1 FMN500      0.0000 
     26 C5'        44.6140  -26.4840    5.7140 C.3       1 FMN500      0.0000 
     27 O5'        45.1390  -25.9290    4.5300 O.3       1 FMN500      0.0000 
     28 P          46.4520  -25.0010    4.6120 P.3       1 FMN500      0.0000 
     29 O1P        47.0140  -24.8340    3.2180 O.co2     1 FMN500      0.0000 
     30 O2P        45.9950  -23.6820    5.1940 O.co2     1 FMN500      0.0000 
     31 O3P        47.5230  -25.6430    5.4700 O.co2     1 FMN500      0.0000 
@<TRIPOS>BOND
     1    1    2 1    
     2    1   18 2    
     3    2    3 2    
     4    2    4 am   
     5    4    5 am   
     6    5    6 2    
     7    5    7 1    
     8    7    8 2    
     9    7   18 1    
    10    8    9 1    
    11    9   10 ar   
    12    9   16 ar   
    13   10   11 ar   
    14   11   12 1    
    15   11   13 ar   
    16   13   14 1    
    17   13   15 ar   
    18   15   16 ar   
    19   16   17 1    
    20   17   18 1    
    21   17   19 1    
    22   19   20 1    
    23   20   21 1    
    24   20   22 1    
    25   22   23 1    
    26   22   24 1    
    27   24   25 1    
    28   24   26 1    
    29   26   27 1    
    30   27   28 1    
    31   28   29 ar   
    32   28   30 ar   
    33   28   31 ar   
@<TRIPOS>SUBSTRUCTURE
     1 FMN500      1 GROUP   
@<TRIPOS>SET
ATOM$ORANGE STATIC     ATOMS   COLORGROUP SYSTEM 
34 2 2 5 5 7 7 9 9 10 10 11 11 12 12 13 13 14 \
14 15 15 16 16 18 18 19 19 20 20 22 22 24 24 26 26 

