#    Name: 6ix9_1_SAM_CAVITY_N1_4
#    Modification time : Fri May 22 19:32:44 2020

@<TRIPOS>MOLECULE
6ix9_1_SAM_CAVITY_N1_4
   54     0     5     0     0
SMALL
NO_CHARGES


@<TRIPOS>ATOM
      1 N         -15.8400  -26.5600    9.7700 N.am      1 ALA2        0.0000 
      2 N         -14.5800  -28.1400    9.1100 N.am      1 ALA2        0.0000 
      3 NZ        -16.1200  -26.6700    6.1100 N.4       2 LYS4        0.0000 
      4 NZ        -15.5900  -27.9300    6.7200 N.4       2 LYS4        0.0000 
      5 NZ        -15.9200  -25.7200    4.2200 N.4       2 LYS4        0.0000 
      6 NZ        -15.3900  -26.9800    4.8400 N.4       2 LYS4        0.0000 
      7 NZ        -14.8600  -28.2500    5.4500 N.4       2 LYS4        0.0000 
      8 NZ        -14.1300  -28.5600    4.1700 N.4       2 LYS4        0.0000 
      9 NZ        -15.6400  -25.6100    7.8900 N.4       2 LYS4        0.0000 
     10 NZ        -15.1100  -26.8700    8.5000 N.4       2 LYS4        0.0000 
     11 NZ        -14.9100  -25.9200    6.6100 N.4       2 LYS4        0.0000 
     12 NZ        -14.4400  -24.8600    8.3900 N.4       2 LYS4        0.0000 
     13 NZ        -13.9100  -26.1300    9.0000 N.4       2 LYS4        0.0000 
     14 CZ        -17.2600  -29.7400    4.4500 C.ar      3 PHE5        0.0000 
     15 CZ        -19.3000  -25.5300    7.5500 C.ar      3 PHE5        0.0000 
     16 CZ        -19.1000  -24.5800    5.6600 C.ar      3 PHE5        0.0000 
     17 CZ        -16.7900  -28.6800    6.2200 C.ar      3 PHE5        0.0000 
     18 CZ        -14.8000  -30.5700    4.2900 C.ar      3 PHE5        0.0000 
     19 CZ        -18.8300  -24.4700    9.3200 C.ar      3 PHE5        0.0000 
     20 CZ        -18.6300  -23.5200    7.4400 C.ar      3 PHE5        0.0000 
     21 CZ        -18.1000  -24.7800    8.0500 C.ar      3 PHE5        0.0000 
     22 CZ        -17.9000  -23.8300    6.1600 C.ar      3 PHE5        0.0000 
     23 CZ        -15.0600  -29.2000    7.3400 C.ar      3 PHE5        0.0000 
     24 CZ        -14.3300  -29.5100    6.0600 C.ar      3 PHE5        0.0000 
     25 CZ        -13.6000  -29.8200    4.7900 C.ar      3 PHE5        0.0000 
     26 CA        -19.5200  -27.9600    2.7200 C.3       4 GLY6        0.0000 
     27 CA        -17.7900  -28.4800    3.8400 C.3       4 GLY6        0.0000 
     28 CA        -16.5300  -30.0500    3.1700 C.3       4 GLY6        0.0000 
     29 CA        -17.6500  -25.2100    3.1100 C.3       4 GLY6        0.0000 
     30 CA        -17.1200  -26.4700    3.7200 C.3       4 GLY6        0.0000 
     31 CA        -16.5900  -27.7300    4.3400 C.3       4 GLY6        0.0000 
     32 CA        -16.0600  -28.9900    4.9500 C.3       4 GLY6        0.0000 
     33 CA        -15.3300  -29.3100    3.6700 C.3       4 GLY6        0.0000 
     34 CA        -15.7800  -28.8800    8.6100 C.3       4 GLY6        0.0000 
     35 CA        -17.7100  -22.8800    4.2700 C.3       4 GLY6        0.0000 
     36 CA        -17.1800  -24.1500    4.8900 C.3       4 GLY6        0.0000 
     37 CA        -16.6500  -25.4100    5.5000 C.3       4 GLY6        0.0000 
     38 CA        -16.4500  -24.4600    3.6100 C.3       4 GLY6        0.0000 
     39 CA        -17.4300  -22.7700    7.9400 C.3       4 GLY6        0.0000 
     40 CA        -16.9000  -24.0400    8.5500 C.3       4 GLY6        0.0000 
     41 CA        -16.3700  -25.3000    9.1600 C.3       4 GLY6        0.0000 
     42 CA        -16.7000  -23.0900    6.6600 C.3       4 GLY6        0.0000 
     43 CA        -16.1700  -24.3500    7.2700 C.3       4 GLY6        0.0000 
     44 CA        -16.5100  -22.1400    4.7700 C.3       4 GLY6        0.0000 
     45 CA        -15.4500  -24.6600    6.0000 C.3       4 GLY6        0.0000 
     46 DU        -19.7700  -26.5900    5.7700 H         5 CUB7        0.0000 
     47 DU        -18.5700  -25.8400    6.2700 H         5 CUB7        0.0000 
     48 DU        -18.3800  -24.8900    4.3900 H         5 CUB7        0.0000 
     49 DU        -17.8500  -26.1600    5.0000 H         5 CUB7        0.0000 
     50 DU        -17.3200  -27.4200    5.6100 H         5 CUB7        0.0000 
     51 DU        -17.5700  -26.0500    8.6600 H         5 CUB7        0.0000 
     52 DU        -17.3700  -25.1000    6.7700 H         5 CUB7        0.0000 
     53 DU        -16.8400  -26.3600    7.3900 H         5 CUB7        0.0000 
     54 DU        -16.3100  -27.6200    8.0000 H         5 CUB7        0.0000 
@<TRIPOS>BOND
@<TRIPOS>SUBSTRUCTURE
     1 ALA2        1 GROUP   
     2 LYS4        3 GROUP   
     3 PHE5       14 GROUP   
     4 GLY6       26 GROUP   
     5 CUB7       46 GROUP   
@<TRIPOS>SET

