#    Name: 6ix9_1_SAM
#    Modification time : Fri May 22 19:32:43 2020

@<TRIPOS>MOLECULE
6ix9_1_SAM
   27    29     1     0     0
SMALL
NO_CHARGES


@<TRIPOS>ATOM
      1 N         -12.1860  -28.2940   13.0900 N.4       1 SAM401      0.0000 
      2 CA        -12.7050  -26.9560   12.9340 C.3       1 SAM401      0.0000 
      3 C         -12.5050  -26.0660   14.1600 C.2       1 SAM401      0.0000 
      4 O         -12.3370  -26.5370   15.3050 O.co2     1 SAM401      0.0000 
      5 OXT       -12.5600  -24.8350   14.0010 O.co2     1 SAM401      0.0000 
      6 CB        -14.1960  -27.0140   12.6290 C.3       1 SAM401      0.0000 
      7 CG        -14.6720  -25.7990   11.8630 C.3       1 SAM401      0.0000 
      8 SD        -16.4200  -25.9060   11.4170 S.3       1 SAM401      0.0000 
      9 CE        -17.2600  -26.5760   12.8830 C.3       1 SAM401      0.0000 
     10 C5'       -16.4930  -27.2260   10.1760 C.3       1 SAM401      0.0000 
     11 C4'       -15.3930  -27.1060    9.1220 C.3       1 SAM401      0.0000 
     12 O4'       -15.5380  -28.1760    8.2090 O.3       1 SAM401      0.0000 
     13 C3'       -15.4790  -25.8220    8.2970 C.3       1 SAM401      0.0000 
     14 O3'       -14.1790  -25.2430    8.1860 O.3       1 SAM401      0.0000 
     15 C2'       -15.9580  -26.2930    6.9390 C.3       1 SAM401      0.0000 
     16 O2'       -15.4460  -25.5710    5.8560 O.3       1 SAM401      0.0000 
     17 C1'       -15.3500  -27.6750    6.8940 C.3       1 SAM401      0.0000 
     18 N9        -15.9840  -28.5590    5.9170 N.pl3     1 SAM401      0.0000 
     19 C8        -17.3340  -28.7120    5.6410 C.2       1 SAM401      0.0000 
     20 N7        -17.4610  -29.6620    4.6640 N.2       1 SAM401      0.0000 
     21 C5        -16.2120  -30.1190    4.3510 C.ar      1 SAM401      0.0000 
     22 C6        -15.7580  -31.0720    3.4550 C.ar      1 SAM401      0.0000 
     23 N6        -16.5990  -31.7620    2.6850 N.pl3     1 SAM401      0.0000 
     24 N1        -14.4080  -31.3030    3.3700 N.ar      1 SAM401      0.0000 
     25 C2        -13.5050  -30.6220    4.1410 C.ar      1 SAM401      0.0000 
     26 N3        -13.9470  -29.6630    5.0220 N.ar      1 SAM401      0.0000 
     27 C4        -15.2830  -29.4280    5.1240 C.ar      1 SAM401      0.0000 
@<TRIPOS>BOND
     1    1    2 1    
     2    2    3 1    
     3    2    6 1    
     4    3    4 ar   
     5    3    5 ar   
     6    6    7 1    
     7    7    8 1    
     8    8    9 1    
     9    8   10 1    
    10   10   11 1    
    11   11   12 1    
    12   11   13 1    
    13   12   17 1    
    14   13   14 1    
    15   13   15 1    
    16   15   16 1    
    17   15   17 1    
    18   17   18 1    
    19   18   19 1    
    20   18   27 1    
    21   19   20 2    
    22   20   21 1    
    23   21   22 ar   
    24   21   27 ar   
    25   22   23 1    
    26   22   24 ar   
    27   24   25 ar   
    28   25   26 ar   
    29   26   27 ar   
@<TRIPOS>SUBSTRUCTURE
     1 SAM401      1 GROUP   
@<TRIPOS>SET

