#    Name: 6ix9_2_SAM
#    Modification time : Fri May 22 19:32:47 2020

@<TRIPOS>MOLECULE
6ix9_2_SAM
   27    29     1     0     0
SMALL
NO_CHARGES


@<TRIPOS>ATOM
      1 N         -59.0090   -7.9250   33.7310 N.4       1 SAM402      0.0000 
      2 CA        -59.0360   -9.3980   33.6730 C.3       1 SAM402      0.0000 
      3 C         -57.9790  -10.0490   34.5580 C.2       1 SAM402      0.0000 
      4 O         -57.8560  -11.2770   34.5090 O.co2     1 SAM402      0.0000 
      5 OXT       -57.2450   -9.4030   35.3170 O.co2     1 SAM402      0.0000 
      6 CB        -58.8410   -9.9670   32.2550 C.3       1 SAM402      0.0000 
      7 CG        -57.6640   -9.4400   31.4610 C.3       1 SAM402      0.0000 
      8 SD        -57.3700  -10.1580   29.7980 S.3       1 SAM402      0.0000 
      9 CE        -55.6520   -9.5680   29.7390 C.3       1 SAM402      0.0000 
     10 C5'       -58.2580   -8.9520   28.7910 C.3       1 SAM402      0.0000 
     11 C4'       -59.7640   -9.1370   28.8830 C.3       1 SAM402      0.0000 
     12 O4'       -60.3470   -8.1130   28.0930 O.3       1 SAM402      0.0000 
     13 C3'       -60.2780  -10.4730   28.3250 C.3       1 SAM402      0.0000 
     14 O3'       -61.1570  -11.1360   29.2280 O.3       1 SAM402      0.0000 
     15 C2'       -61.0580  -10.0770   27.0780 C.3       1 SAM402      0.0000 
     16 O2'       -62.1860  -10.8930   26.7940 O.3       1 SAM402      0.0000 
     17 C1'       -61.4680   -8.6640   27.4290 C.3       1 SAM402      0.0000 
     18 N9        -61.7610   -7.8410   26.2540 N.pl3     1 SAM402      0.0000 
     19 C8        -61.0310   -7.7360   25.0900 C.2       1 SAM402      0.0000 
     20 N7        -61.6940   -6.8490   24.2940 N.2       1 SAM402      0.0000 
     21 C5        -62.7910   -6.3920   24.9550 C.ar      1 SAM402      0.0000 
     22 C6        -63.8020   -5.4820   24.6210 C.ar      1 SAM402      0.0000 
     23 N6        -63.8220   -4.8360   23.4520 N.pl3     1 SAM402      0.0000 
     24 N1        -64.7830   -5.2290   25.5390 N.ar      1 SAM402      0.0000 
     25 C2        -64.8180   -5.8770   26.7460 C.ar      1 SAM402      0.0000 
     26 N3        -63.8300   -6.7680   27.0860 N.ar      1 SAM402      0.0000 
     27 C4        -62.8370   -7.0190   26.1840 C.ar      1 SAM402      0.0000 
@<TRIPOS>BOND
     1    1    2 1    
     2    2    3 1    
     3    2    6 1    
     4    3    4 ar   
     5    3    5 ar   
     6    6    7 1    
     7    7    8 1    
     8    8    9 1    
     9    8   10 1    
    10   10   11 1    
    11   11   12 1    
    12   11   13 1    
    13   12   17 1    
    14   13   14 1    
    15   13   15 1    
    16   15   16 1    
    17   15   17 1    
    18   17   18 1    
    19   18   19 1    
    20   18   27 1    
    21   19   20 2    
    22   20   21 1    
    23   21   22 ar   
    24   21   27 ar   
    25   22   23 1    
    26   22   24 ar   
    27   24   25 ar   
    28   25   26 ar   
    29   26   27 ar   
@<TRIPOS>SUBSTRUCTURE
     1 SAM402      1 GROUP   
@<TRIPOS>SET

