#    Name: 6gex_4_NAP_CAVITY_N1_ALL
#    Modification time : Fri May 22 19:25:16 2020

@<TRIPOS>MOLECULE
6gex_4_NAP_CAVITY_N1_ALL
   81     0     5     0     0
SMALL
NO_CHARGES


@<TRIPOS>ATOM
      1 OG        -73.9000   -8.5100   23.0100 O.3       1 SER1        0.0000 
      2 OG        -73.8000  -11.6400   26.2400 O.3       1 SER1        0.0000 
      3 OG        -62.3700   -8.9700   24.9900 O.3       1 SER1        0.0000 
      4 O         -71.9200   -7.7600   22.9800 O.2       2 ALA2        0.0000 
      5 N         -72.3700   -9.5200   24.0700 N.am      2 ALA2        0.0000 
      6 O         -74.8600   -8.8300   26.2100 O.2       2 ALA2        0.0000 
      7 N         -70.8400  -10.5400   25.1200 N.am      2 ALA2        0.0000 
      8 N         -71.3600   -9.1400   25.1100 N.am      2 ALA2        0.0000 
      9 N         -68.3300  -11.2000   25.1000 N.am      2 ALA2        0.0000 
     10 N         -69.8300  -10.1500   26.1700 N.am      2 ALA2        0.0000 
     11 O         -70.3600   -8.7500   26.1500 O.2       2 ALA2        0.0000 
     12 N         -67.3200  -10.8200   26.1400 N.am      2 ALA2        0.0000 
     13 O         -67.8400   -9.4100   26.1300 O.2       2 ALA2        0.0000 
     14 O         -68.3700   -8.0100   26.1200 O.2       2 ALA2        0.0000 
     15 O         -69.3500   -8.3600   27.2000 O.2       2 ALA2        0.0000 
     16 N         -69.8000  -10.1200   28.2900 N.am      2 ALA2        0.0000 
     17 N         -65.8600   -8.6700   26.0900 N.am      2 ALA2        0.0000 
     18 N         -66.8400   -9.0200   27.1700 N.am      2 ALA2        0.0000 
     19 N         -63.8700   -7.9200   26.0500 N.am      2 ALA2        0.0000 
     20 N         -64.8500   -8.2800   27.1300 N.am      2 ALA2        0.0000 
     21 N         -65.8300   -8.6400   28.2100 N.am      2 ALA2        0.0000 
     22 N         -59.7800  -12.8000   26.0700 N.am      2 ALA2        0.0000 
     23 N         -61.3600   -8.5900   26.0300 N.am      2 ALA2        0.0000 
     24 N         -61.8800   -7.1800   26.0200 N.am      2 ALA2        0.0000 
     25 N         -60.7600  -13.1600   27.1500 N.am      2 ALA2        0.0000 
     26 N         -63.8400   -7.8900   28.1800 N.am      2 ALA2        0.0000 
     27 OD1       -66.7900  -12.2200   26.1600 O.co2     3 ASP3        0.0000 
     28 OD1       -67.7700  -12.5800   27.2400 O.co2     3 ASP3        0.0000 
     29 OD1       -65.7800  -11.8300   27.2000 O.co2     3 ASP3        0.0000 
     30 OD1       -66.7600  -12.1900   28.2800 O.co2     3 ASP3        0.0000 
     31 OD1       -62.8900   -7.5700   24.9800 O.co2     3 ASP3        0.0000 
     32 OD1       -63.2700  -12.4900   27.1700 O.co2     3 ASP3        0.0000 
     33 OD1       -64.2500  -12.8500   28.2500 O.co2     3 ASP3        0.0000 
     34 OD1       -64.7800  -11.4500   28.2400 O.co2     3 ASP3        0.0000 
     35 OD1       -65.7600  -11.8000   29.3200 O.co2     3 ASP3        0.0000 
     36 CA        -72.9300   -8.1500   21.9400 C.3       4 GLY6        0.0000 
     37 CA        -73.4500   -6.7400   21.9200 C.3       4 GLY6        0.0000 
     38 CA        -74.4300   -7.1000   23.0000 C.3       4 GLY6        0.0000 
     39 CA        -72.4400   -6.3600   22.9600 C.3       4 GLY6        0.0000 
     40 CA        -73.4200   -6.7100   24.0400 C.3       4 GLY6        0.0000 
     41 CA        -73.8800   -8.4800   25.1400 C.3       4 GLY6        0.0000 
     42 CA        -74.4000   -7.0700   25.1200 C.3       4 GLY6        0.0000 
     43 CA        -71.8900   -7.7300   25.1000 C.3       4 GLY6        0.0000 
     44 CA        -72.8700   -8.0900   26.1800 C.3       4 GLY6        0.0000 
     45 CA        -70.8800   -7.3400   26.1400 C.3       4 GLY6        0.0000 
     46 CA        -71.3400   -9.1100   27.2300 C.3       4 GLY6        0.0000 
     47 CA        -66.8600   -9.0500   25.0500 C.3       4 GLY6        0.0000 
     48 CA        -69.2800  -11.5300   28.3000 C.3       4 GLY6        0.0000 
     49 CA        -64.8800   -8.3100   25.0100 C.3       4 GLY6        0.0000 
     50 CA        -65.3000  -10.0400   28.2300 C.3       4 GLY6        0.0000 
     51 CA        -60.8300   -9.9900   26.0400 C.3       4 GLY6        0.0000 
     52 CA        -61.8100  -10.3500   27.1200 C.3       4 GLY6        0.0000 
     53 CA        -62.3400   -8.9400   27.1100 C.3       4 GLY6        0.0000 
     54 CA        -62.8600   -7.5400   27.1000 C.3       4 GLY6        0.0000 
     55 CA        -62.2600  -12.1100   28.2200 C.3       4 GLY6        0.0000 
     56 CA        -62.7900  -10.7000   28.2000 C.3       4 GLY6        0.0000 
     57 CA        -63.3200   -9.3000   28.1900 C.3       4 GLY6        0.0000 
     58 CA        -64.3000   -9.6500   29.2700 C.3       4 GLY6        0.0000 
     59 CA        -59.3000  -11.0100   27.1000 C.3       4 GLY6        0.0000 
     60 CA        -60.2800  -11.3600   28.1800 C.3       4 GLY6        0.0000 
     61 CA        -60.8000   -9.9600   28.1600 C.3       4 GLY6        0.0000 
     62 CA        -61.3300   -8.5500   28.1500 C.3       4 GLY6        0.0000 
     63 DU        -72.9000   -8.1200   24.0600 H         5 CUB7        0.0000 
     64 DU        -73.3500   -9.8800   25.1500 H         5 CUB7        0.0000 
     65 DU        -74.3300  -10.2400   26.2300 H         5 CUB7        0.0000 
     66 DU        -71.8200  -10.9000   26.2000 H         5 CUB7        0.0000 
     67 DU        -72.3400   -9.4900   26.1900 H         5 CUB7        0.0000 
     68 DU        -72.8000  -11.2500   27.2800 H         5 CUB7        0.0000 
     69 DU        -73.3200   -9.8500   27.2700 H         5 CUB7        0.0000 
     70 DU        -69.3000  -11.5600   26.1800 H         5 CUB7        0.0000 
     71 DU        -70.8100  -10.5100   27.2500 H         5 CUB7        0.0000 
     72 DU        -68.3000  -11.1700   27.2200 H         5 CUB7        0.0000 
     73 DU        -68.8200   -9.7700   27.2100 H         5 CUB7        0.0000 
     74 DU        -65.3300  -10.0700   26.1100 H         5 CUB7        0.0000 
     75 DU        -66.3100  -10.4300   27.1800 H         5 CUB7        0.0000 
     76 DU        -62.8200  -10.7300   26.0800 H         5 CUB7        0.0000 
     77 DU        -63.3500   -9.3300   26.0700 H         5 CUB7        0.0000 
     78 DU        -63.8000  -11.0900   27.1600 H         5 CUB7        0.0000 
     79 DU        -64.3200   -9.6800   27.1500 H         5 CUB7        0.0000 
     80 DU        -60.3100  -11.3900   26.0600 H         5 CUB7        0.0000 
     81 DU        -61.2900  -11.7500   27.1400 H         5 CUB7        0.0000 
@<TRIPOS>BOND
@<TRIPOS>SUBSTRUCTURE
     1 SER1        1 GROUP   
     2 ALA2        4 GROUP   
     3 ASP3       27 GROUP   
     4 GLY6       36 GROUP   
     5 CUB7       63 GROUP   
@<TRIPOS>SET

