#    Name: 6gex_4_NAP
#    Modification time : Fri May 22 19:25:13 2020

@<TRIPOS>MOLECULE
6gex_4_NAP
   48    52     1     0     1
SMALL
NO_CHARGES


@<TRIPOS>ATOM
      1 PA        -67.7170  -11.8400   26.4030 P.3       1 NAP301      0.0000 
      2 O1A       -68.1950  -12.6800   27.6000 O.co2     1 NAP301      0.0000 
      3 O2A       -67.2540  -12.4910   25.1240 O.co2     1 NAP301      0.0000 
      4 O5B       -68.7490  -10.6710   25.9900 O.3       1 NAP301      0.0000 
      5 C5B       -69.1940   -9.7130   26.9580 C.3       1 NAP301      0.0000 
      6 C4B       -70.6480   -9.2990   26.7160 C.3       1 NAP301      0.0000 
      7 O4B       -70.7730   -8.5150   25.5370 O.3       1 NAP301      0.0000 
      8 C3B       -71.6300  -10.4500   26.4830 C.3       1 NAP301      0.0000 
      9 O3B       -71.9670  -11.0490   27.7600 O.3       1 NAP301      0.0000 
     10 C2B       -72.7960   -9.8000   25.7080 C.3       1 NAP301      0.0000 
     11 O2B       -73.9250   -9.4840   26.5630 O.3       1 NAP301      0.0000 
     12 C1B       -72.1100   -8.5040   25.1470 C.3       1 NAP301      0.0000 
     13 N9A       -72.3870   -8.4880   23.7020 N.pl3     1 NAP301      0.0000 
     14 C8A       -71.9820   -9.3820   22.7180 C.2       1 NAP301      0.0000 
     15 N7A       -72.5990   -9.0300   21.5470 N.2       1 NAP301      0.0000 
     16 C5A       -73.3640   -7.9100   21.7950 C.ar      1 NAP301      0.0000 
     17 C6A       -74.2980   -7.0550   21.0240 C.ar      1 NAP301      0.0000 
     18 N6A       -74.4360   -7.3630   19.7360 N.pl3     1 NAP301      0.0000 
     19 N1A       -74.9560   -6.0510   21.6360 N.ar      1 NAP301      0.0000 
     20 C2A       -74.7360   -5.7760   22.9640 C.ar      1 NAP301      0.0000 
     21 N3A       -73.9120   -6.5340   23.7850 N.ar      1 NAP301      0.0000 
     22 C4A       -73.2470   -7.5930   23.2330 C.ar      1 NAP301      0.0000 
     23 O3        -66.5260  -10.8500   26.9150 O.3       1 NAP301      0.0000 
     24 PN        -65.4170  -11.1930   28.0440 P.3       1 NAP301      0.0000 
     25 O1N       -66.1120  -10.9320   29.3810 O.co2     1 NAP301      0.0000 
     26 O2N       -64.7560  -12.5310   27.6230 O.co2     1 NAP301      0.0000 
     27 O5D       -64.2990   -9.9680   27.8330 O.3       1 NAP301      0.0000 
     28 C5D       -64.6210   -8.6180   28.2220 C.3       1 NAP301      0.0000 
     29 C4D       -63.8780   -7.6530   27.2980 C.3       1 NAP301      0.0000 
     30 O4D       -62.4660   -7.9270   27.3290 O.3       1 NAP301      0.0000 
     31 C3D       -64.2700   -7.7900   25.8160 C.3       1 NAP301      0.0000 
     32 O3D       -64.2810   -6.4800   25.2330 O.3       1 NAP301      0.0000 
     33 C2D       -63.1450   -8.6380   25.1930 C.3       1 NAP301      0.0000 
     34 O2D       -62.9220   -8.4850   23.7380 O.3       1 NAP301      0.0000 
     35 C1D       -61.9350   -8.2170   26.0080 C.3       1 NAP301      0.0000 
     36 N1N       -60.9910   -9.3590   26.0230 N.pl3     1 NAP301      0.0000 
     37 C2N       -61.2930  -10.4900   26.6950 C.ar      1 NAP301      0.0000 
     38 C3N       -60.3660  -11.5430   26.6860 C.ar      1 NAP301      0.0000 
     39 C7N       -60.6980  -12.7990   27.4040 C.2       1 NAP301      0.0000 
     40 O7N       -59.8040  -13.6430   27.4630 O.2       1 NAP301      0.0000 
     41 N7N       -61.9470  -12.9560   27.9400 N.am      1 NAP301      0.0000 
     42 C4N       -59.1450  -11.4380   25.9550 C.ar      1 NAP301      0.0000 
     43 C5N       -58.8750  -10.2600   25.2440 C.ar      1 NAP301      0.0000 
     44 C6N       -59.8200   -9.2270   25.3150 C.ar      1 NAP301      0.0000 
     45 P2B       -75.2300  -10.4550   26.8760 P.3       1 NAP301      0.0000 
     46 O1X       -76.1080   -9.5310   27.6990 O.co2     1 NAP301      0.0000 
     47 O2X       -74.5670  -11.6580   27.5370 O.co2     1 NAP301      0.0000 
     48 O3X       -75.8200  -10.7410   25.5100 O.co2     1 NAP301      0.0000 
@<TRIPOS>BOND
     1    1    2 ar   
     2    1    3 ar   
     3    1    4 1    
     4    1   23 1    
     5    4    5 1    
     6    5    6 1    
     7    6    7 1    
     8    6    8 1    
     9    7   12 1    
    10    8    9 1    
    11    8   10 1    
    12   10   11 1    
    13   10   12 1    
    14   11   45 1    
    15   12   13 1    
    16   13   14 1    
    17   13   22 1    
    18   14   15 2    
    19   15   16 1    
    20   16   17 ar   
    21   16   22 ar   
    22   17   18 1    
    23   17   19 ar   
    24   19   20 ar   
    25   20   21 ar   
    26   21   22 ar   
    27   23   24 1    
    28   24   25 ar   
    29   24   26 ar   
    30   24   27 1    
    31   27   28 1    
    32   28   29 1    
    33   29   30 1    
    34   29   31 1    
    35   30   35 1    
    36   31   32 1    
    37   31   33 1    
    38   33   34 1    
    39   33   35 1    
    40   35   36 1    
    41   36   37 ar   
    42   36   44 ar   
    43   37   38 ar   
    44   38   39 1    
    45   38   42 ar   
    46   39   40 2    
    47   39   41 am   
    48   42   43 ar   
    49   43   44 ar   
    50   45   46 ar   
    51   45   47 ar   
    52   45   48 ar   
@<TRIPOS>SUBSTRUCTURE
     1 NAP301      1 GROUP   
@<TRIPOS>SET
ATOM$ORANGE STATIC     ATOMS   COLORGROUP SYSTEM 
42 5 5 6 6 8 8 10 10 12 12 14 14 16 16 17 17 20 \
20 22 22 28 28 29 29 31 31 33 33 35 35 37 37 38 38 39 \
39 42 42 43 43 44 44 

