#    Name: 6nue_1_ATP
#    Modification time : Fri May 22 19:28:58 2020

@<TRIPOS>MOLECULE
6nue_1_ATP
   31    33     1     0     1
SMALL
NO_CHARGES


@<TRIPOS>ATOM
      1 PG        215.1810  212.3640  236.9750 P.3       1 ATP801      0.0000 
      2 O1G       214.2070  211.6210  236.0870 O.co2     1 ATP801      0.0000 
      3 O2G       216.3290  211.5200  237.4820 O.co2     1 ATP801      0.0000 
      4 O3G       215.5930  213.7230  236.4540 O.co2     1 ATP801      0.0000 
      5 PB        213.8090  211.4700  239.2310 P.3       1 ATP801      0.0000 
      6 O1B       212.7880  210.6730  238.4490 O.co2     1 ATP801      0.0000 
      7 O2B       215.0250  210.7840  239.8100 O.co2     1 ATP801      0.0000 
      8 O3B       214.3210  212.6840  238.3020 O.3       1 ATP801      0.0000 
      9 PA        212.2200  211.3420  241.5240 P.3       1 ATP801      0.0000 
     10 O1A       213.1620  210.3440  242.1550 O.co2     1 ATP801      0.0000 
     11 O2A       210.9460  210.8590  240.8700 O.co2     1 ATP801      0.0000 
     12 O3A       213.0450  212.2060  240.4420 O.3       1 ATP801      0.0000 
     13 O5'       211.8440  212.4510  242.6280 O.3       1 ATP801      0.0000 
     14 C5'       210.9800  212.1470  243.7220 C.3       1 ATP801      0.0000 
     15 C4'       211.0040  213.3160  244.7000 C.3       1 ATP801      0.0000 
     16 O4'       210.5240  214.5080  244.0730 O.3       1 ATP801      0.0000 
     17 C3'       210.1230  213.0710  245.9150 C.3       1 ATP801      0.0000 
     18 O3'       210.9350  212.8010  247.0610 O.3       1 ATP801      0.0000 
     19 C2'       209.3440  214.3560  246.1220 C.3       1 ATP801      0.0000 
     20 O2'       209.6510  214.9170  247.4010 O.3       1 ATP801      0.0000 
     21 C1'       209.7980  215.2980  245.0170 C.3       1 ATP801      0.0000 
     22 N9        208.6180  215.9320  244.3750 N.pl3     1 ATP801      0.0000 
     23 C8        207.9330  215.4440  243.3240 C.2       1 ATP801      0.0000 
     24 N7        206.9080  216.2670  242.9830 N.2       1 ATP801      0.0000 
     25 C5        206.9290  217.3110  243.8320 C.ar      1 ATP801      0.0000 
     26 C6        206.1280  218.5420  244.0330 C.ar      1 ATP801      0.0000 
     27 N6        205.0700  218.8280  243.2350 N.pl3     1 ATP801      0.0000 
     28 N1        206.4870  219.3700  245.0390 N.ar      1 ATP801      0.0000 
     29 C2        207.5340  219.0970  245.8400 C.ar      1 ATP801      0.0000 
     30 N3        208.3030  218.0010  245.7150 N.ar      1 ATP801      0.0000 
     31 C4        208.0570  217.0850  244.7480 C.ar      1 ATP801      0.0000 
@<TRIPOS>BOND
     1    1    2 ar   
     2    1    3 ar   
     3    1    4 ar   
     4    1    8 1    
     5    5    6 ar   
     6    5    7 ar   
     7    5    8 1    
     8    5   12 1    
     9    9   10 ar   
    10    9   11 ar   
    11    9   12 1    
    12    9   13 1    
    13   13   14 1    
    14   14   15 1    
    15   15   16 1    
    16   15   17 1    
    17   16   21 1    
    18   17   18 1    
    19   17   19 1    
    20   19   20 1    
    21   19   21 1    
    22   21   22 1    
    23   22   23 1    
    24   22   31 1    
    25   23   24 2    
    26   24   25 1    
    27   25   26 ar   
    28   25   31 ar   
    29   26   27 1    
    30   26   28 ar   
    31   28   29 ar   
    32   29   30 ar   
    33   30   31 ar   
@<TRIPOS>SUBSTRUCTURE
     1 ATP801      1 GROUP   
@<TRIPOS>SET
ATOM$ORANGE STATIC     ATOMS   COLORGROUP SYSTEM 
20 14 14 15 15 17 17 19 19 21 21 23 23 25 25 26 26 29 \
29 31 31 

