#    Name: 5n0t_1_SAM
#    Modification time : Fri May 22 19:14:48 2020

@<TRIPOS>MOLECULE
5n0t_1_SAM
   27    29     1     0     0
SMALL
NO_CHARGES


@<TRIPOS>ATOM
      1 N          28.3200   37.4750   19.9280 N.4       1 SAM501      0.0000 
      2 CA         27.9900   37.8210   18.5410 C.3       1 SAM501      0.0000 
      3 C          27.8600   39.3300   18.4950 C.2       1 SAM501      0.0000 
      4 O          27.2620   39.8900   17.5350 O.co2     1 SAM501      0.0000 
      5 OXT        28.3690   39.9920   19.4260 O.co2     1 SAM501      0.0000 
      6 CB         26.6850   37.1830   17.9810 C.3       1 SAM501      0.0000 
      7 CG         26.6790   35.6370   17.8680 C.3       1 SAM501      0.0000 
      8 SD         25.2640   34.8690   17.2850 S.3       1 SAM501      0.0000 
      9 CE         25.4070   33.3190   17.8680 C.3       1 SAM501      0.0000 
     10 C5'        25.1740   34.7030   15.5980 C.3       1 SAM501      0.0000 
     11 C4'        24.3750   35.7850   14.8620 C.3       1 SAM501      0.0000 
     12 O4'        25.0260   37.0540   14.9660 O.3       1 SAM501      0.0000 
     13 C3'        24.2380   35.5860   13.3570 C.3       1 SAM501      0.0000 
     14 O3'        23.1610   34.7430   12.9380 O.3       1 SAM501      0.0000 
     15 C2'        23.9940   37.0060   12.8780 C.3       1 SAM501      0.0000 
     16 O2'        22.6170   37.3770   13.0610 O.3       1 SAM501      0.0000 
     17 C1'        24.8830   37.8460   13.7790 C.3       1 SAM501      0.0000 
     18 N9         26.1740   38.0720   13.0770 N.pl3     1 SAM501      0.0000 
     19 C8         27.3360   37.4230   13.2950 C.2       1 SAM501      0.0000 
     20 N7         28.3210   37.8490   12.4470 N.2       1 SAM501      0.0000 
     21 C5         27.7710   38.8150   11.6780 C.ar      1 SAM501      0.0000 
     22 C6         28.2310   39.6780   10.5700 C.ar      1 SAM501      0.0000 
     23 N6         29.5180   39.6370   10.1070 N.pl3     1 SAM501      0.0000 
     24 N1         27.3370   40.5410   10.0520 N.ar      1 SAM501      0.0000 
     25 C2         26.0510   40.6230   10.4880 C.ar      1 SAM501      0.0000 
     26 N3         25.5530   39.8340   11.4720 N.ar      1 SAM501      0.0000 
     27 C4         26.3600   38.9430   12.0870 C.ar      1 SAM501      0.0000 
@<TRIPOS>BOND
     1    1    2 1    
     2    2    3 1    
     3    2    6 1    
     4    3    4 ar   
     5    3    5 ar   
     6    6    7 1    
     7    7    8 1    
     8    8    9 1    
     9    8   10 1    
    10   10   11 1    
    11   11   12 1    
    12   11   13 1    
    13   12   17 1    
    14   13   14 1    
    15   13   15 1    
    16   15   16 1    
    17   15   17 1    
    18   17   18 1    
    19   18   19 1    
    20   18   27 1    
    21   19   20 2    
    22   20   21 1    
    23   21   22 ar   
    24   21   27 ar   
    25   22   23 1    
    26   22   24 ar   
    27   24   25 ar   
    28   25   26 ar   
    29   26   27 ar   
@<TRIPOS>SUBSTRUCTURE
     1 SAM501      1 GROUP   
@<TRIPOS>SET

