#    Name: 5n0t_1_SAM_CAVITY_N1_4
#    Modification time : Fri May 22 19:14:50 2020

@<TRIPOS>MOLECULE
5n0t_1_SAM_CAVITY_N1_4
   70     0     5     0     0
SMALL
NO_CHARGES


@<TRIPOS>ATOM
      1 OG         24.0000   37.2800   13.1400 O.3       1 SER1        0.0000 
      2 OG         24.7900   38.3500   13.8200 O.3       1 SER1        0.0000 
      3 OG         28.0900   38.3900   13.2500 O.3       1 SER1        0.0000 
      4 OG         29.1400   38.7800   11.4500 O.3       1 SER1        0.0000 
      5 N          24.9000   33.8700   14.1700 N.am      2 ALA2        0.0000 
      6 N          26.1600   33.3500   13.5400 N.am      2 ALA2        0.0000 
      7 N          24.6900   34.7700   13.0000 N.am      2 ALA2        0.0000 
      8 N          26.1200   33.1300   17.2100 N.am      2 ALA2        0.0000 
      9 N          27.3700   32.6100   16.5800 N.am      2 ALA2        0.0000 
     10 N          24.6400   34.5600   16.6600 N.am      2 ALA2        0.0000 
     11 N          25.9000   34.0400   16.0300 N.am      2 ALA2        0.0000 
     12 N          27.1600   33.5200   15.4100 N.am      2 ALA2        0.0000 
     13 N          28.4200   33.0000   14.7800 N.am      2 ALA2        0.0000 
     14 N          24.4300   35.4600   15.4900 N.am      2 ALA2        0.0000 
     15 N          26.9500   34.4300   14.2300 N.am      2 ALA2        0.0000 
     16 N          25.4700   35.8500   13.6800 N.am      2 ALA2        0.0000 
     17 N          26.7300   35.3300   13.0500 N.am      2 ALA2        0.0000 
     18 N          26.9000   34.2100   17.9000 N.am      2 ALA2        0.0000 
     19 N          25.8300   38.7400   12.0200 N.am      2 ALA2        0.0000 
     20 N          27.0900   38.2200   11.3900 N.am      2 ALA2        0.0000 
     21 N          25.6200   39.6500   10.8400 N.am      2 ALA2        0.0000 
     22 N          27.6900   35.2900   18.5900 N.am      2 ALA2        0.0000 
     23 N          26.2100   36.7100   18.0400 N.am      2 ALA2        0.0000 
     24 N          27.6600   40.2100   10.9000 N.am      2 ALA2        0.0000 
     25 N          28.9200   39.6900   10.2700 N.am      2 ALA2        0.0000 
     26 N          28.4700   36.3600   19.2700 N.am      2 ALA2        0.0000 
     27 N          27.0000   37.7900   18.7300 N.am      2 ALA2        0.0000 
     28 N          28.2600   37.2700   18.1000 N.am      2 ALA2        0.0000 
     29 N          27.7800   38.8600   19.4100 N.am      2 ALA2        0.0000 
     30 O          27.5700   39.7700   18.2400 O.2       2 ALA2        0.0000 
     31 CZ         24.2100   36.3700   14.3100 C.ar      3 PHE5        0.0000 
     32 CZ         29.4200   33.1700   16.6400 C.ar      3 PHE5        0.0000 
     33 CZ         27.9500   34.6000   16.0900 C.ar      3 PHE5        0.0000 
     34 CZ         29.2100   34.0800   15.4700 C.ar      3 PHE5        0.0000 
     35 CZ         25.2100   36.5400   16.1700 C.ar      3 PHE5        0.0000 
     36 CZ         27.7300   35.5000   14.9200 C.ar      3 PHE5        0.0000 
     37 CZ         25.0000   37.4500   15.0000 C.ar      3 PHE5        0.0000 
     38 CZ         27.5200   36.4100   13.7400 C.ar      3 PHE5        0.0000 
     39 CZ         28.9500   34.7700   17.9600 C.ar      3 PHE5        0.0000 
     40 CZ         27.4700   36.1900   17.4100 C.ar      3 PHE5        0.0000 
     41 CZ         28.7300   35.6700   16.7800 C.ar      3 PHE5        0.0000 
     42 CZ         26.0000   37.6200   16.8600 C.ar      3 PHE5        0.0000 
     43 CZ         27.2600   37.1000   16.2300 C.ar      3 PHE5        0.0000 
     44 CZ         25.7900   38.5200   15.6900 C.ar      3 PHE5        0.0000 
     45 CZ         28.3000   37.4900   14.4300 C.ar      3 PHE5        0.0000 
     46 CZ         25.5300   39.2100   18.1800 C.ar      3 PHE5        0.0000 
     47 CZ         26.7800   38.6900   17.5500 C.ar      3 PHE5        0.0000 
     48 CA         23.6400   34.3900   14.8000 C.3       4 GLY6        0.0000 
     49 CA         23.4300   35.2900   13.6200 C.3       4 GLY6        0.0000 
     50 CA         28.2100   33.9100   13.6000 C.3       4 GLY6        0.0000 
     51 CA         25.2600   36.7600   12.5100 C.3       4 GLY6        0.0000 
     52 CA         28.3700   32.7800   18.4500 C.3       4 GLY6        0.0000 
     53 CA         28.1600   33.6900   17.2700 C.3       4 GLY6        0.0000 
     54 CA         25.4300   35.6300   17.3500 C.3       4 GLY6        0.0000 
     55 CA         26.0500   37.8300   13.1900 C.3       4 GLY6        0.0000 
     56 CA         27.3000   37.3200   12.5700 C.3       4 GLY6        0.0000 
     57 CA         27.0400   38.0100   15.0600 C.3       4 GLY6        0.0000 
     58 CA         26.8300   38.9100   13.8800 C.3       4 GLY6        0.0000 
     59 CA         26.6200   39.8200   12.7100 C.3       4 GLY6        0.0000 
     60 CA         27.8800   39.3000   12.0800 C.3       4 GLY6        0.0000 
     61 CA         26.4000   40.7200   11.5300 C.3       4 GLY6        0.0000 
     62 CA         28.0400   38.1800   16.9200 C.3       4 GLY6        0.0000 
     63 CA         26.5700   39.6000   16.3700 C.3       4 GLY6        0.0000 
     64 CA         27.8300   39.0800   15.7500 C.3       4 GLY6        0.0000 
     65 CA         28.6600   40.3800   12.7700 C.3       4 GLY6        0.0000 
     66 CA         28.4500   41.2800   11.5900 C.3       4 GLY6        0.0000 
     67 DU         25.6900   34.9400   14.8600 H         5 CUB7        0.0000 
     68 DU         26.6900   35.1200   16.7200 H         5 CUB7        0.0000 
     69 DU         26.4700   36.0200   15.5500 H         5 CUB7        0.0000 
     70 DU         26.2600   36.9300   14.3700 H         5 CUB7        0.0000 
@<TRIPOS>BOND
@<TRIPOS>SUBSTRUCTURE
     1 SER1        1 GROUP   
     2 ALA2        5 GROUP   
     3 PHE5       31 GROUP   
     4 GLY6       48 GROUP   
     5 CUB7       67 GROUP   
@<TRIPOS>SET

