#    Name: 5x6p_2_FAD
#    Modification time : Fri May 22 19:18:22 2020

@<TRIPOS>MOLECULE
5x6p_2_FAD
   53    58     1     0     1
SMALL
NO_CHARGES


@<TRIPOS>ATOM
      1 PA        -29.4550  -32.0220   56.4040 P.3       1 FAD501      0.0000 
      2 O1A       -28.8430  -30.7580   56.8840 O.co2     1 FAD501      0.0000 
      3 O2A       -28.6660  -32.6960   55.3110 O.co2     1 FAD501      0.0000 
      4 O5B       -29.6280  -32.9750   57.6650 O.3       1 FAD501      0.0000 
      5 C5B       -30.1590  -34.2970   57.4170 C.3       1 FAD501      0.0000 
      6 C4B       -29.7760  -35.1250   58.6150 C.3       1 FAD501      0.0000 
      7 O4B       -30.3660  -36.4380   58.4960 O.3       1 FAD501      0.0000 
      8 C3B       -28.2610  -35.3400   58.7960 C.3       1 FAD501      0.0000 
      9 O3B       -27.8410  -35.0390   60.1300 O.3       1 FAD501      0.0000 
     10 C2B       -28.0700  -36.8150   58.4170 C.3       1 FAD501      0.0000 
     11 O2B       -26.9680  -37.4280   59.0770 O.3       1 FAD501      0.0000 
     12 C1B       -29.4000  -37.3930   58.8830 C.3       1 FAD501      0.0000 
     13 N9A       -29.7610  -38.6630   58.2640 N.pl3     1 FAD501      0.0000 
     14 C8A       -29.7020  -38.9880   56.9380 C.2       1 FAD501      0.0000 
     15 N7A       -30.1910  -40.1760   56.6560 N.2       1 FAD501      0.0000 
     16 C5A       -30.5960  -40.6610   57.8870 C.ar      1 FAD501      0.0000 
     17 C6A       -31.2230  -41.8640   58.2770 C.ar      1 FAD501      0.0000 
     18 N6A       -31.5070  -42.8560   57.4290 N.pl3     1 FAD501      0.0000 
     19 N1A       -31.5240  -42.0230   59.5850 N.ar      1 FAD501      0.0000 
     20 C2A       -31.2140  -41.0440   60.4380 C.ar      1 FAD501      0.0000 
     21 N3A       -30.6160  -39.8740   60.1900 N.ar      1 FAD501      0.0000 
     22 C4A       -30.3340  -39.7450   58.8930 C.ar      1 FAD501      0.0000 
     23 N1        -28.0640  -23.7460   51.9100 N.2       1 FAD501      0.0000 
     24 C2        -28.1560  -22.4190   52.2750 C.2       1 FAD501      0.0000 
     25 O2        -29.1930  -21.9400   52.7620 O.2       1 FAD501      0.0000 
     26 N3        -27.0800  -21.5700   52.0600 N.am      1 FAD501      0.0000 
     27 C4        -25.8780  -21.9140   51.4700 C.2       1 FAD501      0.0000 
     28 O4        -24.9780  -21.0800   51.3690 O.2       1 FAD501      0.0000 
     29 C4X       -25.8000  -23.3120   51.0460 C.2       1 FAD501      0.0000 
     30 N5        -24.7260  -23.7080   50.4120 N.2       1 FAD501      0.0000 
     31 C5X       -24.6770  -25.0270   49.9620 C.ar      1 FAD501      0.0000 
     32 C6        -23.5810  -25.4470   49.1990 C.ar      1 FAD501      0.0000 
     33 C7        -23.5060  -26.7480   48.7040 C.ar      1 FAD501      0.0000 
     34 C7M       -22.3220  -27.1640   47.8700 C.3       1 FAD501      0.0000 
     35 C8        -24.5380  -27.6570   48.9890 C.ar      1 FAD501      0.0000 
     36 C8M       -24.4830  -29.0730   48.4780 C.3       1 FAD501      0.0000 
     37 C9        -25.6300  -27.2420   49.7470 C.ar      1 FAD501      0.0000 
     38 C9A       -25.7160  -25.9380   50.2200 C.ar      1 FAD501      0.0000 
     39 N10       -26.8560  -25.4660   50.9230 N.pl3     1 FAD501      0.0000 
     40 C10       -26.9420  -24.1560   51.3300 C.2       1 FAD501      0.0000 
     41 C1'       -27.9810  -26.3840   51.1560 C.3       1 FAD501      0.0000 
     42 C2'       -27.9960  -26.9590   52.5670 C.3       1 FAD501      0.0000 
     43 O2'       -26.7810  -27.6610   52.8310 O.3       1 FAD501      0.0000 
     44 C3'       -29.1600  -27.9290   52.7800 C.3       1 FAD501      0.0000 
     45 O3'       -30.3210  -27.5660   52.0330 O.3       1 FAD501      0.0000 
     46 C4'       -29.5890  -28.1850   54.2240 C.3       1 FAD501      0.0000 
     47 O4'       -28.4950  -28.7860   54.9200 O.3       1 FAD501      0.0000 
     48 C5'       -30.8200  -29.0600   54.3100 C.3       1 FAD501      0.0000 
     49 O5'       -31.1320  -29.1880   55.7080 O.3       1 FAD501      0.0000 
     50 P         -31.8780  -30.5430   56.1600 P.3       1 FAD501      0.0000 
     51 O1P       -32.0750  -30.5210   57.6170 O.co2     1 FAD501      0.0000 
     52 O2P       -33.1440  -30.7640   55.3840 O.co2     1 FAD501      0.0000 
     53 O3P       -30.8950  -31.7380   55.7960 O.3       1 FAD501      0.0000 
@<TRIPOS>BOND
     1    1    2 ar   
     2    1    3 ar   
     3    1    4 1    
     4    1   53 1    
     5    4    5 1    
     6    5    6 1    
     7    6    7 1    
     8    6    8 1    
     9    7   12 1    
    10    8    9 1    
    11    8   10 1    
    12   10   11 1    
    13   10   12 1    
    14   12   13 1    
    15   13   14 1    
    16   13   22 1    
    17   14   15 2    
    18   15   16 1    
    19   16   17 ar   
    20   16   22 ar   
    21   17   18 1    
    22   17   19 ar   
    23   19   20 ar   
    24   20   21 ar   
    25   21   22 ar   
    26   23   24 1    
    27   23   40 2    
    28   24   25 2    
    29   24   26 am   
    30   26   27 am   
    31   27   28 2    
    32   27   29 1    
    33   29   30 2    
    34   29   40 1    
    35   30   31 1    
    36   31   32 ar   
    37   31   38 ar   
    38   32   33 ar   
    39   33   34 1    
    40   33   35 ar   
    41   35   36 1    
    42   35   37 ar   
    43   37   38 ar   
    44   38   39 1    
    45   39   40 1    
    46   39   41 1    
    47   41   42 1    
    48   42   43 1    
    49   42   44 1    
    50   44   45 1    
    51   44   46 1    
    52   46   47 1    
    53   46   48 1    
    54   48   49 1    
    55   49   50 1    
    56   50   51 ar   
    57   50   52 ar   
    58   50   53 1    
@<TRIPOS>SUBSTRUCTURE
     1 FAD501      1 GROUP   
@<TRIPOS>SET
ATOM$ORANGE STATIC     ATOMS   COLORGROUP SYSTEM 
54 5 5 6 6 8 8 10 10 12 12 14 14 16 16 17 17 20 \
20 22 22 24 24 27 27 29 29 31 31 32 32 33 33 34 34 35 \
35 36 36 37 37 38 38 40 40 41 41 42 42 44 44 46 46 48 \
48 

