#    Name: 6qus_5_GDP_CAVITY_N1_ALL
#    Modification time : Fri May 22 19:32:50 2020

@<TRIPOS>MOLECULE
6qus_5_GDP_CAVITY_N1_ALL
  114     0     6     0     0
SMALL
NO_CHARGES


@<TRIPOS>ATOM
      1 OG        265.6800  192.4600  345.2900 O.3       1 SER1        0.0000 
      2 OG        269.9100  192.5800  341.6100 O.3       1 SER1        0.0000 
      3 OG        269.6200  191.3700  342.4500 O.3       1 SER1        0.0000 
      4 OG        272.7500  191.1400  340.5500 O.3       1 SER1        0.0000 
      5 OG        271.9400  191.9900  341.4900 O.3       1 SER1        0.0000 
      6 OG        273.2600  189.0800  340.4600 O.3       1 SER1        0.0000 
      7 OG        272.4600  189.9400  341.4000 O.3       1 SER1        0.0000 
      8 OG        271.6500  190.7900  342.3300 O.3       1 SER1        0.0000 
      9 OG        272.5900  189.8600  343.9900 O.3       1 SER1        0.0000 
     10 OG        273.1000  187.8000  343.9000 O.3       1 SER1        0.0000 
     11 OG        271.4900  189.5100  345.7700 O.3       1 SER1        0.0000 
     12 OG        275.5100  192.8900  341.3300 O.3       1 SER1        0.0000 
     13 OG        274.7000  193.7400  342.2700 O.3       1 SER1        0.0000 
     14 OG        275.2100  191.6800  342.1800 O.3       1 SER1        0.0000 
     15 OG        277.2500  191.1000  342.0500 O.3       1 SER1        0.0000 
     16 OG        278.5600  188.1900  341.0300 O.3       1 SER1        0.0000 
     17 OG        278.2700  186.9900  341.8700 O.3       1 SER1        0.0000 
     18 OG        278.4800  191.3700  342.8700 O.3       1 SER1        0.0000 
     19 O         267.5800  191.9500  342.5800 O.2       2 ALA2        0.0000 
     20 O         266.7700  192.8100  343.5100 O.2       2 ALA2        0.0000 
     21 O         266.4800  191.6000  344.3600 O.2       2 ALA2        0.0000 
     22 N         267.2000  193.9300  345.2600 N.am      2 ALA2        0.0000 
     23 O         267.4200  190.6700  346.0200 O.2       2 ALA2        0.0000 
     24 O         266.6100  191.5200  346.9500 O.2       2 ALA2        0.0000 
     25 N         274.1400  192.7000  337.9300 N.am      2 ALA2        0.0000 
     26 N         273.0400  192.3500  339.7100 N.am      2 ALA2        0.0000 
     27 N         270.3300  193.7000  343.3600 N.am      2 ALA2        0.0000 
     28 N         270.0400  192.5000  344.2000 N.am      2 ALA2        0.0000 
     29 O         272.1600  188.7300  342.2400 O.2       2 ALA2        0.0000 
     30 N         268.9400  192.1500  345.9800 N.am      2 ALA2        0.0000 
     31 N         268.1400  193.0000  346.9200 N.am      2 ALA2        0.0000 
     32 N         275.6700  194.1700  337.8900 N.am      2 ALA2        0.0000 
     33 N         274.8600  195.0200  338.8300 N.am      2 ALA2        0.0000 
     34 O         275.3700  192.9700  338.7400 O.2       2 ALA2        0.0000 
     35 N         274.5700  193.8200  339.6700 N.am      2 ALA2        0.0000 
     36 N         272.1500  196.3800  342.4800 N.am      2 ALA2        0.0000 
     37 O         275.0800  191.7600  339.5800 O.2       2 ALA2        0.0000 
     38 N         274.2700  192.6200  340.5200 N.am      2 ALA2        0.0000 
     39 O         274.7900  190.5600  340.4300 O.2       2 ALA2        0.0000 
     40 N         271.5700  193.9700  344.1700 N.am      2 ALA2        0.0000 
     41 N         276.1000  187.6500  339.4000 N.am      2 ALA2        0.0000 
     42 O         275.3000  188.5000  340.3400 O.2       2 ALA2        0.0000 
     43 N         271.2700  192.7700  345.0200 N.am      2 ALA2        0.0000 
     44 O         270.6900  190.3600  346.7100 O.2       2 ALA2        0.0000 
     45 N         274.4800  197.0000  341.5100 N.am      2 ALA2        0.0000 
     46 N         274.1900  195.8000  342.3600 N.am      2 ALA2        0.0000 
     47 N         273.3800  196.6500  343.2900 N.am      2 ALA2        0.0000 
     48 O         273.0900  195.4500  344.1400 O.2       2 ALA2        0.0000 
     49 O         276.0200  190.8300  341.2400 O.2       2 ALA2        0.0000 
     50 O         277.3300  187.9200  340.2200 O.2       2 ALA2        0.0000 
     51 O         276.5300  188.7700  341.1500 O.2       2 ALA2        0.0000 
     52 O         275.7200  189.6300  342.0900 O.2       2 ALA2        0.0000 
     53 O         277.0400  186.7200  341.0600 O.2       2 ALA2        0.0000 
     54 N         274.9100  198.1200  343.2600 N.am      2 ALA2        0.0000 
     55 O         277.7600  189.0400  341.9600 O.2       2 ALA2        0.0000 
     56 N         280.2200  189.5900  343.5900 N.am      2 ALA2        0.0000 
     57 NZ        266.9100  192.7300  346.1100 N.4       3 LYS4        0.0000 
     58 NZ        273.7700  187.0300  340.3700 N.4       3 LYS4        0.0000 
     59 NZ        267.3300  193.8500  347.8500 N.4       3 LYS4        0.0000 
     60 NZ        267.0400  192.6500  348.7000 N.4       3 LYS4        0.0000 
     61 NZ        275.0000  187.3000  341.1800 N.4       3 LYS4        0.0000 
     62 NZ        274.2000  188.1500  342.1200 N.4       3 LYS4        0.0000 
     63 NZ        274.4100  192.5400  343.1100 N.4       3 LYS4        0.0000 
     64 NZ        273.6000  193.3900  344.0500 N.4       3 LYS4        0.0000 
     65 NZ        274.9200  190.4800  343.0200 N.4       3 LYS4        0.0000 
     66 NZ        274.1100  191.3300  343.9600 N.4       3 LYS4        0.0000 
     67 NZ        276.2400  187.5700  342.0000 N.4       3 LYS4        0.0000 
     68 NZ        273.8200  190.1300  344.8000 N.4       3 LYS4        0.0000 
     69 CZ        275.2900  196.1500  340.5800 C.ar      4 PHE5        0.0000 
     70 CZ        275.8000  194.0900  340.4900 C.ar      4 PHE5        0.0000 
     71 CZ        274.9900  194.9400  341.4200 C.ar      4 PHE5        0.0000 
     72 CA        267.2900  190.7500  343.4200 C.3       5 GLY6        0.0000 
     73 CA        269.1000  193.4300  342.5400 C.3       5 GLY6        0.0000 
     74 CA        272.0300  188.8100  339.6500 C.3       5 GLY6        0.0000 
     75 CA        268.8100  192.2300  343.3900 C.3       5 GLY6        0.0000 
     76 CA        268.0100  193.0800  344.3200 C.3       5 GLY6        0.0000 
     77 CA        268.5200  191.0200  344.2400 C.3       5 GLY6        0.0000 
     78 CA        273.8500  191.4900  338.7700 C.3       5 GLY6        0.0000 
     79 CA        271.4300  194.0500  341.5800 C.3       5 GLY6        0.0000 
     80 CA        270.6300  194.9000  342.5100 C.3       5 GLY6        0.0000 
     81 CA        273.5500  190.2900  339.6200 C.3       5 GLY6        0.0000 
     82 CA        271.1400  192.8500  342.4200 C.3       5 GLY6        0.0000 
     83 CA        274.0700  188.2300  339.5300 C.3       5 GLY6        0.0000 
     84 CA        272.9700  187.8800  341.3100 C.3       5 GLY6        0.0000 
     85 CA        270.5500  190.4400  344.1100 C.3       5 GLY6        0.0000 
     86 CA        269.7500  191.2900  345.0500 C.3       5 GLY6        0.0000 
     87 CA        269.4500  190.0900  345.8900 C.3       5 GLY6        0.0000 
     88 CA        268.6500  190.9400  346.8300 C.3       5 GLY6        0.0000 
     89 CA        267.5500  190.5900  348.6100 C.3       5 GLY6        0.0000 
     90 CA        273.7600  194.6700  340.6100 C.3       5 GLY6        0.0000 
     91 CA        273.4700  193.4700  341.4500 C.3       5 GLY6        0.0000 
     92 CA        272.6600  194.3200  342.3900 C.3       5 GLY6        0.0000 
     93 CA        271.8600  195.1700  343.3200 C.3       5 GLY6        0.0000 
     94 CA        275.4300  188.4200  342.9300 C.3       5 GLY6        0.0000 
     95 CA        274.6300  189.2800  343.8700 C.3       5 GLY6        0.0000 
     96 CA        276.9600  189.9000  342.9000 C.3       5 GLY6        0.0000 
     97 CA        277.4700  187.8400  342.8100 C.3       5 GLY6        0.0000 
     98 CA        278.9900  189.3200  342.7800 C.3       5 GLY6        0.0000 
     99 CA        278.1900  190.1700  343.7100 C.3       5 GLY6        0.0000 
    100 CA        278.7000  188.1100  343.6200 C.3       5 GLY6        0.0000 
    101 DU        267.7100  191.8700  345.1700 H         6 CUB7        0.0000 
    102 DU        270.8500  191.6400  343.2700 H         6 CUB7        0.0000 
    103 DU        267.8500  191.7900  347.7600 H         6 CUB7        0.0000 
    104 DU        273.9800  191.4100  341.3600 H         6 CUB7        0.0000 
    105 DU        273.1800  192.2700  342.3000 H         6 CUB7        0.0000 
    106 DU        272.3700  193.1200  343.2300 H         6 CUB7        0.0000 
    107 DU        274.4900  189.3600  341.2700 H         6 CUB7        0.0000 
    108 DU        273.6900  190.2100  342.2100 H         6 CUB7        0.0000 
    109 DU        272.8800  191.0600  343.1400 H         6 CUB7        0.0000 
    110 DU        272.0800  191.9100  344.0800 H         6 CUB7        0.0000 
    111 DU        273.3900  189.0000  343.0500 H         6 CUB7        0.0000 
    112 DU        271.7800  190.7100  344.9300 H         6 CUB7        0.0000 
    113 DU        270.9800  191.5600  345.8600 H         6 CUB7        0.0000 
    114 DU        273.9000  194.5900  343.2000 H         6 CUB7        0.0000 
@<TRIPOS>BOND
@<TRIPOS>SUBSTRUCTURE
     1 SER1        1 GROUP   
     2 ALA2       19 GROUP   
     3 LYS4       57 GROUP   
     4 PHE5       69 GROUP   
     5 GLY6       72 GROUP   
     6 CUB7      101 GROUP   
@<TRIPOS>SET

