#    Name: 6qus_5_GDP
#    Modification time : Fri May 22 19:32:49 2020

@<TRIPOS>MOLECULE
6qus_5_GDP
   28    30     1     0     1
SMALL
NO_CHARGES


@<TRIPOS>ATOM
      1 PB        266.7200  191.7990  343.6600 P.3       1 GDP501      0.0000 
      2 O1B       266.4070  191.4800  342.2090 O.co2     1 GDP501      0.0000 
      3 O2B       266.5480  193.2890  343.8530 O.co2     1 GDP501      0.0000 
      4 O3B       265.9500  190.9830  344.6110 O.co2     1 GDP501      0.0000 
      5 O3A       268.2710  191.5340  343.8670 O.3       1 GDP501      0.0000 
      6 PA        269.5250  192.1270  343.0950 P.3       1 GDP501      0.0000 
      7 O1A       269.0600  192.6340  341.7450 O.co2     1 GDP501      0.0000 
      8 O2A       270.0900  193.2350  343.8770 O.co2     1 GDP501      0.0000 
      9 O5'       270.4640  190.8870  342.8630 O.3       1 GDP501      0.0000 
     10 C5'       271.8130  190.7550  343.3470 C.3       1 GDP501      0.0000 
     11 C4'       272.7120  190.4670  342.1740 C.3       1 GDP501      0.0000 
     12 O4'       272.6940  191.5920  341.2660 O.3       1 GDP501      0.0000 
     13 C3'       274.1760  190.2290  342.5290 C.3       1 GDP501      0.0000 
     14 O3'       274.7280  189.2060  341.7120 O.3       1 GDP501      0.0000 
     15 C2'       274.8170  191.5880  342.2520 C.3       1 GDP501      0.0000 
     16 O2'       276.1750  191.4610  341.8580 O.3       1 GDP501      0.0000 
     17 C1'       274.0110  192.0550  341.0530 C.3       1 GDP501      0.0000 
     18 N9        273.9760  193.5120  340.9320 N.pl3     1 GDP501      0.0000 
     19 C8        273.4030  194.3890  341.8060 C.2       1 GDP501      0.0000 
     20 N7        273.5400  195.6390  341.4440 N.2       1 GDP501      0.0000 
     21 C5        274.2460  195.5750  340.2570 C.2       1 GDP501      0.0000 
     22 C6        274.6690  196.5960  339.3790 C.2       1 GDP501      0.0000 
     23 O6        274.5050  197.8030  339.5150 O.2       1 GDP501      0.0000 
     24 N1        275.3200  196.0980  338.2760 N.am      1 GDP501      0.0000 
     25 C2        275.5520  194.7780  338.0310 C.2       1 GDP501      0.0000 
     26 N2        276.1980  194.4720  336.9060 N.pl3     1 GDP501      0.0000 
     27 N3        275.1670  193.8090  338.8530 N.2       1 GDP501      0.0000 
     28 C4        274.5230  194.2740  339.9330 C.2       1 GDP501      0.0000 
@<TRIPOS>BOND
     1    1    2 ar   
     2    1    3 ar   
     3    1    4 ar   
     4    1    5 1    
     5    5    6 1    
     6    6    7 ar   
     7    6    8 ar   
     8    6    9 1    
     9    9   10 1    
    10   10   11 1    
    11   11   12 1    
    12   11   13 1    
    13   12   17 1    
    14   13   14 1    
    15   13   15 1    
    16   15   16 1    
    17   15   17 1    
    18   17   18 1    
    19   18   19 1    
    20   18   28 1    
    21   19   20 2    
    22   20   21 1    
    23   21   22 1    
    24   21   28 2    
    25   22   23 2    
    26   22   24 am   
    27   24   25 1    
    28   25   26 1    
    29   25   27 2    
    30   27   28 1    
@<TRIPOS>SUBSTRUCTURE
     1 GDP501      1 GROUP   
@<TRIPOS>SET
ATOM$ORANGE STATIC     ATOMS   COLORGROUP SYSTEM 
20 10 10 11 11 13 13 15 15 17 17 19 19 21 21 22 22 25 \
25 28 28 

