#    Name: 6qus_2_TA1
#    Modification time : Fri May 22 19:32:26 2020

@<TRIPOS>MOLECULE
6qus_2_TA1
   62    68     1     0     0
SMALL
NO_CHARGES


@<TRIPOS>ATOM
      1 O01       285.1970  208.3320  329.2660 O.3       1 TA1502      0.0000 
      2 C01       285.2700  208.1670  327.8340 C.3       1 TA1502      0.0000 
      3 C02       286.3970  206.9310  327.6270 C.3       1 TA1502      0.0000 
      4 O02       285.8230  205.8310  328.3960 O.3       1 TA1502      0.0000 
      5 C03       286.3260  205.4900  329.5970 C.2       1 TA1502      0.0000 
      6 O03       287.3400  205.9640  330.0340 O.2       1 TA1502      0.0000 
      7 C04       285.6760  204.3000  330.2130 C.ar      1 TA1502      0.0000 
      8 C05       285.1520  203.1800  329.5760 C.ar      1 TA1502      0.0000 
      9 C06       284.4930  202.2000  330.3030 C.ar      1 TA1502      0.0000 
     10 C07       284.2910  202.3530  331.6550 C.ar      1 TA1502      0.0000 
     11 C08       284.7450  203.4870  332.2880 C.ar      1 TA1502      0.0000 
     12 C09       285.4440  204.4490  331.5800 C.ar      1 TA1502      0.0000 
     13 C10       286.7980  206.4110  326.1510 C.3       1 TA1502      0.0000 
     14 C11       286.7670  204.8210  325.9380 C.3       1 TA1502      0.0000 
     15 O04       285.4420  204.2430  326.2060 O.3       1 TA1502      0.0000 
     16 C12       284.3370  204.4190  325.4440 C.2       1 TA1502      0.0000 
     17 O05       284.2990  205.0990  324.4640 O.2       1 TA1502      0.0000 
     18 C13       283.1960  203.6380  326.0020 C.3       1 TA1502      0.0000 
     19 C14       287.6760  203.9140  326.7610 C.3       1 TA1502      0.0000 
     20 O06       288.3760  203.4560  325.6080 O.3       1 TA1502      0.0000 
     21 C15       287.4940  204.2100  324.7230 C.3       1 TA1502      0.0000 
     22 C16       288.2850  205.1270  323.7980 C.3       1 TA1502      0.0000 
     23 C17       287.9810  206.6230  323.9180 C.3       1 TA1502      0.0000 
     24 O07       288.8010  207.3640  323.0050 O.3       1 TA1502      0.0000 
     25 C18       288.0900  207.1290  325.4040 C.3       1 TA1502      0.0000 
     26 C19       289.4780  206.8490  326.0230 C.3       1 TA1502      0.0000 
     27 C20       288.2190  208.7350  325.3450 C.2       1 TA1502      0.0000 
     28 O08       289.2220  209.2870  325.7620 O.2       1 TA1502      0.0000 
     29 C21       287.0540  209.7180  324.8940 C.3       1 TA1502      0.0000 
     30 O09       287.5500  211.1000  325.0170 O.3       1 TA1502      0.0000 
     31 C22       287.7780  211.8840  323.9400 C.2       1 TA1502      0.0000 
     32 O10       287.6390  211.5070  322.8150 O.2       1 TA1502      0.0000 
     33 C23       288.2260  213.2450  324.3530 C.3       1 TA1502      0.0000 
     34 C24       285.7090  209.5340  325.6570 C.2       1 TA1502      0.0000 
     35 C25       284.6710  208.9110  325.0330 C.2       1 TA1502      0.0000 
     36 C26       283.4670  208.3970  325.8520 C.3       1 TA1502      0.0000 
     37 O11       282.4480  207.6100  325.2260 O.3       1 TA1502      0.0000 
     38 C27       281.3940  208.2190  324.6670 C.2       1 TA1502      0.0000 
     39 O12       281.2090  209.4050  324.6370 O.2       1 TA1502      0.0000 
     40 C28       280.4820  207.1910  324.0570 C.3       1 TA1502      0.0000 
     41 O13       279.3770  207.8590  323.4840 O.3       1 TA1502      0.0000 
     42 C29       280.0520  206.1870  325.1460 C.3       1 TA1502      0.0000 
     43 N01       279.5390  206.9820  326.2590 N.am      1 TA1502      0.0000 
     44 C30       279.5980  206.5890  327.5370 C.2       1 TA1502      0.0000 
     45 O14       280.0500  205.4960  327.8630 O.2       1 TA1502      0.0000 
     46 C31       279.0990  207.5660  328.5600 C.ar      1 TA1502      0.0000 
     47 C32       277.7850  208.0290  328.5450 C.ar      1 TA1502      0.0000 
     48 C33       277.3580  208.9540  329.4820 C.ar      1 TA1502      0.0000 
     49 C34       278.2280  209.4250  330.4430 C.ar      1 TA1502      0.0000 
     50 C35       279.5280  208.9720  330.4700 C.ar      1 TA1502      0.0000 
     51 C36       279.9650  208.0510  329.5360 C.ar      1 TA1502      0.0000 
     52 C37       279.1150  205.1110  324.6280 C.ar      1 TA1502      0.0000 
     53 C38       279.6310  203.9180  324.1400 C.ar      1 TA1502      0.0000 
     54 C39       278.7920  202.9340  323.6440 C.ar      1 TA1502      0.0000 
     55 C40       277.4320  203.1270  323.6280 C.ar      1 TA1502      0.0000 
     56 C41       276.9050  204.3070  324.1020 C.ar      1 TA1502      0.0000 
     57 C42       277.7380  205.2930  324.6050 C.ar      1 TA1502      0.0000 
     58 C43       283.9200  207.7430  327.2070 C.3       1 TA1502      0.0000 
     59 C44       284.6090  208.6540  323.5530 C.3       1 TA1502      0.0000 
     60 C45       285.7470  209.6910  327.2540 C.3       1 TA1502      0.0000 
     61 C46       284.8880  210.8860  327.7350 C.3       1 TA1502      0.0000 
     62 C47       286.9560  210.1750  328.0680 C.3       1 TA1502      0.0000 
@<TRIPOS>BOND
     1    1    2 1    
     2    2    3 1    
     3    2   58 1    
     4    2   60 1    
     5    3    4 1    
     6    3   13 1    
     7    4    5 1    
     8    5    6 2    
     9    5    7 1    
    10    7    8 ar   
    11    7   12 ar   
    12    8    9 ar   
    13    9   10 ar   
    14   10   11 ar   
    15   11   12 ar   
    16   13   14 1    
    17   13   25 1    
    18   14   15 1    
    19   14   19 1    
    20   14   21 1    
    21   15   16 1    
    22   16   17 2    
    23   16   18 1    
    24   19   20 1    
    25   20   21 1    
    26   21   22 1    
    27   22   23 1    
    28   23   24 1    
    29   23   25 1    
    30   25   26 1    
    31   25   27 1    
    32   27   28 2    
    33   27   29 1    
    34   29   30 1    
    35   29   34 1    
    36   30   31 1    
    37   31   32 2    
    38   31   33 1    
    39   34   35 2    
    40   34   60 1    
    41   35   36 1    
    42   35   59 1    
    43   36   37 1    
    44   36   58 1    
    45   37   38 1    
    46   38   39 2    
    47   38   40 1    
    48   40   41 1    
    49   40   42 1    
    50   42   43 1    
    51   42   52 1    
    52   43   44 am   
    53   44   45 2    
    54   44   46 1    
    55   46   47 ar   
    56   46   51 ar   
    57   47   48 ar   
    58   48   49 ar   
    59   49   50 ar   
    60   50   51 ar   
    61   52   53 ar   
    62   52   57 ar   
    63   53   54 ar   
    64   54   55 ar   
    65   55   56 ar   
    66   56   57 ar   
    67   60   61 1    
    68   60   62 1    
@<TRIPOS>SUBSTRUCTURE
     1 TA1502      1 GROUP   
@<TRIPOS>SET

