#    Name: 6qus_1_TA1
#    Modification time : Fri May 22 19:32:19 2020

@<TRIPOS>MOLECULE
6qus_1_TA1
   62    68     1     0     0
SMALL
NO_CHARGES


@<TRIPOS>ATOM
      1 O01       329.5980  211.8300  319.7900 O.3       1 TA1502      0.0000 
      2 C01       329.7420  211.7180  318.3580 C.3       1 TA1502      0.0000 
      3 C02       331.3130  211.1450  318.1510 C.3       1 TA1502      0.0000 
      4 O02       331.3120  209.9050  318.9170 O.3       1 TA1502      0.0000 
      5 C03       331.9150  209.8330  320.1190 C.2       1 TA1502      0.0000 
      6 O03       332.5940  210.7200  320.5570 O.2       1 TA1502      0.0000 
      7 C04       331.8880  208.4760  320.7340 C.ar      1 TA1502      0.0000 
      8 C05       331.9430  207.2410  320.0960 C.ar      1 TA1502      0.0000 
      9 C06       331.8110  206.0660  320.8200 C.ar      1 TA1502      0.0000 
     10 C07       331.5590  206.1060  322.1720 C.ar      1 TA1502      0.0000 
     11 C08       331.4370  207.3200  322.8060 C.ar      1 TA1502      0.0000 
     12 C09       331.6130  208.4980  322.1010 C.ar      1 TA1502      0.0000 
     13 C10       331.9110  210.8710  316.6740 C.3       1 TA1502      0.0000 
     14 C11       332.6170  209.4480  316.4610 C.3       1 TA1502      0.0000 
     15 O04       331.7100  208.3210  316.7270 O.3       1 TA1502      0.0000 
     16 C12       330.6500  207.9680  315.9630 C.2       1 TA1502      0.0000 
     17 O05       330.3020  208.5550  314.9850 O.2       1 TA1502      0.0000 
     18 C13       330.0000  206.7470  316.5190 C.3       1 TA1502      0.0000 
     19 C14       333.8430  209.0610  317.2840 C.3       1 TA1502      0.0000 
     20 O06       334.6750  208.9800  316.1310 O.3       1 TA1502      0.0000 
     21 C15       333.5440  209.2440  315.2450 C.3       1 TA1502      0.0000 
     22 C16       333.8240  210.4230  314.3210 C.3       1 TA1502      0.0000 
     23 C17       332.8630  211.6090  314.4430 C.3       1 TA1502      0.0000 
     24 O07       333.2460  212.6460  313.5310 O.3       1 TA1502      0.0000 
     25 C18       332.7240  212.1060  315.9290 C.3       1 TA1502      0.0000 
     26 C19       334.0840  212.4990  316.5490 C.3       1 TA1502      0.0000 
     27 C20       332.0960  213.5890  315.8730 C.2       1 TA1502      0.0000 
     28 O08       332.7290  214.5430  316.2910 O.2       1 TA1502      0.0000 
     29 C21       330.6100  213.9240  315.4220 C.3       1 TA1502      0.0000 
     30 O09       330.4080  215.3770  315.5450 O.3       1 TA1502      0.0000 
     31 C22       330.2500  216.1790  314.4690 C.2       1 TA1502      0.0000 
     32 O10       330.3020  215.7820  313.3430 O.2       1 TA1502      0.0000 
     33 C23       330.0160  217.5920  314.8830 C.3       1 TA1502      0.0000 
     34 C24       329.5000  213.1360  316.1820 C.2       1 TA1502      0.0000 
     35 C25       328.8680  212.1050  315.5560 C.2       1 TA1502      0.0000 
     36 C26       328.0370  211.0920  316.3740 C.3       1 TA1502      0.0000 
     37 O11       327.4980  209.9240  315.7440 O.3       1 TA1502      0.0000 
     38 C27       326.2830  209.9770  315.1860 C.2       1 TA1502      0.0000 
     39 O12       325.5710  210.9430  315.1570 O.2       1 TA1502      0.0000 
     40 C28       325.9500  208.6440  314.5740 C.3       1 TA1502      0.0000 
     41 O13       324.6620  208.7240  314.0000 O.3       1 TA1502      0.0000 
     42 C29       326.0320  207.5550  315.6610 C.3       1 TA1502      0.0000 
     43 N01       325.2110  208.0200  316.7750 N.am      1 TA1502      0.0000 
     44 C30       325.4430  207.6960  318.0530 C.2       1 TA1502      0.0000 
     45 O14       326.3500  206.9360  318.3790 O.2       1 TA1502      0.0000 
     46 C31       324.5480  208.3310  319.0750 C.ar      1 TA1502      0.0000 
     47 C32       323.1690  208.1350  319.0590 C.ar      1 TA1502      0.0000 
     48 C33       322.3610  208.7550  319.9970 C.ar      1 TA1502      0.0000 
     49 C34       322.9140  209.5750  320.9600 C.ar      1 TA1502      0.0000 
     50 C35       324.2760  209.7750  320.9870 C.ar      1 TA1502      0.0000 
     51 C36       325.0910  209.1610  320.0530 C.ar      1 TA1502      0.0000 
     52 C37       325.6990  206.1680  315.1410 C.ar      1 TA1502      0.0000 
     53 C38       326.7090  205.3490  314.6540 C.ar      1 TA1502      0.0000 
     54 C39       326.4220  204.0890  314.1580 C.ar      1 TA1502      0.0000 
     55 C40       325.1260  203.6310  314.1390 C.ar      1 TA1502      0.0000 
     56 C41       324.1130  204.4320  314.6140 C.ar      1 TA1502      0.0000 
     57 C42       324.3950  205.6910  315.1170 C.ar      1 TA1502      0.0000 
     58 C43       328.7410  210.7180  317.7290 C.3       1 TA1502      0.0000 
     59 C44       328.9330  211.8520  314.0760 C.3       1 TA1502      0.0000 
     60 C45       329.4600  213.2900  317.7800 C.3       1 TA1502      0.0000 
     61 C46       328.1450  213.9530  318.2600 C.3       1 TA1502      0.0000 
     62 C47       330.3080  214.2770  318.5970 C.3       1 TA1502      0.0000 
@<TRIPOS>BOND
     1    1    2 1    
     2    2    3 1    
     3    2   58 1    
     4    2   60 1    
     5    3    4 1    
     6    3   13 1    
     7    4    5 1    
     8    5    6 2    
     9    5    7 1    
    10    7    8 ar   
    11    7   12 ar   
    12    8    9 ar   
    13    9   10 ar   
    14   10   11 ar   
    15   11   12 ar   
    16   13   14 1    
    17   13   25 1    
    18   14   15 1    
    19   14   19 1    
    20   14   21 1    
    21   15   16 1    
    22   16   17 2    
    23   16   18 1    
    24   19   20 1    
    25   20   21 1    
    26   21   22 1    
    27   22   23 1    
    28   23   24 1    
    29   23   25 1    
    30   25   26 1    
    31   25   27 1    
    32   27   28 2    
    33   27   29 1    
    34   29   30 1    
    35   29   34 1    
    36   30   31 1    
    37   31   32 2    
    38   31   33 1    
    39   34   35 2    
    40   34   60 1    
    41   35   36 1    
    42   35   59 1    
    43   36   37 1    
    44   36   58 1    
    45   37   38 1    
    46   38   39 2    
    47   38   40 1    
    48   40   41 1    
    49   40   42 1    
    50   42   43 1    
    51   42   52 1    
    52   43   44 am   
    53   44   45 2    
    54   44   46 1    
    55   46   47 ar   
    56   46   51 ar   
    57   47   48 ar   
    58   48   49 ar   
    59   49   50 ar   
    60   50   51 ar   
    61   52   53 ar   
    62   52   57 ar   
    63   53   54 ar   
    64   54   55 ar   
    65   55   56 ar   
    66   56   57 ar   
    67   60   61 1    
    68   60   62 1    
@<TRIPOS>SUBSTRUCTURE
     1 TA1502      1 GROUP   
@<TRIPOS>SET

