#    Name: 6qus_6_GTP
#    Modification time : Fri May 22 19:33:00 2020

@<TRIPOS>MOLECULE
6qus_6_GTP
   32    34     1     0     1
SMALL
NO_CHARGES


@<TRIPOS>ATOM
      1 PG        264.9970  191.3710  304.8630 P.3       1 GTP501      0.0000 
      2 O1G       265.8690  192.4030  305.4550 O.co2     1 GTP501      0.0000 
      3 O2G       263.5150  191.6860  304.9450 O.co2     1 GTP501      0.0000 
      4 O3G       265.2340  189.9920  305.4110 O.co2     1 GTP501      0.0000 
      5 O3B       265.3000  191.2700  303.3080 O.3       1 GTP501      0.0000 
      6 PB        266.1770  192.2490  302.4210 P.3       1 GTP501      0.0000 
      7 O1B       266.0030  193.6480  302.8330 O.co2     1 GTP501      0.0000 
      8 O2B       265.8190  192.0540  300.9710 O.co2     1 GTP501      0.0000 
      9 O3A       267.6800  191.8080  302.6610 O.3       1 GTP501      0.0000 
     10 PA        268.9650  192.2570  301.8450 P.3       1 GTP501      0.0000 
     11 O1A       269.7170  193.2440  302.6310 O.co2     1 GTP501      0.0000 
     12 O2A       268.4750  192.8950  300.5650 O.co2     1 GTP501      0.0000 
     13 O5'       269.7510  190.9440  301.5050 O.3       1 GTP501      0.0000 
     14 C5'       271.0960  190.7060  301.9500 C.3       1 GTP501      0.0000 
     15 C4'       271.9580  190.4400  300.7460 C.3       1 GTP501      0.0000 
     16 O4'       271.9620  191.6040  299.8860 O.3       1 GTP501      0.0000 
     17 C3'       273.4200  190.1550  301.0730 C.3       1 GTP501      0.0000 
     18 O3'       273.9570  189.1700  300.2010 O.3       1 GTP501      0.0000 
     19 C2'       274.0720  191.5200  300.8670 C.3       1 GTP501      0.0000 
     20 O2'       275.4520  191.4120  300.5520 O.3       1 GTP501      0.0000 
     21 C1'       273.2940  192.0170  299.6640 C.3       1 GTP501      0.0000 
     22 N9        273.3130  193.4720  299.5420 N.pl3     1 GTP501      0.0000 
     23 C8        272.7460  194.3670  300.3990 C.2       1 GTP501      0.0000 
     24 N7        272.9410  195.6120  300.0470 N.2       1 GTP501      0.0000 
     25 C5        273.6790  195.5240  298.8810 C.2       1 GTP501      0.0000 
     26 C6        274.1710  196.5320  298.0190 C.2       1 GTP501      0.0000 
     27 O6        274.0680  197.7430  298.1590 O.2       1 GTP501      0.0000 
     28 N1        274.8380  196.0160  296.9330 N.am      1 GTP501      0.0000 
     29 C2        275.0200  194.6880  296.6910 C.2       1 GTP501      0.0000 
     30 N2        275.6720  194.3600  295.5800 N.pl3     1 GTP501      0.0000 
     31 N3        274.5680  193.7320  297.4970 N.2       1 GTP501      0.0000 
     32 C4        273.9120  194.2170  298.5600 C.2       1 GTP501      0.0000 
@<TRIPOS>BOND
     1    1    2 ar   
     2    1    3 ar   
     3    1    4 ar   
     4    1    5 1    
     5    5    6 1    
     6    6    7 ar   
     7    6    8 ar   
     8    6    9 1    
     9    9   10 1    
    10   10   11 ar   
    11   10   12 ar   
    12   10   13 1    
    13   13   14 1    
    14   14   15 1    
    15   15   16 1    
    16   15   17 1    
    17   16   21 1    
    18   17   18 1    
    19   17   19 1    
    20   19   20 1    
    21   19   21 1    
    22   21   22 1    
    23   22   23 1    
    24   22   32 1    
    25   23   24 2    
    26   24   25 1    
    27   25   26 1    
    28   25   32 2    
    29   26   27 2    
    30   26   28 am   
    31   28   29 1    
    32   29   30 1    
    33   29   31 2    
    34   31   32 1    
@<TRIPOS>SUBSTRUCTURE
     1 GTP501      1 GROUP   
@<TRIPOS>SET
ATOM$ORANGE STATIC     ATOMS   COLORGROUP SYSTEM 
20 14 14 15 15 17 17 19 19 21 21 23 23 25 25 26 26 29 \
29 32 32 

