#    Name: 6qus_3_GTP
#    Modification time : Fri May 22 19:32:38 2020

@<TRIPOS>MOLECULE
6qus_3_GTP
   32    34     1     0     1
SMALL
NO_CHARGES


@<TRIPOS>ATOM
      1 PG        319.5640  187.4680  295.0990 P.3       1 GTP501      0.0000 
      2 O1G       319.8450  188.7960  295.6840 O.co2     1 GTP501      0.0000 
      3 O2G       318.1090  187.0450  295.1940 O.co2     1 GTP501      0.0000 
      4 O3G       320.4290  186.3640  295.6600 O.co2     1 GTP501      0.0000 
      5 O3B       319.8740  187.5130  293.5440 O.3       1 GTP501      0.0000 
      6 PB        320.1940  188.7940  292.6640 P.3       1 GTP501      0.0000 
      7 O1B       319.3770  189.9440  293.0770 O.co2     1 GTP501      0.0000 
      8 O2B       319.9780  188.4560  291.2130 O.co2     1 GTP501      0.0000 
      9 O3A       321.7310  189.1030  292.9050 O.3       1 GTP501      0.0000 
     10 PA        322.6590  190.0970  292.0890 P.3       1 GTP501      0.0000 
     11 O1A       322.8560  191.3120  292.8850 O.co2     1 GTP501      0.0000 
     12 O2A       321.9370  190.4420  290.8030 O.co2     1 GTP501      0.0000 
     13 O5'       323.9710  189.3020  291.7490 O.3       1 GTP501      0.0000 
     14 C5'       325.2720  189.7280  292.1860 C.3       1 GTP501      0.0000 
     15 C4'       326.1610  189.9010  290.9830 C.3       1 GTP501      0.0000 
     16 O4'       325.6190  190.9340  290.1290 O.3       1 GTP501      0.0000 
     17 C3'       327.5850  190.3330  291.3170 C.3       1 GTP501      0.0000 
     18 O3'       328.5240  189.7010  290.4570 O.3       1 GTP501      0.0000 
     19 C2'       327.5250  191.8440  291.1130 C.3       1 GTP501      0.0000 
     20 O2'       328.7880  192.4060  290.7890 O.3       1 GTP501      0.0000 
     21 C1'       326.6030  191.9230  289.9110 C.3       1 GTP501      0.0000 
     22 N9        325.9380  193.2140  289.7970 N.pl3     1 GTP501      0.0000 
     23 C8        325.0150  193.7290  290.6520 C.2       1 GTP501      0.0000 
     24 N7        324.5980  194.9180  290.3010 N.2       1 GTP501      0.0000 
     25 C5        325.2960  195.1950  289.1390 C.2       1 GTP501      0.0000 
     26 C6        325.2610  196.3210  288.2820 C.2       1 GTP501      0.0000 
     27 O6        324.5900  197.3370  288.4200 O.2       1 GTP501      0.0000 
     28 N1        326.1000  196.1830  287.2010 N.am      1 GTP501      0.0000 
     29 C2        326.8860  195.0960  286.9600 C.2       1 GTP501      0.0000 
     30 N2        327.6320  195.1210  285.8580 N.pl3     1 GTP501      0.0000 
     31 N3        326.9330  194.0390  287.7630 N.2       1 GTP501      0.0000 
     32 C4        326.1210  194.1550  288.8200 C.2       1 GTP501      0.0000 
@<TRIPOS>BOND
     1    1    2 ar   
     2    1    3 ar   
     3    1    4 ar   
     4    1    5 1    
     5    5    6 1    
     6    6    7 ar   
     7    6    8 ar   
     8    6    9 1    
     9    9   10 1    
    10   10   11 ar   
    11   10   12 ar   
    12   10   13 1    
    13   13   14 1    
    14   14   15 1    
    15   15   16 1    
    16   15   17 1    
    17   16   21 1    
    18   17   18 1    
    19   17   19 1    
    20   19   20 1    
    21   19   21 1    
    22   21   22 1    
    23   22   23 1    
    24   22   32 1    
    25   23   24 2    
    26   24   25 1    
    27   25   26 1    
    28   25   32 2    
    29   26   27 2    
    30   26   28 am   
    31   28   29 1    
    32   29   30 1    
    33   29   31 2    
    34   31   32 1    
@<TRIPOS>SUBSTRUCTURE
     1 GTP501      1 GROUP   
@<TRIPOS>SET
ATOM$ORANGE STATIC     ATOMS   COLORGROUP SYSTEM 
20 14 14 15 15 17 17 19 19 21 21 23 23 25 25 26 26 29 \
29 32 32 

