#    Name: 6qus_4_GDP
#    Modification time : Fri May 22 19:32:44 2020

@<TRIPOS>MOLECULE
6qus_4_GDP
   28    30     1     0     1
SMALL
NO_CHARGES


@<TRIPOS>ATOM
      1 PB        320.8540  188.6100  334.1500 P.3       1 GDP501      0.0000 
      2 O1B       320.7260  188.1840  332.6960 O.co2     1 GDP501      0.0000 
      3 O2B       320.0150  189.8510  334.3440 O.co2     1 GDP501      0.0000 
      4 O3B       320.5500  187.5270  335.0980 O.co2     1 GDP501      0.0000 
      5 O3A       322.3540  189.0880  334.3580 O.3       1 GDP501      0.0000 
      6 PA        323.1890  190.1970  333.5870 P.3       1 GDP501      0.0000 
      7 O1A       322.5420  190.4340  332.2380 O.co2     1 GDP501      0.0000 
      8 O2A       323.1780  191.4380  334.3720 O.co2     1 GDP501      0.0000 
      9 O5'       324.5960  189.5320  333.3570 O.3       1 GDP501      0.0000 
     10 C5'       325.8530  190.0380  333.8410 C.3       1 GDP501      0.0000 
     11 C4'       326.7840  190.2010  332.6690 C.3       1 GDP501      0.0000 
     12 O4'       326.2490  191.1900  331.7620 O.3       1 GDP501      0.0000 
     13 C3'       328.1920  190.6670  333.0260 C.3       1 GDP501      0.0000 
     14 O3'       329.1550  190.0170  332.2080 O.3       1 GDP501      0.0000 
     15 C2'       328.1320  192.1670  332.7500 C.3       1 GDP501      0.0000 
     16 O2'       329.3950  192.6840  332.3560 O.3       1 GDP501      0.0000 
     17 C1'       327.2020  192.2100  331.5510 C.3       1 GDP501      0.0000 
     18 N9        326.4990  193.4860  331.4330 N.pl3     1 GDP501      0.0000 
     19 C8        325.5800  193.9970  332.3040 C.2       1 GDP501      0.0000 
     20 N7        325.1250  195.1690  331.9440 N.2       1 GDP501      0.0000 
     21 C5        325.7830  195.4410  330.7580 C.2       1 GDP501      0.0000 
     22 C6        325.6860  196.5420  329.8810 C.2       1 GDP501      0.0000 
     23 O6        324.9830  197.5360  330.0170 O.2       1 GDP501      0.0000 
     24 N1        326.4960  196.4040  328.7790 N.am      1 GDP501      0.0000 
     25 C2        327.3120  195.3400  328.5320 C.2       1 GDP501      0.0000 
     26 N2        328.0260  195.3700  327.4080 N.pl3     1 GDP501      0.0000 
     27 N3        327.4180  194.3010  329.3540 N.2       1 GDP501      0.0000 
     28 C4        326.6310  194.4150  330.4350 C.2       1 GDP501      0.0000 
@<TRIPOS>BOND
     1    1    2 ar   
     2    1    3 ar   
     3    1    4 ar   
     4    1    5 1    
     5    5    6 1    
     6    6    7 ar   
     7    6    8 ar   
     8    6    9 1    
     9    9   10 1    
    10   10   11 1    
    11   11   12 1    
    12   11   13 1    
    13   12   17 1    
    14   13   14 1    
    15   13   15 1    
    16   15   16 1    
    17   15   17 1    
    18   17   18 1    
    19   18   19 1    
    20   18   28 1    
    21   19   20 2    
    22   20   21 1    
    23   21   22 1    
    24   21   28 2    
    25   22   23 2    
    26   22   24 am   
    27   24   25 1    
    28   25   26 1    
    29   25   27 2    
    30   27   28 1    
@<TRIPOS>SUBSTRUCTURE
     1 GDP501      1 GROUP   
@<TRIPOS>SET
ATOM$ORANGE STATIC     ATOMS   COLORGROUP SYSTEM 
20 10 10 11 11 13 13 15 15 17 17 19 19 21 21 22 22 25 \
25 28 28 

