#    Name: 6a9u_1_PRO_PRO_ALA_01B_NH2_CAVITY_N1_6
#    Modification time : Fri May 22 19:28:39 2020

@<TRIPOS>MOLECULE
6a9u_1_PRO_PRO_ALA_01B_NH2_CAVITY_N1_6
  114     0     7     0     0
SMALL
NO_CHARGES


@<TRIPOS>ATOM
      1 OG         -6.1300  -41.0400  -23.1000 O.3       1 SER1        0.0000 
      2 OG         -4.9700  -40.3400  -22.4600 O.3       1 SER1        0.0000 
      3 OG         -6.2800  -39.2400  -17.7800 O.3       1 SER1        0.0000 
      4 OG         -6.0000  -40.4500  -16.9400 O.3       1 SER1        0.0000 
      5 OG         -5.6400  -38.5600  -19.6900 O.3       1 SER1        0.0000 
      6 OG         -4.7200  -39.1000  -20.7500 O.3       1 SER1        0.0000 
      7 OG         -3.8100  -39.6300  -21.8200 O.3       1 SER1        0.0000 
      8 OG         -2.2600  -39.4800  -24.7900 O.3       1 SER1        0.0000 
      9 OG         -4.2000  -39.0700  -18.2100 O.3       1 SER1        0.0000 
     10 OG         -3.9300  -40.2800  -17.3700 O.3       1 SER1        0.0000 
     11 OG         -3.2900  -39.6000  -19.2700 O.3       1 SER1        0.0000 
     12 OG         -1.1000  -38.7800  -24.1500 O.3       1 SER1        0.0000 
     13 OG          0.7300  -39.9000  -15.6700 O.3       1 SER1        0.0000 
     14 OG          1.0100  -41.1100  -14.8300 O.3       1 SER1        0.0000 
     15 OG          1.2500  -39.8700  -13.1300 O.3       1 SER1        0.0000 
     16 N          -6.3700  -42.2800  -24.8000 N.am      2 ALA2        0.0000 
     17 N          -5.4900  -40.3600  -25.0000 N.am      2 ALA2        0.0000 
     18 N          -4.6100  -38.4500  -25.2100 N.am      2 ALA2        0.0000 
     19 O          -2.2300  -41.9400  -25.6500 O.2       2 ALA2        0.0000 
     20 N          -2.2500  -39.5400  -14.1800 N.am      2 ALA2        0.0000 
     21 N          -1.3700  -37.6200  -14.3800 N.am      2 ALA2        0.0000 
     22 N          -0.8200  -40.0500  -12.7000 N.am      2 ALA2        0.0000 
     23 N          -0.4500  -38.1600  -15.4500 N.am      2 ALA2        0.0000 
     24 N          -0.1800  -39.3700  -14.6100 N.am      2 ALA2        0.0000 
     25 N           1.1000  -38.0100  -18.4200 N.am      2 ALA2        0.0000 
     26 N           0.9800  -38.6600  -13.9700 N.am      2 ALA2        0.0000 
     27 OD1        -7.2600  -44.2000  -24.6000 O.co2     3 ASP3        0.0000 
     28 OD1        -4.4800  -37.8600  -19.0500 O.co2     3 ASP3        0.0000 
     29 OD1        -3.8400  -37.1800  -20.9600 O.co2     3 ASP3        0.0000 
     30 OD1        -3.5700  -38.3900  -20.1100 O.co2     3 ASP3        0.0000 
     31 OD1        -4.2300  -36.6200  -17.3500 O.co2     3 ASP3        0.0000 
     32 OD1        -3.3200  -37.1500  -18.4100 O.co2     3 ASP3        0.0000 
     33 OD1        -2.4100  -37.6800  -19.4800 O.co2     3 ASP3        0.0000 
     34 OD1        -3.0700  -35.9100  -16.7100 O.co2     3 ASP3        0.0000 
     35 OD1        -0.3400  -37.5100  -19.9000 O.co2     3 ASP3        0.0000 
     36 OD1         0.3000  -36.8300  -21.8100 O.co2     3 ASP3        0.0000 
     37 OD1         1.2100  -37.3600  -22.8700 O.co2     3 ASP3        0.0000 
     38 NZ         -4.0900  -38.4200  -22.6600 N.4       4 LYS4        0.0000 
     39 NZ         -3.4500  -37.7400  -24.5700 N.4       4 LYS4        0.0000 
     40 NZ         -3.1700  -38.9500  -23.7200 N.4       4 LYS4        0.0000 
     41 NZ         -2.9300  -37.7100  -22.0200 N.4       4 LYS4        0.0000 
     42 NZ         -2.0200  -38.2400  -23.0900 N.4       4 LYS4        0.0000 
     43 NZ         -1.7700  -37.0000  -21.3800 N.4       4 LYS4        0.0000 
     44 NZ         -1.1300  -36.3300  -23.2900 N.4       4 LYS4        0.0000 
     45 NZ         -0.8600  -37.5400  -22.4500 N.4       4 LYS4        0.0000 
     46 NZ         -2.1600  -36.4400  -17.7700 N.4       4 LYS4        0.0000 
     47 NZ         -1.8900  -37.6500  -16.9300 N.4       4 LYS4        0.0000 
     48 NZ         -1.2500  -36.9800  -18.8400 N.4       4 LYS4        0.0000 
     49 NZ         -0.7300  -36.9500  -16.2900 N.4       4 LYS4        0.0000 
     50 NZ          0.1800  -37.4800  -17.3600 N.4       4 LYS4        0.0000 
     51 CZ         -7.0100  -42.9600  -22.8900 C.ar      5 PHE5        0.0000 
     52 CZ         -6.4000  -39.8300  -23.9400 C.ar      5 PHE5        0.0000 
     53 CZ         -5.8500  -42.2500  -22.2600 C.ar      5 PHE5        0.0000 
     54 CZ         -5.2400  -39.1200  -23.3000 C.ar      5 PHE5        0.0000 
     55 CZ         -4.8700  -37.2900  -15.4400 C.ar      5 PHE5        0.0000 
     56 CZ         -3.9600  -37.8300  -16.5100 C.ar      5 PHE5        0.0000 
     57 CZ         -0.9500  -40.6400  -18.8600 C.ar      5 PHE5        0.0000 
     58 CZ         -0.0300  -41.1700  -19.9200 C.ar      5 PHE5        0.0000 
     59 CZ          0.0600  -38.0700  -23.5100 C.ar      5 PHE5        0.0000 
     60 CZ         -2.8000  -37.1200  -15.8700 C.ar      5 PHE5        0.0000 
     61 CZ         -2.5300  -38.3300  -15.0200 C.ar      5 PHE5        0.0000 
     62 CZ          0.2100  -39.9300  -18.2200 C.ar      5 PHE5        0.0000 
     63 CZ          1.1200  -40.4600  -19.2800 C.ar      5 PHE5        0.0000 
     64 CZ         -1.6400  -36.4100  -15.2300 C.ar      5 PHE5        0.0000 
     65 CA         -7.2900  -41.7500  -23.7400 C.3       6 GLY6        0.0000 
     66 CA         -4.3000  -42.1100  -25.2300 C.3       6 GLY6        0.0000 
     67 CA         -3.3900  -42.6400  -26.2900 C.3       6 GLY6        0.0000 
     68 CA         -3.4200  -40.1900  -25.4300 C.3       6 GLY6        0.0000 
     69 CA         -7.5500  -40.6000  -13.9700 C.3       6 GLY6        0.0000 
     70 CA         -6.6400  -41.1300  -15.0400 C.3       6 GLY6        0.0000 
     71 CA         -1.9900  -40.7000  -23.9500 C.3       6 GLY6        0.0000 
     72 CA         -1.0700  -41.2300  -25.0100 C.3       6 GLY6        0.0000 
     73 CA         -6.3900  -39.8900  -13.3300 C.3       6 GLY6        0.0000 
     74 CA         -5.7600  -39.2100  -15.2400 C.3       6 GLY6        0.0000 
     75 CA         -5.4800  -40.4200  -14.4000 C.3       6 GLY6        0.0000 
     76 CA         -5.1200  -38.5300  -17.1400 C.3       6 GLY6        0.0000 
     77 CA         -4.8400  -39.7400  -16.3000 C.3       6 GLY6        0.0000 
     78 CA         -0.8300  -39.9900  -23.3100 C.3       6 GLY6        0.0000 
     79 CA          0.0800  -40.5200  -24.3700 C.3       6 GLY6        0.0000 
     80 CA         -4.6000  -38.5000  -14.6000 C.3       6 GLY6        0.0000 
     81 CA         -4.3200  -39.7200  -13.7600 C.3       6 GLY6        0.0000 
     82 CA         -0.3100  -39.9600  -20.7600 C.3       6 GLY6        0.0000 
     83 CA          0.3300  -39.2800  -22.6700 C.3       6 GLY6        0.0000 
     84 CA          0.6000  -40.4900  -21.8300 C.3       6 GLY6        0.0000 
     85 CA          1.2400  -39.8100  -23.7300 C.3       6 GLY6        0.0000 
     86 CA          1.5200  -41.0300  -22.8900 C.3       6 GLY6        0.0000 
     87 CA         -3.1600  -39.0100  -13.1200 C.3       6 GLY6        0.0000 
     88 CA          0.5800  -38.0400  -20.9700 C.3       6 GLY6        0.0000 
     89 CA          0.8500  -39.2500  -20.1200 C.3       6 GLY6        0.0000 
     90 CA          0.4600  -38.6900  -16.5100 C.3       6 GLY6        0.0000 
     91 CA          0.7000  -37.4500  -14.8100 C.3       6 GLY6        0.0000 
     92 CA          1.8900  -39.1900  -15.0300 C.3       6 GLY6        0.0000 
     93 DU         -5.2200  -41.5800  -24.1600 H         7 CUB7        0.0000 
     94 DU         -4.3300  -39.6600  -24.3600 H         7 CUB7        0.0000 
     95 DU         -4.0600  -40.8700  -23.5200 H         7 CUB7        0.0000 
     96 DU         -3.1500  -41.4000  -24.5900 H         7 CUB7        0.0000 
     97 DU         -2.9000  -40.1600  -22.8800 H         7 CUB7        0.0000 
     98 DU         -2.6500  -38.9200  -21.1800 H         7 CUB7        0.0000 
     99 DU         -2.3800  -40.1300  -20.3400 H         7 CUB7        0.0000 
    100 DU         -1.7400  -39.4600  -22.2400 H         7 CUB7        0.0000 
    101 DU         -1.4700  -40.6700  -21.4000 H         7 CUB7        0.0000 
    102 DU         -3.6800  -39.0400  -15.6600 H         7 CUB7        0.0000 
    103 DU         -3.4100  -40.2500  -14.8200 H         7 CUB7        0.0000 
    104 DU         -3.0500  -38.3600  -17.5700 H         7 CUB7        0.0000 
    105 DU         -2.7700  -39.5700  -16.7300 H         7 CUB7        0.0000 
    106 DU         -2.1300  -38.8900  -18.6300 H         7 CUB7        0.0000 
    107 DU         -1.8600  -40.1000  -17.7900 H         7 CUB7        0.0000 
    108 DU         -1.5000  -38.2200  -20.5400 H         7 CUB7        0.0000 
    109 DU         -1.2200  -39.4300  -19.7000 H         7 CUB7        0.0000 
    110 DU         -0.5800  -38.7500  -21.6000 H         7 CUB7        0.0000 
    111 DU         -1.6100  -38.8600  -16.0900 H         7 CUB7        0.0000 
    112 DU         -1.3400  -40.0800  -15.2500 H         7 CUB7        0.0000 
    113 DU         -0.9700  -38.1900  -17.9900 H         7 CUB7        0.0000 
    114 DU         -0.0600  -38.7200  -19.0600 H         7 CUB7        0.0000 
@<TRIPOS>BOND
@<TRIPOS>SUBSTRUCTURE
     1 SER1        1 GROUP   
     2 ALA2       16 GROUP   
     3 ASP3       27 GROUP   
     4 LYS4       38 GROUP   
     5 PHE5       51 GROUP   
     6 GLY6       65 GROUP   
     7 CUB7       93 GROUP   
@<TRIPOS>SET

