#    Name: 6a9u_1_PRO_PRO_ALA_01B_NH2
#    Modification time : Fri May 22 19:28:37 2020

@<TRIPOS>MOLECULE
6a9u_1_PRO_PRO_ALA_01B_NH2
   33    35     5     0     0
SMALL
NO_CHARGES


@<TRIPOS>ATOM
      1 N          -2.8230  -38.5780  -21.5110 N.am      1 PRO2        0.0000 
      2 CA         -2.9420  -39.2810  -22.7950 C.3       1 PRO2        0.0000 
      3 C          -3.3060  -40.7550  -22.6330 C.2       1 PRO2        0.0000 
      4 O          -2.6770  -41.4540  -21.8380 O.2       1 PRO2        0.0000 
      5 CB         -1.5470  -39.1300  -23.4110 C.3       1 PRO2        0.0000 
      6 CG         -0.9690  -37.9200  -22.7550 C.3       1 PRO2        0.0000 
      7 CD         -1.5120  -37.9210  -21.3600 C.3       1 PRO2        0.0000 
      8 N          -4.3120  -41.2190  -23.3790 N.am      2 PRO3        0.0000 
      9 CA         -4.7530  -42.6160  -23.2490 C.3       2 PRO3        0.0000 
     10 C          -3.6940  -43.6160  -23.6870 C.2       2 PRO3        0.0000 
     11 O          -3.2330  -44.4380  -22.8890 O.2       2 PRO3        0.0000 
     12 CB         -5.9870  -42.6780  -24.1590 C.3       2 PRO3        0.0000 
     13 CG         -6.4430  -41.2550  -24.2820 C.3       2 PRO3        0.0000 
     14 CD         -5.1830  -40.4480  -24.2800 C.3       2 PRO3        0.0000 
     15 N          -3.3250  -43.5710  -24.9620 N.am      3 ALA4        0.0000 
     16 CA         -2.2570  -44.4130  -25.4810 C.3       3 ALA4        0.0000 
     17 C          -1.0780  -43.5170  -25.7710 C.2       3 ALA4        0.0000 
     18 O           0.0780  -43.8840  -25.5590 O.2       3 ALA4        0.0000 
     19 CB         -2.6990  -45.1550  -26.7370 C.3       3 ALA4        0.0000 
     20 C1         -4.1200  -37.0120  -18.1820 C.3       4 01B1        0.0000 
     21 C2         -3.4600  -36.8490  -19.5640 C.3       4 01B1        0.0000 
     22 N2         -3.5890  -36.0400  -17.2650 N.4       4 01B1        0.0000 
     23 O2         -4.0820  -35.8080  -20.2700 O.3       4 01B1        0.0000 
     24 C3         -3.5790  -38.1490  -20.3750 C.2       4 01B1        0.0000 
     25 C6         -3.9010  -38.4460  -17.6110 C.3       4 01B1        0.0000 
     26 C7         -2.4030  -38.6920  -17.1560 C.ar      4 01B1        0.0000 
     27 C8         -1.4880  -39.2710  -18.0340 C.ar      4 01B1        0.0000 
     28 C9         -0.1690  -39.4890  -17.6340 C.ar      4 01B1        0.0000 
     29 C10         0.2370  -39.1340  -16.3480 C.ar      4 01B1        0.0000 
     30 C11        -0.6750  -38.5580  -15.4650 C.ar      4 01B1        0.0000 
     31 C12        -1.9920  -38.3410  -15.8680 C.ar      4 01B1        0.0000 
     32 O3         -4.7130  -38.5840  -20.7250 O.co2     4 01B1        0.0000 
     33 N          -1.3960  -42.3210  -26.2440           5 NH25        0.0000 
@<TRIPOS>BOND
     1    1    2 1    
     2    1    7 1    
     3    1   24 du   
     4    2    3 1    
     5    2    5 1    
     6    3    4 2    
     7    3    8 am   
     8    5    6 1    
     9    6    7 1    
    10    8    9 1    
    11    8   14 1    
    12    9   10 1    
    13    9   12 1    
    14   10   11 2    
    15   10   15 am   
    16   12   13 1    
    17   13   14 1    
    18   15   16 1    
    19   16   17 1    
    20   16   19 1    
    21   17   18 2    
    22   17   33 du   
    23   20   21 1    
    24   20   22 1    
    25   20   25 1    
    26   21   23 1    
    27   21   24 1    
    28   24   32 ar   
    29   25   26 1    
    30   26   27 ar   
    31   26   31 ar   
    32   27   28 ar   
    33   28   29 ar   
    34   29   30 ar   
    35   30   31 ar   
@<TRIPOS>SUBSTRUCTURE
     1 PRO2        1 RESIDUE 
     2 PRO3        8 RESIDUE 
     3 ALA4       15 RESIDUE 
     4 01B1       20 GROUP   
     5 NH25       33 GROUP   
@<TRIPOS>SET

