#    Name: 6he0_1_COA
#    Modification time : Fri May 22 19:29:37 2020

@<TRIPOS>MOLECULE
6he0_1_COA
   48    50     1     0     1
SMALL
NO_CHARGES


@<TRIPOS>ATOM
      1 N1A        18.0240   45.8180    5.9460 N.ar      1 COA1003     0.0000 
      2 C2A        18.1280   46.1150    4.6470 C.ar      1 COA1003     0.0000 
      3 N3A        18.9850   46.9480    4.0440 N.ar      1 COA1003     0.0000 
      4 C4A        19.7920   47.5410    4.9300 C.ar      1 COA1003     0.0000 
      5 C5A        19.8000   47.3430    6.3010 C.ar      1 COA1003     0.0000 
      6 C6A        18.8590   46.4220    6.8190 C.ar      1 COA1003     0.0000 
      7 N6A        18.7770   46.0800    8.1000 N.pl3     1 COA1003     0.0000 
      8 N7A        20.7560   48.1460    6.9070 N.2       1 COA1003     0.0000 
      9 C8A        21.2770   48.8160    5.9080 C.2       1 COA1003     0.0000 
     10 N9A        20.7520   48.4930    4.6830 N.pl3     1 COA1003     0.0000 
     11 C1B        21.1550   49.0280    3.3770 C.3       1 COA1003     0.0000 
     12 C2B        21.3270   50.5420    3.3760 C.3       1 COA1003     0.0000 
     13 O2B        20.0600   51.1860    3.3180 O.3       1 COA1003     0.0000 
     14 C3B        22.3170   50.7270    2.2200 C.3       1 COA1003     0.0000 
     15 O3B        21.6790   50.6850    0.9270 O.3       1 COA1003     0.0000 
     16 P3B        21.2190   51.9620    0.1260 P.3       1 COA1003     0.0000 
     17 O7A        21.2790   51.6490   -1.2890 O.co2     1 COA1003     0.0000 
     18 O8A        19.8420   52.2000    0.6330 O.co2     1 COA1003     0.0000 
     19 O9A        22.0820   53.1430    0.5430 O.co2     1 COA1003     0.0000 
     20 C4B        23.1920   49.4730    2.2830 C.3       1 COA1003     0.0000 
     21 O4B        22.4130   48.4860    3.0020 O.3       1 COA1003     0.0000 
     22 C5B        24.5280   49.6740    2.9560 C.3       1 COA1003     0.0000 
     23 O5B        24.2570   50.3050    4.2340 O.3       1 COA1003     0.0000 
     24 P1A        25.3270   50.4270    5.4140 P.3       1 COA1003     0.0000 
     25 O1A        24.7940   51.1650    6.5810 O.co2     1 COA1003     0.0000 
     26 O2A        26.6210   51.0290    4.9640 O.co2     1 COA1003     0.0000 
     27 O3A        25.6440   48.8890    5.6790 O.3       1 COA1003     0.0000 
     28 P2A        25.6940   47.8580    6.8900 P.3       1 COA1003     0.0000 
     29 O4A        26.9970   48.0300    7.5430 O.co2     1 COA1003     0.0000 
     30 O5A        24.5330   48.1460    7.8310 O.co2     1 COA1003     0.0000 
     31 O6A        25.4440   46.4370    6.2080 O.3       1 COA1003     0.0000 
     32 CBP        23.5580   44.9040    6.0990 C.3       1 COA1003     0.0000 
     33 CCP        24.1510   46.2270    5.6090 C.3       1 COA1003     0.0000 
     34 CDP        22.1320   44.7080    5.5730 C.3       1 COA1003     0.0000 
     35 CEP        24.4520   43.7730    5.5580 C.3       1 COA1003     0.0000 
     36 CAP        23.5690   44.9240    7.6520 C.3       1 COA1003     0.0000 
     37 OAP        22.8680   46.0270    8.2200 O.3       1 COA1003     0.0000 
     38 C9P        23.1340   43.6200    8.3110 C.2       1 COA1003     0.0000 
     39 O9P        23.8090   42.6020    8.1850 O.2       1 COA1003     0.0000 
     40 N8P        22.0090   43.6270    9.0230 N.am      1 COA1003     0.0000 
     41 C7P        21.5150   42.3890    9.6060 C.3       1 COA1003     0.0000 
     42 C6P        20.4550   42.6270   10.5970 C.3       1 COA1003     0.0000 
     43 C5P        19.0980   42.2530   10.0670 C.2       1 COA1003     0.0000 
     44 O5P        18.6270   42.7990    9.0690 O.2       1 COA1003     0.0000 
     45 N4P        18.4390   41.3510   10.7910 N.am      1 COA1003     0.0000 
     46 C3P        16.9880   41.2780   10.8570 C.3       1 COA1003     0.0000 
     47 C2P        16.3720   40.3410    9.8380 C.3       1 COA1003     0.0000 
     48 S1P        14.9510   41.3060    9.2710 S.3       1 COA1003     0.0000 
@<TRIPOS>BOND
     1    1    2 ar   
     2    1    6 ar   
     3    2    3 ar   
     4    3    4 ar   
     5    4    5 ar   
     6    4   10 1    
     7    5    6 ar   
     8    5    8 1    
     9    6    7 1    
    10    8    9 2    
    11    9   10 1    
    12   10   11 1    
    13   11   12 1    
    14   11   21 1    
    15   12   13 1    
    16   12   14 1    
    17   14   15 1    
    18   14   20 1    
    19   15   16 1    
    20   16   17 ar   
    21   16   18 ar   
    22   16   19 ar   
    23   20   21 1    
    24   20   22 1    
    25   22   23 1    
    26   23   24 1    
    27   24   25 ar   
    28   24   26 ar   
    29   24   27 1    
    30   27   28 1    
    31   28   29 ar   
    32   28   30 ar   
    33   28   31 1    
    34   31   33 1    
    35   32   33 1    
    36   32   34 1    
    37   32   35 1    
    38   32   36 1    
    39   36   37 1    
    40   36   38 1    
    41   38   39 2    
    42   38   40 am   
    43   40   41 1    
    44   41   42 1    
    45   42   43 1    
    46   43   44 2    
    47   43   45 am   
    48   45   46 1    
    49   46   47 1    
    50   47   48 1    
@<TRIPOS>SUBSTRUCTURE
     1 COA1003     1 GROUP   
@<TRIPOS>SET
ATOM$ORANGE STATIC     ATOMS   COLORGROUP SYSTEM 
42 2 2 4 4 5 5 6 6 9 9 11 11 12 12 14 14 20 \
20 22 22 32 32 33 33 34 34 35 35 36 36 38 38 41 41 42 \
42 43 43 46 46 47 47 

