#    Name: 6fp0_1_FAD
#    Modification time : Fri May 22 19:28:16 2020

@<TRIPOS>MOLECULE
6fp0_1_FAD
   84    89     1     0     1
SMALL
NO_CHARGES


@<TRIPOS>ATOM
      1 PA         54.1150  -16.5590  139.2670 P.3       1 FAD501      0.0000 
      2 O1A        53.3720  -15.3370  138.9230 O.co2     1 FAD501      0.0000 
      3 O2A        53.3860  -17.5640  140.1500 O.co2     1 FAD501      0.0000 
      4 O5B        54.6060  -17.2920  137.9370 O.3       1 FAD501      0.0000 
      5 C5B        55.0180  -18.6730  137.9450 C.3       1 FAD501      0.0000 
      6 C4B        54.7550  -19.2420  136.5740 C.3       1 FAD501      0.0000 
      7 O4B        55.5040  -20.4670  136.4030 O.3       1 FAD501      0.0000 
      8 C3B        53.2910  -19.5830  136.2930 C.3       1 FAD501      0.0000 
      9 O3B        52.9140  -19.1100  135.0010 O.3       1 FAD501      0.0000 
     10 C2B        53.2590  -21.1120  136.3770 C.3       1 FAD501      0.0000 
     11 O2B        52.2490  -21.6760  135.5450 O.3       1 FAD501      0.0000 
     12 C1B        54.6550  -21.4590  135.8730 C.3       1 FAD501      0.0000 
     13 N9A        55.1390  -22.7620  136.3050 N.pl3     1 FAD501      0.0000 
     14 C8A        55.0300  -23.3270  137.5490 C.2       1 FAD501      0.0000 
     15 N7A        55.5610  -24.5220  137.6390 N.2       1 FAD501      0.0000 
     16 C5A        56.0510  -24.7600  136.3640 C.ar      1 FAD501      0.0000 
     17 C6A        56.7260  -25.8570  135.7950 C.ar      1 FAD501      0.0000 
     18 N6A        57.0450  -26.9670  136.4690 N.pl3     1 FAD501      0.0000 
     19 N1A        57.0710  -25.7710  134.4910 N.ar      1 FAD501      0.0000 
     20 C2A        56.7590  -24.6670  133.8070 C.ar      1 FAD501      0.0000 
     21 N3A        56.1240  -23.5750  134.2390 N.ar      1 FAD501      0.0000 
     22 C4A        55.7940  -23.6860  135.5310 C.ar      1 FAD501      0.0000 
     23 N1         51.7800   -9.1770  144.9210 N.2       1 FAD501      0.0000 
     24 C2         51.7420   -7.8260  144.7220 C.2       1 FAD501      0.0000 
     25 O2         52.7290   -7.1980  144.3190 O.2       1 FAD501      0.0000 
     26 N3         50.5800   -7.1310  144.9740 N.am      1 FAD501      0.0000 
     27 C4         49.3990   -7.6710  145.4380 C.2       1 FAD501      0.0000 
     28 O4         48.4220   -6.9490  145.6290 O.2       1 FAD501      0.0000 
     29 C4X        49.4530   -9.1010  145.6600 C.2       1 FAD501      0.0000 
     30 N5         48.3770   -9.6930  146.1050 N.2       1 FAD501      0.0000 
     31 C5X        48.4250  -11.0610  146.3120 C.ar      1 FAD501      0.0000 
     32 C6         47.2810  -11.7050  146.7850 C.ar      1 FAD501      0.0000 
     33 C7         47.2740  -13.0770  147.0110 C.ar      1 FAD501      0.0000 
     34 C7M        46.0150  -13.7350  147.5200 C.3       1 FAD501      0.0000 
     35 C8         48.4370  -13.8270  146.7580 C.ar      1 FAD501      0.0000 
     36 C8M        48.4720  -15.3200  146.9900 C.3       1 FAD501      0.0000 
     37 C9         49.5800  -13.1880  146.2840 C.ar      1 FAD501      0.0000 
     38 C9A        49.5810  -11.8150  146.0610 C.ar      1 FAD501      0.0000 
     39 N10        50.7240  -11.1310  145.5840 N.pl3     1 FAD501      0.0000 
     40 C10        50.6870   -9.7730  145.3660 C.2       1 FAD501      0.0000 
     41 C1'        51.9650  -11.8600  145.2830 C.3       1 FAD501      0.0000 
     42 C2'        52.1190  -12.1610  143.7820 C.3       1 FAD501      0.0000 
     43 O2'        50.9690  -12.8340  143.2620 O.3       1 FAD501      0.0000 
     44 C3'        53.3420  -13.0500  143.5530 C.3       1 FAD501      0.0000 
     45 O3'        54.4280  -12.5530  144.3200 O.3       1 FAD501      0.0000 
     46 C4'        53.7690  -13.1050  142.0850 C.3       1 FAD501      0.0000 
     47 O4'        52.7220  -13.6790  141.3040 O.3       1 FAD501      0.0000 
     48 C5'        55.0550  -13.8760  141.8760 C.3       1 FAD501      0.0000 
     49 O5'        55.4650  -13.7530  140.4940 O.3       1 FAD501      0.0000 
     50 P          56.3570  -14.8530  139.8110 P.3       1 FAD501      0.0000 
     51 O1P        57.6110  -15.0150  140.6660 O.co2     1 FAD501      0.0000 
     52 O2P        56.5550  -14.5590  138.3730 O.co2     1 FAD501      0.0000 
     53 O3P        55.4840  -16.1880  139.9880 O.3       1 FAD501      0.0000 
     54 H51A       54.5260  -19.1490  138.5880 H         1 FAD501      0.0000 
     55 H52A       55.9340  -18.7320  138.1440 H         1 FAD501      0.0000 
     56 H4B        55.0480  -18.6380  135.9170 H         1 FAD501      0.0000 
     57 H3B        52.7400  -19.2230  136.9620 H         1 FAD501      0.0000 
     58 HO3A       53.5120  -19.2940  134.4530 H         1 FAD501      0.0000 
     59 H2B        53.1480  -21.4010  137.2630 H         1 FAD501      0.0000 
     60 HO2A       52.2470  -21.2870  134.8090 H         1 FAD501      0.0000 
     61 H1B        54.6720  -21.4210  134.9350 H         1 FAD501      0.0000 
     62 H8A        54.6220  -22.9010  138.2670 H         1 FAD501      0.0000 
     63 H61A       56.8120  -27.0520  137.3010 H         1 FAD501      0.0000 
     64 H62A       57.4850  -27.6030  136.0760 H         1 FAD501      0.0000 
     65 H2A        57.0180  -24.6560  132.9160 H         1 FAD501      0.0000 
     66 HN3        50.5930   -6.2730  144.8310 H         1 FAD501      0.0000 
     67 H6         46.5960  -11.0880  146.9050 H         1 FAD501      0.0000 
     68 HM71       46.1530  -14.6600  147.5930 H         1 FAD501      0.0000 
     69 HM72       45.3110  -13.5690  146.9200 H         1 FAD501      0.0000 
     70 HM73       45.7970  -13.3830  148.3630 H         1 FAD501      0.0000 
     71 HM81       49.3130  -15.6550  146.7430 H         1 FAD501      0.0000 
     72 HM82       47.8060  -15.7330  146.4730 H         1 FAD501      0.0000 
     73 HM83       48.3180  -15.4980  147.8990 H         1 FAD501      0.0000 
     74 H9         50.2640  -13.7790  146.4970 H         1 FAD501      0.0000 
     75 H1'1       51.9600  -12.6720  145.7550 H         1 FAD501      0.0000 
     76 H1'2       52.6960  -11.3400  145.5620 H         1 FAD501      0.0000 
     77 H2'        52.2300  -11.3430  143.3350 H         1 FAD501      0.0000 
     78 HO2'       50.7030  -12.4410  142.5790 H         1 FAD501      0.0000 
     79 H3'        53.1480  -13.9180  143.8540 H         1 FAD501      0.0000 
     80 HO3'       54.9160  -13.1860  144.5530 H         1 FAD501      0.0000 
     81 H4'        53.9040  -12.2230  141.7940 H         1 FAD501      0.0000 
     82 HO4'       53.0510  -14.1420  140.6960 H         1 FAD501      0.0000 
     83 H5'1       54.9150  -14.7810  142.0820 H         1 FAD501      0.0000 
     84 H5'2       55.7240  -13.5260  142.4340 H         1 FAD501      0.0000 
@<TRIPOS>BOND
     1    1    2 ar   
     2    1    3 ar   
     3    1    4 1    
     4    1   53 1    
     5    4    5 1    
     6    5    6 1    
     7    6    7 1    
     8    5   54 1    
     9    5   55 1    
    10    6    8 1    
    11    7   12 1    
    12    6   56 1    
    13    8    9 1    
    14    8   10 1    
    15   10   11 1    
    16    8   57 1    
    17    9   58 1    
    18   10   12 1    
    19   12   13 1    
    20   10   59 1    
    21   11   60 1    
    22   13   14 1    
    23   12   61 1    
    24   13   22 1    
    25   14   15 2    
    26   15   16 1    
    27   14   62 1    
    28   16   17 ar   
    29   16   22 ar   
    30   17   18 1    
    31   17   19 ar   
    32   19   20 ar   
    33   18   63 1    
    34   18   64 1    
    35   20   21 ar   
    36   21   22 ar   
    37   20   65 1    
    38   23   24 1    
    39   23   40 2    
    40   24   25 2    
    41   24   26 am   
    42   26   27 am   
    43   27   28 2    
    44   26   66 1    
    45   27   29 1    
    46   29   30 2    
    47   29   40 1    
    48   30   31 1    
    49   31   32 ar   
    50   31   38 ar   
    51   32   33 ar   
    52   33   34 1    
    53   32   67 1    
    54   33   35 ar   
    55   35   36 1    
    56   34   68 1    
    57   34   69 1    
    58   34   70 1    
    59   35   37 ar   
    60   37   74 1    
    61   37   38 ar   
    62   36   71 1    
    63   36   72 1    
    64   36   73 1    
    65   38   39 1    
    66   39   40 1    
    67   39   41 1    
    68   41   42 1    
    69   42   43 1    
    70   41   75 1    
    71   41   76 1    
    72   42   44 1    
    73   44   45 1    
    74   42   77 1    
    75   43   78 1    
    76   44   46 1    
    77   46   47 1    
    78   44   79 1    
    79   45   80 1    
    80   46   48 1    
    81   48   49 1    
    82   46   81 1    
    83   47   82 1    
    84   49   50 1    
    85   48   83 1    
    86   48   84 1    
    87   50   51 ar   
    88   50   52 ar   
    89   50   53 1    
@<TRIPOS>SUBSTRUCTURE
     1 FAD501      1 GROUP   
@<TRIPOS>SET
ATOM$ORANGE STATIC     ATOMS   COLORGROUP SYSTEM 
54 5 5 6 6 8 8 10 10 12 12 14 14 16 16 17 17 20 \
20 22 22 24 24 27 27 29 29 31 31 32 32 33 33 34 34 35 \
35 36 36 37 37 38 38 40 40 41 41 42 42 44 44 46 46 48 \
48 

