#    Name: 6fp0_2_FAD
#    Modification time : Fri May 22 19:28:25 2020

@<TRIPOS>MOLECULE
6fp0_2_FAD
   84    89     1     0     1
SMALL
NO_CHARGES


@<TRIPOS>ATOM
      1 PA         82.9330  -39.5560  187.4400 P.3       1 FAD501      0.0000 
      2 O1A        83.6750  -38.2940  187.6520 O.co2     1 FAD501      0.0000 
      3 O2A        83.5250  -40.5220  186.4160 O.co2     1 FAD501      0.0000 
      4 O5B        82.7310  -40.2930  188.8090 O.3       1 FAD501      0.0000 
      5 C5B        82.3320  -41.6750  188.8640 C.3       1 FAD501      0.0000 
      6 C4B        82.9050  -42.2520  190.1290 C.3       1 FAD501      0.0000 
      7 O4B        82.2900  -43.5340  190.3970 O.3       1 FAD501      0.0000 
      8 C3B        84.4160  -42.4940  190.0840 C.3       1 FAD501      0.0000 
      9 O3B        85.0240  -42.0170  191.2770 O.3       1 FAD501      0.0000 
     10 C2B        84.5290  -44.0140  189.9370 C.3       1 FAD501      0.0000 
     11 O2B        85.7440  -44.4870  190.5090 O.3       1 FAD501      0.0000 
     12 C1B        83.3020  -44.4670  190.7270 C.3       1 FAD501      0.0000 
     13 N9A        82.8150  -45.7970  190.3950 N.pl3     1 FAD501      0.0000 
     14 C8A        82.6490  -46.3410  189.1460 C.2       1 FAD501      0.0000 
     15 N7A        82.1700  -47.5610  189.1600 N.2       1 FAD501      0.0000 
     16 C5A        81.9980  -47.8350  190.5070 C.ar      1 FAD501      0.0000 
     17 C6A        81.5230  -48.9670  191.1940 C.ar      1 FAD501      0.0000 
     18 N6A        81.1090  -50.0830  190.5920 N.pl3     1 FAD501      0.0000 
     19 N1A        81.4820  -48.9090  192.5430 N.ar      1 FAD501      0.0000 
     20 C2A        81.8920  -47.7960  193.1580 C.ar      1 FAD501      0.0000 
     21 N3A        82.3650  -46.6760  192.6120 N.ar      1 FAD501      0.0000 
     22 C4A        82.3920  -46.7560  191.2790 C.ar      1 FAD501      0.0000 
     23 N1         83.8430  -32.1520  181.4760 N.2       1 FAD501      0.0000 
     24 C2         83.8490  -30.7980  181.6700 C.2       1 FAD501      0.0000 
     25 O2         82.9410  -30.2310  182.2930 O.2       1 FAD501      0.0000 
     26 N3         84.8930  -30.0410  181.1710 N.am      1 FAD501      0.0000 
     27 C4         85.9790  -30.5330  180.4580 C.2       1 FAD501      0.0000 
     28 O4         86.8550  -29.7700  180.0550 O.2       1 FAD501      0.0000 
     29 C4X        85.9490  -31.9600  180.2530 C.2       1 FAD501      0.0000 
     30 N5         86.9300  -32.5010  179.5910 N.2       1 FAD501      0.0000 
     31 C5X        86.9070  -33.8700  179.3940 C.ar      1 FAD501      0.0000 
     32 C6         87.9480  -34.4590  178.6820 C.ar      1 FAD501      0.0000 
     33 C7         87.9720  -35.8300  178.4520 C.ar      1 FAD501      0.0000 
     34 C7M        89.1210  -36.4280  177.6770 C.3       1 FAD501      0.0000 
     35 C8         86.9350  -36.6350  178.9500 C.ar      1 FAD501      0.0000 
     36 C8M        86.9290  -38.1290  178.7300 C.3       1 FAD501      0.0000 
     37 C9         85.8970  -36.0520  179.6700 C.ar      1 FAD501      0.0000 
     38 C9A        85.8730  -34.6790  179.8920 C.ar      1 FAD501      0.0000 
     39 N10        84.8290  -34.0500  180.6100 N.pl3     1 FAD501      0.0000 
     40 C10        84.8370  -32.6920  180.8070 C.2       1 FAD501      0.0000 
     41 C1'        83.7200  -34.8440  181.1740 C.3       1 FAD501      0.0000 
     42 C2'        83.8900  -35.1110  182.6850 C.3       1 FAD501      0.0000 
     43 O2'        85.1380  -35.7370  182.9940 O.3       1 FAD501      0.0000 
     44 C3'        82.7720  -36.0470  183.1680 C.3       1 FAD501      0.0000 
     45 O3'        81.5520  -35.6430  182.5570 O.3       1 FAD501      0.0000 
     46 C4'        82.5810  -36.0480  184.6810 C.3       1 FAD501      0.0000 
     47 O4'        83.7670  -36.5310  185.3150 O.3       1 FAD501      0.0000 
     48 C5'        81.3900  -36.8820  185.1040 C.3       1 FAD501      0.0000 
     49 O5'        81.2580  -36.8180  186.5380 O.3       1 FAD501      0.0000 
     50 P          80.5680  -37.9760  187.3520 P.3       1 FAD501      0.0000 
     51 O1P        79.1740  -38.2160  186.7720 O.co2     1 FAD501      0.0000 
     52 O2P        80.6470  -37.7130  188.7740 O.co2     1 FAD501      0.0000 
     53 O3P        81.4470  -39.2400  186.9770 O.3       1 FAD501      0.0000 
     54 H51A       82.6680  -42.1370  188.1190 H         1 FAD501      0.0000 
     55 H52A       81.3950  -41.7390  188.8760 H         1 FAD501      0.0000 
     56 H4B        82.7140  -41.6900  190.8570 H         1 FAD501      0.0000 
     57 H3B        84.7910  -42.0860  189.3260 H         1 FAD501      0.0000 
     58 HO3A       84.6380  -42.3480  191.9360 H         1 FAD501      0.0000 
     59 H2B        84.4520  -44.2970  189.0450 H         1 FAD501      0.0000 
     60 HO2A       85.6040  -44.7360  191.2910 H         1 FAD501      0.0000 
     61 H1B        83.4950  -44.4390  191.6460 H         1 FAD501      0.0000 
     62 H8A        82.8590  -45.8910  188.3610 H         1 FAD501      0.0000 
     63 H61A       81.1220  -50.1390  189.7260 H         1 FAD501      0.0000 
     64 H62A       80.8260  -50.7530  191.0660 H         1 FAD501      0.0000 
     65 H2A        81.8470  -47.8070  194.0860 H         1 FAD501      0.0000 
     66 HN3        84.8690  -29.1860  181.3180 H         1 FAD501      0.0000 
     67 H6         88.5600  -33.8110  178.4200 H         1 FAD501      0.0000 
     68 HM71       89.0050  -37.3570  177.6120 H         1 FAD501      0.0000 
     69 HM72       89.9270  -36.2440  178.1220 H         1 FAD501      0.0000 
     70 HM73       89.1470  -36.0540  176.8170 H         1 FAD501      0.0000 
     71 HM81       86.1840  -38.5060  179.1600 H         1 FAD501      0.0000 
     72 HM82       87.7150  -38.5000  179.0830 H         1 FAD501      0.0000 
     73 HM83       86.8830  -38.3090  177.8090 H         1 FAD501      0.0000 
     74 H9         85.2150  -36.6810  179.6150 H         1 FAD501      0.0000 
     75 H1'1       83.6810  -35.6680  180.7260 H         1 FAD501      0.0000 
     76 H1'2       82.9170  -34.3760  181.0400 H         1 FAD501      0.0000 
     77 H2'        83.8460  -34.2790  183.1180 H         1 FAD501      0.0000 
     78 HO2'       85.1440  -36.5100  182.6870 H         1 FAD501      0.0000 
     79 H3'        82.9730  -36.9220  182.8920 H         1 FAD501      0.0000 
     80 HO3'       81.0580  -36.3050  182.4580 H         1 FAD501      0.0000 
     81 H4'        82.4450  -35.1620  184.9590 H         1 FAD501      0.0000 
     82 HO4'       83.5630  -36.9390  186.0110 H         1 FAD501      0.0000 
     83 H5'1       81.5210  -37.7740  184.8400 H         1 FAD501      0.0000 
     84 H5'2       80.6120  -36.5470  184.7010 H         1 FAD501      0.0000 
@<TRIPOS>BOND
     1    1    2 ar   
     2    1    3 ar   
     3    1    4 1    
     4    1   53 1    
     5    4    5 1    
     6    5    6 1    
     7    6    7 1    
     8    5   54 1    
     9    5   55 1    
    10    6    8 1    
    11    7   12 1    
    12    6   56 1    
    13    8    9 1    
    14    8   10 1    
    15   10   11 1    
    16    8   57 1    
    17    9   58 1    
    18   10   12 1    
    19   12   13 1    
    20   10   59 1    
    21   11   60 1    
    22   13   14 1    
    23   12   61 1    
    24   13   22 1    
    25   14   15 2    
    26   15   16 1    
    27   14   62 1    
    28   16   17 ar   
    29   16   22 ar   
    30   17   18 1    
    31   17   19 ar   
    32   19   20 ar   
    33   18   63 1    
    34   18   64 1    
    35   20   21 ar   
    36   21   22 ar   
    37   20   65 1    
    38   23   24 1    
    39   23   40 2    
    40   24   25 2    
    41   24   26 am   
    42   26   27 am   
    43   27   28 2    
    44   26   66 1    
    45   27   29 1    
    46   29   30 2    
    47   29   40 1    
    48   30   31 1    
    49   31   32 ar   
    50   31   38 ar   
    51   32   33 ar   
    52   33   34 1    
    53   32   67 1    
    54   33   35 ar   
    55   35   36 1    
    56   34   68 1    
    57   34   69 1    
    58   34   70 1    
    59   35   37 ar   
    60   37   74 1    
    61   37   38 ar   
    62   36   71 1    
    63   36   72 1    
    64   36   73 1    
    65   38   39 1    
    66   39   40 1    
    67   39   41 1    
    68   41   42 1    
    69   42   43 1    
    70   41   75 1    
    71   41   76 1    
    72   42   44 1    
    73   44   45 1    
    74   42   77 1    
    75   43   78 1    
    76   44   46 1    
    77   46   47 1    
    78   44   79 1    
    79   45   80 1    
    80   46   48 1    
    81   48   49 1    
    82   46   81 1    
    83   47   82 1    
    84   49   50 1    
    85   48   83 1    
    86   48   84 1    
    87   50   51 ar   
    88   50   52 ar   
    89   50   53 1    
@<TRIPOS>SUBSTRUCTURE
     1 FAD501      1 GROUP   
@<TRIPOS>SET
ATOM$ORANGE STATIC     ATOMS   COLORGROUP SYSTEM 
54 5 5 6 6 8 8 10 10 12 12 14 14 16 16 17 17 20 \
20 22 22 24 24 27 27 29 29 31 31 32 32 33 33 34 34 35 \
35 36 36 37 37 38 38 40 40 41 41 42 42 44 44 46 46 48 \
48 

