#    Name: 5zsh_2_L07
#    Modification time : Fri May 22 19:30:43 2020

@<TRIPOS>MOLECULE
5zsh_2_L07
   17    19     1     0     0
SMALL
NO_CHARGES


@<TRIPOS>ATOM
      1 C7         12.7340  -12.4270  -38.1060 C.3       1 L071008     0.0000 
      2 C8         13.2260  -13.7580  -37.6010 C.3       1 L071008     0.0000 
      3 C12         6.4530  -17.6910  -38.8780 C.ar      1 L071008     0.0000 
      4 C11         7.1330  -18.8640  -39.2380 C.ar      1 L071008     0.0000 
      5 C10         8.4900  -18.8660  -39.5930 C.ar      1 L071008     0.0000 
      6 C9          9.2240  -17.6730  -39.5960 C.ar      1 L071008     0.0000 
      7 N2          9.4400  -12.9760  -38.8610 N.2       1 L071008     0.0000 
      8 N1          6.5170  -15.3540  -38.5060 N.ar      1 L071008     0.0000 
      9 N           6.3740  -13.0550  -38.0990 N.pl3     1 L071008     0.0000 
     10 C2          8.5910  -16.4740  -39.2400 C.ar      1 L071008     0.0000 
     11 C3          9.2670  -15.2660  -39.1980 C.ar      1 L071008     0.0000 
     12 C4          8.5590  -14.0240  -38.8080 C.ar      1 L071008     0.0000 
     13 C5         10.7060  -13.3090  -39.2440 C.2       1 L071008     0.0000 
     14 C6         11.9630  -12.5020  -39.4230 C.3       1 L071008     0.0000 
     15 C1          7.1490  -16.4880  -38.8660 C.ar      1 L071008     0.0000 
     16 C           7.1150  -14.1370  -38.4520 C.ar      1 L071008     0.0000 
     17 S          10.8910  -15.0030  -39.5710 S.3       1 L071008     0.0000 
@<TRIPOS>BOND
     1    1    2 1    
     2    1   14 1    
     3    3    4 ar   
     4    3   15 ar   
     5    4    5 ar   
     6    5    6 ar   
     7    6   10 ar   
     8    7   12 1    
     9    7   13 2    
    10    8   15 ar   
    11    8   16 ar   
    12    9   16 1    
    13   10   11 ar   
    14   10   15 ar   
    15   11   12 ar   
    16   11   17 1    
    17   12   16 ar   
    18   13   14 1    
    19   13   17 1    
@<TRIPOS>SUBSTRUCTURE
     1 L071008     1 GROUP   
@<TRIPOS>SET

