#    Name: 5zsh_2_L07_CAVITY_N1_4
#    Modification time : Fri May 22 19:30:44 2020

@<TRIPOS>MOLECULE
5zsh_2_L07_CAVITY_N1_4
   67     0     7     0     0
SMALL
NO_CHARGES


@<TRIPOS>ATOM
      1 OG          4.2200  -19.8500  -41.1100 O.3       1 SER1        0.0000 
      2 OG          9.0700  -12.6000  -40.4800 O.3       1 SER1        0.0000 
      3 OG          9.4600  -13.8500  -39.7500 O.3       1 SER1        0.0000 
      4 OG          9.8700  -13.0300  -41.6600 O.3       1 SER1        0.0000 
      5 OG         10.6800  -13.4700  -42.8500 O.3       1 SER1        0.0000 
      6 OG         10.6600  -13.1500  -39.1900 O.3       1 SER1        0.0000 
      7 OG         11.0800  -12.3300  -41.1000 O.3       1 SER1        0.0000 
      8 O          11.8800  -15.1600  -43.3100 O.2       2 ALA2        0.0000 
      9 N          12.2700  -16.4100  -42.5900 N.am      2 ALA2        0.0000 
     10 O           9.8500  -12.7200  -38.0000 O.2       2 ALA2        0.0000 
     11 N          11.8600  -12.4500  -38.6300 N.am      2 ALA2        0.0000 
     12 OD1         4.6100  -21.1100  -40.3800 O.co2     3 ASP3        0.0000 
     13 OD1         5.0100  -19.9700  -38.6400 O.co2     3 ASP3        0.0000 
     14 NZ          6.6300  -16.0700  -38.9600 N.4       4 LYS4        0.0000 
     15 CZ          5.8200  -20.4100  -39.8200 C.ar      5 PHE5        0.0000 
     16 CZ          6.2300  -19.5900  -41.7300 C.ar      5 PHE5        0.0000 
     17 CZ          7.0400  -20.0300  -42.9200 C.ar      5 PHE5        0.0000 
     18 CZ          6.2100  -19.2800  -38.0700 C.ar      5 PHE5        0.0000 
     19 CZ          7.0200  -19.7100  -39.2600 C.ar      5 PHE5        0.0000 
     20 CZ          7.4400  -18.8900  -41.1700 C.ar      5 PHE5        0.0000 
     21 CZ          8.2400  -19.3300  -42.3600 C.ar      5 PHE5        0.0000 
     22 CZ          7.0200  -17.3200  -38.2400 C.ar      5 PHE5        0.0000 
     23 CZ          7.8300  -17.7600  -39.4200 C.ar      5 PHE5        0.0000 
     24 CZ          8.6400  -18.1900  -40.6100 C.ar      5 PHE5        0.0000 
     25 CZ          9.0300  -19.4500  -39.8900 C.ar      5 PHE5        0.0000 
     26 CZ          9.4500  -18.6300  -41.8000 C.ar      5 PHE5        0.0000 
     27 CZ          7.8400  -15.3700  -38.4000 C.ar      5 PHE5        0.0000 
     28 CZ          9.0300  -17.0600  -38.8600 C.ar      5 PHE5        0.0000 
     29 CZ          8.6500  -13.4200  -38.5700 C.ar      5 PHE5        0.0000 
     30 CZ          9.8500  -15.1100  -39.0300 C.ar      5 PHE5        0.0000 
     31 CZ         11.0700  -14.7200  -42.1300 C.ar      5 PHE5        0.0000 
     32 CZ         11.0500  -14.4100  -38.4700 C.ar      5 PHE5        0.0000 
     33 CZ         11.4700  -13.5900  -40.3800 C.ar      5 PHE5        0.0000 
     34 CZ         11.8800  -12.7700  -42.2900 C.ar      5 PHE5        0.0000 
     35 CZ         12.2700  -14.0200  -41.5700 C.ar      5 PHE5        0.0000 
     36 CZ         12.6600  -15.2800  -40.8400 C.ar      5 PHE5        0.0000 
     37 CZ         11.4400  -13.2700  -36.7200 C.ar      5 PHE5        0.0000 
     38 CZ         12.2500  -13.7100  -37.9000 C.ar      5 PHE5        0.0000 
     39 CZ         12.6400  -14.9600  -37.1800 C.ar      5 PHE5        0.0000 
     40 CZ         12.6700  -12.8900  -39.8200 C.ar      5 PHE5        0.0000 
     41 CZ         13.4500  -13.0100  -37.3400 C.ar      5 PHE5        0.0000 
     42 CA          5.4300  -19.1600  -40.5500 C.3       6 GLY6        0.0000 
     43 CA          5.8400  -18.3400  -42.4600 C.3       6 GLY6        0.0000 
     44 CA          5.8200  -18.0200  -38.8000 C.3       6 GLY6        0.0000 
     45 CA          6.6300  -18.4600  -39.9900 C.3       6 GLY6        0.0000 
     46 CA          7.8500  -18.0700  -43.0900 C.3       6 GLY6        0.0000 
     47 CA          7.4400  -16.5000  -40.1500 C.3       6 GLY6        0.0000 
     48 CA          8.2200  -19.0100  -38.7000 C.3       6 GLY6        0.0000 
     49 CA          8.2500  -16.9400  -41.3400 C.3       6 GLY6        0.0000 
     50 CA          9.0600  -17.3700  -42.5200 C.3       6 GLY6        0.0000 
     51 CA          7.4500  -14.1200  -39.1300 C.3       6 GLY6        0.0000 
     52 CA          8.2500  -14.5500  -40.3100 C.3       6 GLY6        0.0000 
     53 CA          8.6400  -15.8000  -39.5900 C.3       6 GLY6        0.0000 
     54 CA          9.0600  -14.9900  -41.5000 C.3       6 GLY6        0.0000 
     55 CA          9.8400  -17.4900  -40.0500 C.3       6 GLY6        0.0000 
     56 CA         10.2300  -18.7500  -39.3300 C.3       6 GLY6        0.0000 
     57 CA         10.2600  -16.6800  -41.9600 C.3       6 GLY6        0.0000 
     58 CA         10.6500  -17.9300  -41.2400 C.3       6 GLY6        0.0000 
     59 CA         10.6500  -15.5400  -40.2100 C.3       6 GLY6        0.0000 
     60 CA         11.0400  -16.7900  -39.4900 C.3       6 GLY6        0.0000 
     61 CA         11.4600  -15.9800  -41.4000 C.3       6 GLY6        0.0000 
     62 CA         11.8600  -14.8400  -39.6500 C.3       6 GLY6        0.0000 
     63 CA         11.0500  -12.0200  -37.4400 C.3       6 GLY6        0.0000 
     64 CA         13.0600  -14.1400  -39.0900 C.3       6 GLY6        0.0000 
     65 DU          9.4500  -16.2400  -40.7800 H         7 CUB7        0.0000 
     66 DU          9.8700  -15.4200  -42.6900 H         7 CUB7        0.0000 
     67 DU         10.2600  -14.2900  -40.9400 H         7 CUB7        0.0000 
@<TRIPOS>BOND
@<TRIPOS>SUBSTRUCTURE
     1 SER1        1 GROUP   
     2 ALA2        8 GROUP   
     3 ASP3       12 GROUP   
     4 LYS4       14 GROUP   
     5 PHE5       15 GROUP   
     6 GLY6       42 GROUP   
     7 CUB7       65 GROUP   
@<TRIPOS>SET

