#    Name: 5zsh_1_L07_CAVITY_N1_4
#    Modification time : Fri May 22 19:30:29 2020

@<TRIPOS>MOLECULE
5zsh_1_L07_CAVITY_N1_4
   64     0     6     0     0
SMALL
NO_CHARGES


@<TRIPOS>ATOM
      1 OG        -15.6400  -26.3100  -10.5500 O.3       1 SER1        0.0000 
      2 OG        -15.2500  -27.5700   -9.8200 O.3       1 SER1        0.0000 
      3 OG        -14.8600  -28.8200   -9.1000 O.3       1 SER1        0.0000 
      4 OG         -8.4200  -31.9900  -14.9300 O.3       1 SER1        0.0000 
      5 N         -15.2600  -32.3400  -11.8700 N.am      2 ALA2        0.0000 
      6 N         -17.2300  -25.7600  -11.8300 N.am      2 ALA2        0.0000 
      7 N         -16.0300  -25.0600  -11.2700 N.am      2 ALA2        0.0000 
      8 O         -13.6300  -26.0500  -11.1700 O.2       2 ALA2        0.0000 
      9 OD1       -10.4100  -30.1800  -16.9500 O.co2     3 ASP3        0.0000 
     10 CZ        -18.0500  -27.7100  -11.6700 C.ar      4 PHE5        0.0000 
     11 CZ        -17.2700  -30.2200  -10.2200 C.ar      4 PHE5        0.0000 
     12 CZ        -16.8400  -27.0100  -11.1100 C.ar      4 PHE5        0.0000 
     13 CZ        -16.4500  -28.2700  -10.3800 C.ar      4 PHE5        0.0000 
     14 CZ        -16.0600  -29.5200   -9.6600 C.ar      4 PHE5        0.0000 
     15 CZ        -16.4300  -26.1900  -13.0200 C.ar      4 PHE5        0.0000 
     16 CZ        -16.0400  -27.4500  -12.3000 C.ar      4 PHE5        0.0000 
     17 CZ        -15.2300  -27.8800  -13.4800 C.ar      4 PHE5        0.0000 
     18 CZ        -13.2300  -30.0100  -15.1300 C.ar      4 PHE5        0.0000 
     19 CZ        -12.8300  -31.2600  -14.4100 C.ar      4 PHE5        0.0000 
     20 CZ        -12.4400  -32.5100  -13.6800 C.ar      4 PHE5        0.0000 
     21 CZ        -12.4200  -30.4400  -16.3200 C.ar      4 PHE5        0.0000 
     22 CZ        -15.2200  -25.4900  -12.4600 C.ar      4 PHE5        0.0000 
     23 CZ        -14.8300  -26.7500  -11.7400 C.ar      4 PHE5        0.0000 
     24 CZ        -14.0300  -27.1800  -12.9200 C.ar      4 PHE5        0.0000 
     25 CZ        -13.2200  -27.6200  -14.1100 C.ar      4 PHE5        0.0000 
     26 CZ        -12.0200  -29.3100  -14.5700 C.ar      4 PHE5        0.0000 
     27 CZ        -11.2200  -29.7400  -15.7600 C.ar      4 PHE5        0.0000 
     28 CZ        -10.0200  -31.4300  -16.2200 C.ar      4 PHE5        0.0000 
     29 CZ         -9.6300  -32.6800  -15.5000 C.ar      4 PHE5        0.0000 
     30 CZ        -12.8200  -26.4800  -12.3600 C.ar      4 PHE5        0.0000 
     31 CZ        -12.0200  -26.9200  -13.5500 C.ar      4 PHE5        0.0000 
     32 CA        -18.4400  -26.4600  -12.4000 C.3       5 GLY6        0.0000 
     33 CA        -16.8500  -29.4000  -12.1300 C.3       5 GLY6        0.0000 
     34 CA        -16.4600  -30.6500  -11.4100 C.3       5 GLY6        0.0000 
     35 CA        -15.6500  -31.0900  -12.5900 C.3       5 GLY6        0.0000 
     36 CA        -14.8400  -31.5200  -13.7800 C.3       5 GLY6        0.0000 
     37 CA        -14.4500  -32.7800  -13.0600 C.3       5 GLY6        0.0000 
     38 CA        -14.8400  -29.1400  -12.7600 C.3       5 GLY6        0.0000 
     39 CA        -14.0300  -29.5700  -13.9500 C.3       5 GLY6        0.0000 
     40 CA        -13.6400  -30.8200  -13.2200 C.3       5 GLY6        0.0000 
     41 CA        -13.2500  -32.0800  -12.5000 C.3       5 GLY6        0.0000 
     42 CA        -14.4400  -28.0000  -11.0100 C.3       5 GLY6        0.0000 
     43 CA        -14.0500  -29.2500  -10.2900 C.3       5 GLY6        0.0000 
     44 CA        -13.6400  -28.4400  -12.2000 C.3       5 GLY6        0.0000 
     45 CA        -13.2500  -29.6900  -11.4700 C.3       5 GLY6        0.0000 
     46 CA        -12.8600  -30.9400  -10.7500 C.3       5 GLY6        0.0000 
     47 CA        -12.8300  -28.8700  -13.3800 C.3       5 GLY6        0.0000 
     48 CA        -11.6300  -30.5600  -13.8500 C.3       5 GLY6        0.0000 
     49 CA        -11.2400  -31.8100  -13.1200 C.3       5 GLY6        0.0000 
     50 CA        -10.8200  -31.0000  -15.0300 C.3       5 GLY6        0.0000 
     51 CA        -10.4300  -32.2500  -14.3100 C.3       5 GLY6        0.0000 
     52 CA        -14.0200  -24.7900  -11.9000 C.3       5 GLY6        0.0000 
     53 CA        -13.2400  -27.3000  -10.4500 C.3       5 GLY6        0.0000 
     54 CA        -12.4300  -27.7400  -11.6400 C.3       5 GLY6        0.0000 
     55 CA        -11.6300  -28.1700  -12.8200 C.3       5 GLY6        0.0000 
     56 CA        -10.8200  -28.6100  -14.0100 C.3       5 GLY6        0.0000 
     57 CA        -10.0100  -29.0400  -15.2000 C.3       5 GLY6        0.0000 
     58 CA         -9.6200  -30.3000  -14.4700 C.3       5 GLY6        0.0000 
     59 CA         -9.2300  -31.5500  -13.7500 C.3       5 GLY6        0.0000 
     60 CA         -8.8200  -30.7300  -15.6600 C.3       5 GLY6        0.0000 
     61 DU        -15.6500  -28.7000  -11.5700 H         6 CUB7        0.0000 
     62 DU        -15.2600  -29.9500  -10.8500 H         6 CUB7        0.0000 
     63 DU        -14.4500  -30.3900  -12.0300 H         6 CUB7        0.0000 
     64 DU        -14.0600  -31.6400  -11.3100 H         6 CUB7        0.0000 
@<TRIPOS>BOND
@<TRIPOS>SUBSTRUCTURE
     1 SER1        1 GROUP   
     2 ALA2        5 GROUP   
     3 ASP3        9 GROUP   
     4 PHE5       10 GROUP   
     5 GLY6       32 GROUP   
     6 CUB7       61 GROUP   
@<TRIPOS>SET

