#    Name: 5zsh_1_L07
#    Modification time : Fri May 22 19:30:27 2020

@<TRIPOS>MOLECULE
5zsh_1_L07
   17    19     1     0     0
SMALL
NO_CHARGES


@<TRIPOS>ATOM
      1 C7        -17.2800  -25.5530  -11.9090 C.3       1 L071007     0.0000 
      2 C8        -18.5210  -24.7920  -11.5410 C.3       1 L071007     0.0000 
      3 C12       -11.0260  -29.1020  -14.8670 C.ar      1 L071007     0.0000 
      4 C11       -11.6350  -30.2100  -15.4610 C.ar      1 L071007     0.0000 
      5 C10       -12.9690  -30.5320  -15.2100 C.ar      1 L071007     0.0000 
      6 C9        -13.7500  -29.7510  -14.3490 C.ar      1 L071007     0.0000 
      7 N2        -14.1160  -25.9780  -11.4390 N.2       1 L071007     0.0000 
      8 N1        -11.1820  -27.2190  -13.4100 N.ar      1 L071007     0.0000 
      9 N         -11.2290  -25.3170  -11.9970 N.pl3     1 L071007     0.0000 
     10 C2        -13.1800  -28.6410  -13.7330 C.ar      1 L071007     0.0000 
     11 C3        -13.8730  -27.8210  -12.8680 C.ar      1 L071007     0.0000 
     12 C4        -13.2370  -26.6440  -12.2390 C.ar      1 L071007     0.0000 
     13 C5        -15.3340  -26.5600  -11.3750 C.2       1 L071007     0.0000 
     14 C6        -16.5970  -26.1600  -10.6830 C.3       1 L071007     0.0000 
     15 C1        -11.7590  -28.2980  -14.0010 C.ar      1 L071007     0.0000 
     16 C         -11.8290  -26.3850  -12.5630 C.ar      1 L071007     0.0000 
     17 S         -15.4570  -27.9630  -12.3960 S.3       1 L071007     0.0000 
@<TRIPOS>BOND
     1    1    2 1    
     2    1   14 1    
     3    3    4 ar   
     4    3   15 ar   
     5    4    5 ar   
     6    5    6 ar   
     7    6   10 ar   
     8    7   12 1    
     9    7   13 2    
    10    8   15 ar   
    11    8   16 ar   
    12    9   16 1    
    13   10   11 ar   
    14   10   15 ar   
    15   11   12 ar   
    16   11   17 1    
    17   12   16 ar   
    18   13   14 1    
    19   13   17 1    
@<TRIPOS>SUBSTRUCTURE
     1 L071007     1 GROUP   
@<TRIPOS>SET

