#    Name: 6rr3_1_FAD
#    Modification time : Fri May 22 19:24:42 2020

@<TRIPOS>MOLECULE
6rr3_1_FAD
   53    58     1     0     1
SMALL
NO_CHARGES


@<TRIPOS>ATOM
      1 PA         -7.1170   14.5780   10.7480 P.3       1 FAD301      0.0000 
      2 O1A        -6.7880   15.9420   11.2830 O.co2     1 FAD301      0.0000 
      3 O2A        -8.2060   14.5830    9.7360 O.co2     1 FAD301      0.0000 
      4 O5B        -5.8480   13.9000   10.0770 O.3       1 FAD301      0.0000 
      5 C5B        -4.5660   13.8470   10.7260 C.3       1 FAD301      0.0000 
      6 C4B        -3.5700   13.1560    9.8350 C.3       1 FAD301      0.0000 
      7 O4B        -3.8020   11.7300    9.9470 O.3       1 FAD301      0.0000 
      8 C3B        -3.5900   13.4480    8.3240 C.3       1 FAD301      0.0000 
      9 O3B        -2.6400   14.4060    7.8710 O.3       1 FAD301      0.0000 
     10 C2B        -3.0410   12.1520    7.7290 C.3       1 FAD301      0.0000 
     11 O2B        -1.6220   12.0400    7.7190 O.3       1 FAD301      0.0000 
     12 C1B        -3.6120   11.1190    8.6890 C.3       1 FAD301      0.0000 
     13 N9A        -4.8950   10.4850    8.2750 N.pl3     1 FAD301      0.0000 
     14 C8A        -6.2040   10.9160    8.3580 C.2       1 FAD301      0.0000 
     15 N7A        -7.0580   10.0070    7.9350 N.2       1 FAD301      0.0000 
     16 C5A        -6.2700    8.9180    7.5860 C.ar      1 FAD301      0.0000 
     17 C6A        -6.5630    7.6380    7.0880 C.ar      1 FAD301      0.0000 
     18 N6A        -7.8000    7.2150    6.8420 N.pl3     1 FAD301      0.0000 
     19 N1A        -5.5190    6.8390    6.8000 N.ar      1 FAD301      0.0000 
     20 C2A        -4.2690    7.2690    7.0490 C.ar      1 FAD301      0.0000 
     21 N3A        -3.8750    8.4330    7.5670 N.ar      1 FAD301      0.0000 
     22 C4A        -4.9360    9.2170    7.7880 C.ar      1 FAD301      0.0000 
     23 N1        -10.8390    8.0900    7.2470 N.2       1 FAD301      0.0000 
     24 C2        -11.0330    6.8410    7.6790 C.2       1 FAD301      0.0000 
     25 O2        -10.4360    6.4150    8.6850 O.2       1 FAD301      0.0000 
     26 N3        -12.0230    6.0360    7.1210 N.am      1 FAD301      0.0000 
     27 C4        -12.7760    6.4190    6.0290 C.2       1 FAD301      0.0000 
     28 O4        -13.6620    5.6480    5.5670 O.2       1 FAD301      0.0000 
     29 C4X       -12.5050    7.7150    5.4870 C.2       1 FAD301      0.0000 
     30 N5        -13.1480    8.1340    4.3980 N.2       1 FAD301      0.0000 
     31 C5X       -12.7990    9.3590    3.8610 C.ar      1 FAD301      0.0000 
     32 C6        -13.4270    9.8190    2.6820 C.ar      1 FAD301      0.0000 
     33 C7        -13.1130   11.0440    2.1100 C.ar      1 FAD301      0.0000 
     34 C7M       -13.7750   11.4590    0.8160 C.3       1 FAD301      0.0000 
     35 C8        -12.0750   11.8320    2.6960 C.ar      1 FAD301      0.0000 
     36 C8M       -11.6800   13.1880    2.1420 C.3       1 FAD301      0.0000 
     37 C9        -11.5240   11.4330    3.8920 C.ar      1 FAD301      0.0000 
     38 C9A       -11.8230   10.1860    4.4690 C.ar      1 FAD301      0.0000 
     39 N10       -11.2090    9.7320    5.6270 N.pl3     1 FAD301      0.0000 
     40 C10       -11.5020    8.4930    6.1750 C.2       1 FAD301      0.0000 
     41 C1'       -10.3000   10.6150    6.3890 C.3       1 FAD301      0.0000 
     42 C2'       -11.1420   11.3210    7.4830 C.3       1 FAD301      0.0000 
     43 O2'       -11.9880   12.3680    6.9200 O.3       1 FAD301      0.0000 
     44 C3'       -10.3650   11.8790    8.6770 C.3       1 FAD301      0.0000 
     45 O3'        -9.2350   12.5440    8.1510 O.3       1 FAD301      0.0000 
     46 C4'       -10.0490   10.8150    9.7450 C.3       1 FAD301      0.0000 
     47 O4'       -11.3100   10.5110   10.3590 O.3       1 FAD301      0.0000 
     48 C5'        -9.0780   11.2810   10.8180 C.3       1 FAD301      0.0000 
     49 O5'        -9.5480   12.5380   11.3400 O.3       1 FAD301      0.0000 
     50 P          -8.8370   13.2010   12.6340 P.3       1 FAD301      0.0000 
     51 O1P        -9.6180   14.4330   12.9110 O.co2     1 FAD301      0.0000 
     52 O2P        -8.5300   12.1950   13.6970 O.co2     1 FAD301      0.0000 
     53 O3P        -7.4200   13.5970   11.9970 O.3       1 FAD301      0.0000 
@<TRIPOS>BOND
     1    1    2 ar   
     2    1    3 ar   
     3    1    4 1    
     4    1   53 1    
     5    4    5 1    
     6    5    6 1    
     7    6    7 1    
     8    6    8 1    
     9    7   12 1    
    10    8    9 1    
    11    8   10 1    
    12   10   11 1    
    13   10   12 1    
    14   12   13 1    
    15   13   14 1    
    16   13   22 1    
    17   14   15 2    
    18   15   16 1    
    19   16   17 ar   
    20   16   22 ar   
    21   17   18 1    
    22   17   19 ar   
    23   19   20 ar   
    24   20   21 ar   
    25   21   22 ar   
    26   23   24 1    
    27   23   40 2    
    28   24   25 2    
    29   24   26 am   
    30   26   27 am   
    31   27   28 2    
    32   27   29 1    
    33   29   30 2    
    34   29   40 1    
    35   30   31 1    
    36   31   32 ar   
    37   31   38 ar   
    38   32   33 ar   
    39   33   34 1    
    40   33   35 ar   
    41   35   36 1    
    42   35   37 ar   
    43   37   38 ar   
    44   38   39 1    
    45   39   40 1    
    46   39   41 1    
    47   41   42 1    
    48   42   43 1    
    49   42   44 1    
    50   44   45 1    
    51   44   46 1    
    52   46   47 1    
    53   46   48 1    
    54   48   49 1    
    55   49   50 1    
    56   50   51 ar   
    57   50   52 ar   
    58   50   53 1    
@<TRIPOS>SUBSTRUCTURE
     1 FAD301      1 GROUP   
@<TRIPOS>SET
ATOM$ORANGE STATIC     ATOMS   COLORGROUP SYSTEM 
54 5 5 6 6 8 8 10 10 12 12 14 14 16 16 17 17 20 \
20 22 22 24 24 27 27 29 29 31 31 32 32 33 33 34 34 35 \
35 36 36 37 37 38 38 40 40 41 41 42 42 44 44 46 46 48 \
48 

