#    Name: 6puu_1_CV1
#    Modification time : Fri May 22 19:34:01 2020

@<TRIPOS>MOLECULE
6puu_1_CV1
   36    40     1     0     0
SMALL
NO_CHARGES


@<TRIPOS>ATOM
      1 N1        133.9480  124.6080  111.8820 N.pl3     1 CV11601     0.0000 
      2 BR1       137.7900  119.7620  112.8450 Br        1 CV11601     0.0000 
      3 C2        134.1700  124.2800  110.5620 C.ar      1 CV11601     0.0000 
      4 N3        135.0340  123.3640  110.2090 N.ar      1 CV11601     0.0000 
      5 C4        135.5620  122.6130  111.2050 C.ar      1 CV11601     0.0000 
      6 C5        135.2870  122.7730  112.5390 C.ar      1 CV11601     0.0000 
      7 C6        134.3910  123.7950  112.8890 C.ar      1 CV11601     0.0000 
      8 N6        133.9420  124.0320  114.1270 N.pl3     1 CV11601     0.0000 
      9 N7        135.9880  121.8470  113.2950 N.2       1 CV11601     0.0000 
     10 C8        136.6610  121.1590  112.3940 C.2       1 CV11601     0.0000 
     11 N9        136.4460  121.5760  111.1020 N.pl3     1 CV11601     0.0000 
     12 PA        138.0820  125.5360  106.9220 P.3       1 CV11601     0.0000 
     13 PB        136.0570  127.3970  107.9490 P.3       1 CV11601     0.0000 
     14 C1'       137.0330  121.0290  109.8930 C.3       1 CV11601     0.0000 
     15 O1A       137.7510  125.8190  105.4940 O.co2     1 CV11601     0.0000 
     16 O1B       137.0320  128.4860  108.2540 O.co2     1 CV11601     0.0000 
     17 C1D       133.2210  125.8650  112.2260 C.3       1 CV11601     0.0000 
     18 C2'       136.2630  121.3950  108.6120 C.3       1 CV11601     0.0000 
     19 O2'       135.2580  120.4420  108.3450 O.3       1 CV11601     0.0000 
     20 O2A       139.3450  126.1040  107.4800 O.co2     1 CV11601     0.0000 
     21 O2B       135.1840  127.5450  106.7470 O.co2     1 CV11601     0.0000 
     22 C2D       134.0690  126.8020  113.0820 C.3       1 CV11601     0.0000 
     23 O2D       133.2710  127.4930  114.0300 O.3       1 CV11601     0.0000 
     24 C3'       137.3860  121.3810  107.5730 C.3       1 CV11601     0.0000 
     25 O3'       137.6390  120.0650  107.0950 O.3       1 CV11601     0.0000 
     26 O3A       136.8550  126.0100  107.8390 O.3       1 CV11601     0.0000 
     27 C3D       134.7090  127.7440  112.0580 C.3       1 CV11601     0.0000 
     28 O3D       134.9950  129.0250  112.6050 O.3       1 CV11601     0.0000 
     29 C4'       138.5790  121.9230  108.3710 C.3       1 CV11601     0.0000 
     30 O4'       138.3300  121.5610  109.7550 O.3       1 CV11601     0.0000 
     31 C4D       133.6230  127.8280  110.9770 C.3       1 CV11601     0.0000 
     32 O4D       132.9280  126.5620  111.0150 O.3       1 CV11601     0.0000 
     33 C5'       138.8110  123.4120  108.2840 C.3       1 CV11601     0.0000 
     34 O5'       138.0560  123.9510  107.1700 O.3       1 CV11601     0.0000 
     35 C5D       134.1080  128.0830  109.5710 C.3       1 CV11601     0.0000 
     36 O5D       135.1440  127.1240  109.2390 O.3       1 CV11601     0.0000 
@<TRIPOS>BOND
     1    1    3 ar   
     2    1    7 ar   
     3    1   17 1    
     4    2   10 1    
     5    3    4 ar   
     6    4    5 ar   
     7    5    6 ar   
     8    5   11 1    
     9    6    7 ar   
    10    6    9 1    
    11    7    8 1    
    12    9   10 2    
    13   10   11 1    
    14   11   14 1    
    15   12   15 ar   
    16   12   20 ar   
    17   12   26 1    
    18   12   34 1    
    19   13   16 ar   
    20   13   21 ar   
    21   13   26 1    
    22   13   36 1    
    23   14   18 1    
    24   14   30 1    
    25   17   22 1    
    26   17   32 1    
    27   18   19 1    
    28   18   24 1    
    29   22   23 1    
    30   22   27 1    
    31   24   25 1    
    32   24   29 1    
    33   27   28 1    
    34   27   31 1    
    35   29   30 1    
    36   29   33 1    
    37   31   32 1    
    38   31   35 1    
    39   33   34 1    
    40   35   36 1    
@<TRIPOS>SUBSTRUCTURE
     1 CV11601     1 GROUP   
@<TRIPOS>SET

