#    Name: 6puu_2_CV1
#    Modification time : Fri May 22 19:34:15 2020

@<TRIPOS>MOLECULE
6puu_2_CV1
   36    40     1     0     0
SMALL
NO_CHARGES


@<TRIPOS>ATOM
      1 N1        197.5990  133.9520  111.8640 N.pl3     1 CV11601     0.0000 
      2 BR1       202.4450  137.7950  112.8260 Br        1 CV11601     0.0000 
      3 C2        197.9270  134.1740  110.5430 C.ar      1 CV11601     0.0000 
      4 N3        198.8420  135.0380  110.1900 N.ar      1 CV11601     0.0000 
      5 C4        199.5930  135.5660  111.1860 C.ar      1 CV11601     0.0000 
      6 C5        199.4330  135.2910  112.5200 C.ar      1 CV11601     0.0000 
      7 C6        198.4110  134.3950  112.8700 C.ar      1 CV11601     0.0000 
      8 N6        198.1740  133.9450  114.1080 N.pl3     1 CV11601     0.0000 
      9 N7        200.3590  135.9920  113.2760 N.2       1 CV11601     0.0000 
     10 C8        201.0470  136.6660  112.3750 C.2       1 CV11601     0.0000 
     11 N9        200.6300  136.4500  111.0830 N.pl3     1 CV11601     0.0000 
     12 PA        196.6700  138.0860  106.9030 P.3       1 CV11601     0.0000 
     13 PB        194.8090  136.0610  107.9310 P.3       1 CV11601     0.0000 
     14 C1'       201.1770  137.0370  109.8740 C.3       1 CV11601     0.0000 
     15 O1A       196.3870  137.7550  105.4750 O.co2     1 CV11601     0.0000 
     16 O1B       193.7200  137.0360  108.2350 O.co2     1 CV11601     0.0000 
     17 C1D       196.3420  133.2250  112.2070 C.3       1 CV11601     0.0000 
     18 C2'       200.8110  136.2680  108.5930 C.3       1 CV11601     0.0000 
     19 O2'       201.7640  135.2620  108.3260 O.3       1 CV11601     0.0000 
     20 O2A       196.1020  139.3490  107.4620 O.co2     1 CV11601     0.0000 
     21 O2B       194.6610  135.1880  106.7280 O.co2     1 CV11601     0.0000 
     22 C2D       195.4050  134.0720  113.0630 C.3       1 CV11601     0.0000 
     23 O2D       194.7140  133.2740  114.0110 O.3       1 CV11601     0.0000 
     24 C3'       200.8250  137.3900  107.5540 C.3       1 CV11601     0.0000 
     25 O3'       202.1400  137.6440  107.0760 O.3       1 CV11601     0.0000 
     26 O3A       196.1960  136.8590  107.8200 O.3       1 CV11601     0.0000 
     27 C3D       194.4620  134.7120  112.0400 C.3       1 CV11601     0.0000 
     28 O3D       193.1810  134.9980  112.5860 O.3       1 CV11601     0.0000 
     29 C4'       200.2830  138.5840  108.3520 C.3       1 CV11601     0.0000 
     30 O4'       200.6450  138.3340  109.7360 O.3       1 CV11601     0.0000 
     31 C4D       194.3780  133.6260  110.9580 C.3       1 CV11601     0.0000 
     32 O4D       195.6440  132.9320  110.9960 O.3       1 CV11601     0.0000 
     33 C5'       198.7940  138.8150  108.2660 C.3       1 CV11601     0.0000 
     34 O5'       198.2550  138.0610  107.1510 O.3       1 CV11601     0.0000 
     35 C5D       194.1230  134.1120  109.5520 C.3       1 CV11601     0.0000 
     36 O5D       195.0820  135.1480  109.2210 O.3       1 CV11601     0.0000 
@<TRIPOS>BOND
     1    1    3 ar   
     2    1    7 ar   
     3    1   17 1    
     4    2   10 1    
     5    3    4 ar   
     6    4    5 ar   
     7    5    6 ar   
     8    5   11 1    
     9    6    7 ar   
    10    6    9 1    
    11    7    8 1    
    12    9   10 2    
    13   10   11 1    
    14   11   14 1    
    15   12   15 ar   
    16   12   20 ar   
    17   12   26 1    
    18   12   34 1    
    19   13   16 ar   
    20   13   21 ar   
    21   13   26 1    
    22   13   36 1    
    23   14   18 1    
    24   14   30 1    
    25   17   22 1    
    26   17   32 1    
    27   18   19 1    
    28   18   24 1    
    29   22   23 1    
    30   22   27 1    
    31   24   25 1    
    32   24   29 1    
    33   27   28 1    
    34   27   31 1    
    35   29   30 1    
    36   29   33 1    
    37   31   32 1    
    38   31   35 1    
    39   33   34 1    
    40   35   36 1    
@<TRIPOS>SUBSTRUCTURE
     1 CV11601     1 GROUP   
@<TRIPOS>SET

