#    Name: 6puu_3_CV1
#    Modification time : Fri May 22 19:34:27 2020

@<TRIPOS>MOLECULE
6puu_3_CV1
   36    40     1     0     0
SMALL
NO_CHARGES


@<TRIPOS>ATOM
      1 N1        188.2460  197.5990  111.8880 N.pl3     1 CV11601     0.0000 
      2 BR1       184.4030  202.4450  112.8520 Br        1 CV11601     0.0000 
      3 C2        188.0240  197.9270  110.5680 C.ar      1 CV11601     0.0000 
      4 N3        187.1600  198.8430  110.2150 N.ar      1 CV11601     0.0000 
      5 C4        186.6320  199.5940  111.2110 C.ar      1 CV11601     0.0000 
      6 C5        186.9070  199.4340  112.5450 C.ar      1 CV11601     0.0000 
      7 C6        187.8030  198.4110  112.8950 C.ar      1 CV11601     0.0000 
      8 N6        188.2530  198.1740  114.1330 N.pl3     1 CV11601     0.0000 
      9 N7        186.2060  200.3590  113.3020 N.2       1 CV11601     0.0000 
     10 C8        185.5320  201.0480  112.4010 C.2       1 CV11601     0.0000 
     11 N9        185.7480  200.6310  111.1090 N.pl3     1 CV11601     0.0000 
     12 PA        184.1120  196.6710  106.9280 P.3       1 CV11601     0.0000 
     13 PB        186.1370  194.8100  107.9550 P.3       1 CV11601     0.0000 
     14 C1'       185.1610  201.1780  109.9000 C.3       1 CV11601     0.0000 
     15 O1A       184.4430  196.3880  105.5000 O.co2     1 CV11601     0.0000 
     16 O1B       185.1620  193.7210  108.2590 O.co2     1 CV11601     0.0000 
     17 C1D       188.9730  196.3420  112.2310 C.3       1 CV11601     0.0000 
     18 C2'       185.9300  200.8120  108.6190 C.3       1 CV11601     0.0000 
     19 O2'       186.9360  201.7650  108.3520 O.3       1 CV11601     0.0000 
     20 O2A       182.8490  196.1030  107.4860 O.co2     1 CV11601     0.0000 
     21 O2B       187.0100  194.6630  106.7530 O.co2     1 CV11601     0.0000 
     22 C2D       188.1260  195.4050  113.0880 C.3       1 CV11601     0.0000 
     23 O2D       188.9240  194.7140  114.0360 O.3       1 CV11601     0.0000 
     24 C3'       184.8080  200.8260  107.5790 C.3       1 CV11601     0.0000 
     25 O3'       184.5540  202.1420  107.1020 O.3       1 CV11601     0.0000 
     26 O3A       185.3400  196.1980  107.8450 O.3       1 CV11601     0.0000 
     27 C3D       187.4860  194.4620  112.0640 C.3       1 CV11601     0.0000 
     28 O3D       187.2000  193.1810  112.6100 O.3       1 CV11601     0.0000 
     29 C4'       183.6140  200.2840  108.3780 C.3       1 CV11601     0.0000 
     30 O4'       183.8640  200.6460  109.7620 O.3       1 CV11601     0.0000 
     31 C4D       188.5720  194.3790  110.9820 C.3       1 CV11601     0.0000 
     32 O4D       189.2660  195.6450  111.0200 O.3       1 CV11601     0.0000 
     33 C5'       183.3830  198.7950  108.2910 C.3       1 CV11601     0.0000 
     34 O5'       184.1370  198.2560  107.1760 O.3       1 CV11601     0.0000 
     35 C5D       188.0860  194.1240  109.5760 C.3       1 CV11601     0.0000 
     36 O5D       187.0500  195.0830  109.2450 O.3       1 CV11601     0.0000 
@<TRIPOS>BOND
     1    1    3 ar   
     2    1    7 ar   
     3    1   17 1    
     4    2   10 1    
     5    3    4 ar   
     6    4    5 ar   
     7    5    6 ar   
     8    5   11 1    
     9    6    7 ar   
    10    6    9 1    
    11    7    8 1    
    12    9   10 2    
    13   10   11 1    
    14   11   14 1    
    15   12   15 ar   
    16   12   20 ar   
    17   12   26 1    
    18   12   34 1    
    19   13   16 ar   
    20   13   21 ar   
    21   13   26 1    
    22   13   36 1    
    23   14   18 1    
    24   14   30 1    
    25   17   22 1    
    26   17   32 1    
    27   18   19 1    
    28   18   24 1    
    29   22   23 1    
    30   22   27 1    
    31   24   25 1    
    32   24   29 1    
    33   27   28 1    
    34   27   31 1    
    35   29   30 1    
    36   29   33 1    
    37   31   32 1    
    38   31   35 1    
    39   33   34 1    
    40   35   36 1    
@<TRIPOS>SUBSTRUCTURE
     1 CV11601     1 GROUP   
@<TRIPOS>SET

