#    Name: 6puu_4_CV1
#    Modification time : Fri May 22 19:34:39 2020

@<TRIPOS>MOLECULE
6puu_4_CV1
   36    40     1     0     0
SMALL
NO_CHARGES


@<TRIPOS>ATOM
      1 N1        124.6100  188.2500  111.8880 N.pl3     1 CV11601     0.0000 
      2 BR1       119.7640  184.4080  112.8510 Br        1 CV11601     0.0000 
      3 C2        124.2820  188.0280  110.5680 C.ar      1 CV11601     0.0000 
      4 N3        123.3660  187.1650  110.2150 N.ar      1 CV11601     0.0000 
      5 C4        122.6160  186.6360  111.2110 C.ar      1 CV11601     0.0000 
      6 C5        122.7760  186.9120  112.5450 C.ar      1 CV11601     0.0000 
      7 C6        123.7980  187.8080  112.8950 C.ar      1 CV11601     0.0000 
      8 N6        124.0350  188.2570  114.1330 N.pl3     1 CV11601     0.0000 
      9 N7        121.8500  186.2110  113.3010 N.2       1 CV11601     0.0000 
     10 C8        121.1610  185.5370  112.4010 C.2       1 CV11601     0.0000 
     11 N9        121.5780  185.7530  111.1080 N.pl3     1 CV11601     0.0000 
     12 PA        125.5380  184.1160  106.9270 P.3       1 CV11601     0.0000 
     13 PB        127.3990  186.1410  107.9540 P.3       1 CV11601     0.0000 
     14 C1'       121.0310  185.1660  109.8990 C.3       1 CV11601     0.0000 
     15 O1A       125.8200  184.4480  105.4990 O.co2     1 CV11601     0.0000 
     16 O1B       128.4880  185.1670  108.2590 O.co2     1 CV11601     0.0000 
     17 C1D       125.8670  188.9780  112.2310 C.3       1 CV11601     0.0000 
     18 C2'       121.3970  185.9350  108.6190 C.3       1 CV11601     0.0000 
     19 O2'       120.4440  186.9400  108.3520 O.3       1 CV11601     0.0000 
     20 O2A       126.1060  182.8540  107.4860 O.co2     1 CV11601     0.0000 
     21 O2B       127.5460  187.0140  106.7520 O.co2     1 CV11601     0.0000 
     22 C2D       126.8040  188.1300  113.0870 C.3       1 CV11601     0.0000 
     23 O2D       127.4960  188.9280  114.0350 O.3       1 CV11601     0.0000 
     24 C3'       121.3820  184.8130  107.5790 C.3       1 CV11601     0.0000 
     25 O3'       120.0670  184.5590  107.1020 O.3       1 CV11601     0.0000 
     26 O3A       126.0110  185.3440  107.8440 O.3       1 CV11601     0.0000 
     27 C3D       127.7470  187.4900  112.0630 C.3       1 CV11601     0.0000 
     28 O3D       129.0280  187.2040  112.6100 O.3       1 CV11601     0.0000 
     29 C4'       121.9250  183.6190  108.3770 C.3       1 CV11601     0.0000 
     30 O4'       121.5630  183.8680  109.7620 O.3       1 CV11601     0.0000 
     31 C4D       127.8310  188.5760  110.9820 C.3       1 CV11601     0.0000 
     32 O4D       126.5650  189.2710  111.0200 O.3       1 CV11601     0.0000 
     33 C5'       123.4140  183.3880  108.2900 C.3       1 CV11601     0.0000 
     34 O5'       123.9530  184.1420  107.1760 O.3       1 CV11601     0.0000 
     35 C5D       128.0850  188.0910  109.5760 C.3       1 CV11601     0.0000 
     36 O5D       127.1260  187.0550  109.2450 O.3       1 CV11601     0.0000 
@<TRIPOS>BOND
     1    1    3 ar   
     2    1    7 ar   
     3    1   17 1    
     4    2   10 1    
     5    3    4 ar   
     6    4    5 ar   
     7    5    6 ar   
     8    5   11 1    
     9    6    7 ar   
    10    6    9 1    
    11    7    8 1    
    12    9   10 2    
    13   10   11 1    
    14   11   14 1    
    15   12   15 ar   
    16   12   20 ar   
    17   12   26 1    
    18   12   34 1    
    19   13   16 ar   
    20   13   21 ar   
    21   13   26 1    
    22   13   36 1    
    23   14   18 1    
    24   14   30 1    
    25   17   22 1    
    26   17   32 1    
    27   18   19 1    
    28   18   24 1    
    29   22   23 1    
    30   22   27 1    
    31   24   25 1    
    32   24   29 1    
    33   27   28 1    
    34   27   31 1    
    35   29   30 1    
    36   29   33 1    
    37   31   32 1    
    38   31   35 1    
    39   33   34 1    
    40   35   36 1    
@<TRIPOS>SUBSTRUCTURE
     1 CV11601     1 GROUP   
@<TRIPOS>SET

