#    Name: 6b5g_1_NAD
#    Modification time : Fri May 22 19:25:22 2020

@<TRIPOS>MOLECULE
6b5g_1_NAD
   44    48     1     0     1
SMALL
NO_CHARGES


@<TRIPOS>ATOM
      1 PA         57.0580    0.2430  -35.8200 P.3       1 NAD601      0.0000 
      2 O1A        56.6720    0.8170  -34.4740 O.co2     1 NAD601      0.0000 
      3 O2A        58.5280    0.5450  -36.0520 O.co2     1 NAD601      0.0000 
      4 O5B        56.1530    0.9250  -36.9840 O.3       1 NAD601      0.0000 
      5 C5B        54.7790    1.2350  -36.6980 C.3       1 NAD601      0.0000 
      6 C4B        54.3790    2.6560  -37.2340 C.3       1 NAD601      0.0000 
      7 O4B        54.8810    3.5800  -36.4600 O.3       1 NAD601      0.0000 
      8 C3B        54.9210    2.9550  -38.6300 C.3       1 NAD601      0.0000 
      9 O3B        54.0230    3.6980  -39.3190 O.3       1 NAD601      0.0000 
     10 C2B        56.1800    3.7970  -38.3420 C.3       1 NAD601      0.0000 
     11 O2B        56.5640    4.6180  -39.5180 O.3       1 NAD601      0.0000 
     12 C1B        55.7910    4.5490  -37.3800 C.3       1 NAD601      0.0000 
     13 N9A        56.8860    5.0250  -36.6140 N.pl3     1 NAD601      0.0000 
     14 C8A        58.1290    4.5150  -36.5680 C.2       1 NAD601      0.0000 
     15 N7A        58.8580    5.2680  -35.7130 N.2       1 NAD601      0.0000 
     16 C5A        58.0670    6.2490  -35.2170 C.ar      1 NAD601      0.0000 
     17 C6A        58.3070    7.2740  -34.3180 C.ar      1 NAD601      0.0000 
     18 N6A        59.5470    7.5420  -33.6600 N.pl3     1 NAD601      0.0000 
     19 N1A        57.3260    8.1270  -33.9940 N.ar      1 NAD601      0.0000 
     20 C2A        56.0810    7.9880  -34.5520 C.ar      1 NAD601      0.0000 
     21 N3A        55.8490    6.9720  -35.4400 N.ar      1 NAD601      0.0000 
     22 C4A        56.8460    6.0980  -35.7710 C.ar      1 NAD601      0.0000 
     23 O3         56.8310   -1.3480  -35.7770 O.3       1 NAD601      0.0000 
     24 PN         56.7850   -2.3560  -37.0350 P.3       1 NAD601      0.0000 
     25 O1N        57.9820   -3.2970  -37.0260 O.co2     1 NAD601      0.0000 
     26 O2N        56.7870   -1.5730  -38.3250 O.co2     1 NAD601      0.0000 
     27 O5D        55.4460   -3.2220  -36.9310 O.3       1 NAD601      0.0000 
     28 C5D        55.4720   -4.4330  -36.1930 C.3       1 NAD601      0.0000 
     29 C4D        54.9400   -4.2160  -34.7650 C.3       1 NAD601      0.0000 
     30 O4D        53.6970   -3.7890  -34.7670 O.3       1 NAD601      0.0000 
     31 C3D        54.9240   -5.5420  -34.0080 C.3       1 NAD601      0.0000 
     32 O3D        55.4910   -5.3740  -32.7970 O.3       1 NAD601      0.0000 
     33 C2D        53.4230   -5.8760  -33.8410 C.3       1 NAD601      0.0000 
     34 O2D        53.1650   -6.7060  -32.6400 O.3       1 NAD601      0.0000 
     35 C1D        52.8920   -4.7120  -33.7180 C.3       1 NAD601      0.0000 
     36 N1N        51.5180   -4.7970  -34.1020 N.pl3     1 NAD601      0.0000 
     37 C2N        50.5110   -4.6530  -33.1680 C.ar      1 NAD601      0.0000 
     38 C3N        49.1810   -4.7550  -33.5820 C.ar      1 NAD601      0.0000 
     39 C7N        48.0280   -4.6080  -32.5550 C.2       1 NAD601      0.0000 
     40 O7N        48.2830   -4.5100  -31.3740 O.2       1 NAD601      0.0000 
     41 N7N        46.6580   -4.5980  -33.0050 N.am      1 NAD601      0.0000 
     42 C4N        48.8900   -4.9900  -34.9040 C.ar      1 NAD601      0.0000 
     43 C5N        49.9060   -5.1300  -35.8240 C.ar      1 NAD601      0.0000 
     44 C6N        51.2280   -5.0330  -35.4160 C.ar      1 NAD601      0.0000 
@<TRIPOS>BOND
     1    1    2 ar   
     2    1    3 ar   
     3    1    4 1    
     4    1   23 1    
     5    4    5 1    
     6    5    6 1    
     7    6    7 1    
     8    6    8 1    
     9    7   12 1    
    10    8    9 1    
    11    8   10 1    
    12   10   11 1    
    13   10   12 1    
    14   12   13 1    
    15   13   14 1    
    16   13   22 1    
    17   14   15 2    
    18   15   16 1    
    19   16   17 ar   
    20   16   22 ar   
    21   17   18 1    
    22   17   19 ar   
    23   19   20 ar   
    24   20   21 ar   
    25   21   22 ar   
    26   23   24 1    
    27   24   25 ar   
    28   24   26 ar   
    29   24   27 1    
    30   27   28 1    
    31   28   29 1    
    32   29   30 1    
    33   29   31 1    
    34   30   35 1    
    35   31   32 1    
    36   31   33 1    
    37   33   34 1    
    38   33   35 1    
    39   35   36 1    
    40   36   37 ar   
    41   36   44 ar   
    42   37   38 ar   
    43   38   39 1    
    44   38   42 ar   
    45   39   40 2    
    46   39   41 am   
    47   42   43 ar   
    48   43   44 ar   
@<TRIPOS>SUBSTRUCTURE
     1 NAD601      1 GROUP   
@<TRIPOS>SET
ATOM$ORANGE STATIC     ATOMS   COLORGROUP SYSTEM 
42 5 5 6 6 8 8 10 10 12 12 14 14 16 16 17 17 20 \
20 22 22 28 28 29 29 31 31 33 33 35 35 37 37 38 38 39 \
39 42 42 43 43 44 44 

