#    Name: 6b5g_3_NAD
#    Modification time : Fri May 22 19:25:38 2020

@<TRIPOS>MOLECULE
6b5g_3_NAD
   44    48     1     0     1
SMALL
NO_CHARGES


@<TRIPOS>ATOM
      1 PA         50.7740   19.5230   -8.0540 P.3       1 NAD601      0.0000 
      2 O1A        50.8680   19.0480   -9.4790 O.co2     1 NAD601      0.0000 
      3 O2A        51.9890   20.4030   -7.7620 O.co2     1 NAD601      0.0000 
      4 O5B        50.7880   18.3080   -6.9940 O.3       1 NAD601      0.0000 
      5 C5B        49.6040   17.4440   -6.9370 C.3       1 NAD601      0.0000 
      6 C4B        50.0360   15.9780   -6.4950 C.3       1 NAD601      0.0000 
      7 O4B        50.9670   15.5170   -7.3070 O.3       1 NAD601      0.0000 
      8 C3B        50.6740   16.0120   -5.1070 C.3       1 NAD601      0.0000 
      9 O3B        50.3760   14.8520   -4.4770 O.3       1 NAD601      0.0000 
     10 C2B        52.1840   16.0770   -5.4070 C.3       1 NAD601      0.0000 
     11 O2B        52.9570   15.5880   -4.2340 O.3       1 NAD601      0.0000 
     12 C1B        52.3050   15.2890   -6.4180 C.3       1 NAD601      0.0000 
     13 N9A        53.4520   15.6020   -7.1960 N.pl3     1 NAD601      0.0000 
     14 C8A        54.1090   16.7790   -7.2410 C.2       1 NAD601      0.0000 
     15 N7A        55.1430   16.6510   -8.1060 N.2       1 NAD601      0.0000 
     16 C5A        55.1250   15.3810   -8.5950 C.ar      1 NAD601      0.0000 
     17 C6A        55.9450   14.7260   -9.4990 C.ar      1 NAD601      0.0000 
     18 N6A        57.0810   15.2920  -10.1680 N.pl3     1 NAD601      0.0000 
     19 N1A        55.7000   13.4490   -9.8130 N.ar      1 NAD601      0.0000 
     20 C2A        54.6490   12.7930   -9.2480 C.ar      1 NAD601      0.0000 
     21 N3A        53.8440   13.4300   -8.3610 N.ar      1 NAD601      0.0000 
     22 C4A        54.0830   14.7310   -8.0370 C.ar      1 NAD601      0.0000 
     23 O3         49.4560   20.4100   -7.9200 O.3       1 NAD601      0.0000 
     24 PN         48.9900   21.2800   -6.6440 P.3       1 NAD601      0.0000 
     25 O1N        49.4500   22.7280   -6.7700 O.co2     1 NAD601      0.0000 
     26 O2N        49.5370   20.6820   -5.3670 O.co2     1 NAD601      0.0000 
     27 O5D        47.3940   21.2520   -6.5990 O.3       1 NAD601      0.0000 
     28 C5D        46.6860   22.2570   -7.3120 C.3       1 NAD601      0.0000 
     29 C4D        46.4430   21.8140   -8.7640 C.3       1 NAD601      0.0000 
     30 O4D        45.6960   20.7360   -8.7980 O.3       1 NAD601      0.0000 
     31 C3D        45.6540   22.9100   -9.4740 C.3       1 NAD601      0.0000 
     32 O3D        46.2340   23.2280  -10.6480 O.3       1 NAD601      0.0000 
     33 C2D        44.2640   22.2800   -9.7110 C.3       1 NAD601      0.0000 
     34 O2D        43.6250   22.8090  -10.9370 O.3       1 NAD601      0.0000 
     35 C1D        44.5200   21.0300   -9.8540 C.3       1 NAD601      0.0000 
     36 N1N        43.3340   20.3260   -9.4830 N.pl3     1 NAD601      0.0000 
     37 C2N        42.6460   19.5780  -10.4160 C.ar      1 NAD601      0.0000 
     38 C3N        41.4800   18.9180  -10.0310 C.ar      1 NAD601      0.0000 
     39 C7N        40.6860   18.0770  -11.0660 C.2       1 NAD601      0.0000 
     40 O7N        40.8030   18.3220  -12.2480 O.2       1 NAD601      0.0000 
     41 N7N        39.8020   17.0220  -10.6310 N.am      1 NAD601      0.0000 
     42 C4N        41.0380   19.0190   -8.7330 C.ar      1 NAD601      0.0000 
     43 C5N        41.7330   19.7870   -7.8190 C.ar      1 NAD601      0.0000 
     44 C6N        42.8950   20.4360   -8.1940 C.ar      1 NAD601      0.0000 
@<TRIPOS>BOND
     1    1    2 ar   
     2    1    3 ar   
     3    1    4 1    
     4    1   23 1    
     5    4    5 1    
     6    5    6 1    
     7    6    7 1    
     8    6    8 1    
     9    7   12 1    
    10    8    9 1    
    11    8   10 1    
    12   10   11 1    
    13   10   12 1    
    14   12   13 1    
    15   13   14 1    
    16   13   22 1    
    17   14   15 2    
    18   15   16 1    
    19   16   17 ar   
    20   16   22 ar   
    21   17   18 1    
    22   17   19 ar   
    23   19   20 ar   
    24   20   21 ar   
    25   21   22 ar   
    26   23   24 1    
    27   24   25 ar   
    28   24   26 ar   
    29   24   27 1    
    30   27   28 1    
    31   28   29 1    
    32   29   30 1    
    33   29   31 1    
    34   30   35 1    
    35   31   32 1    
    36   31   33 1    
    37   33   34 1    
    38   33   35 1    
    39   35   36 1    
    40   36   37 ar   
    41   36   44 ar   
    42   37   38 ar   
    43   38   39 1    
    44   38   42 ar   
    45   39   40 2    
    46   39   41 am   
    47   42   43 ar   
    48   43   44 ar   
@<TRIPOS>SUBSTRUCTURE
     1 NAD601      1 GROUP   
@<TRIPOS>SET
ATOM$ORANGE STATIC     ATOMS   COLORGROUP SYSTEM 
42 5 5 6 6 8 8 10 10 12 12 14 14 16 16 17 17 20 \
20 22 22 28 28 29 29 31 31 33 33 35 35 37 37 38 38 39 \
39 42 42 43 43 44 44 

