#    Name: 6b5g_2_NAD
#    Modification time : Fri May 22 19:25:30 2020

@<TRIPOS>MOLECULE
6b5g_2_NAD
   44    48     1     0     1
SMALL
NO_CHARGES


@<TRIPOS>ATOM
      1 PA         -2.6510  -19.5390   -8.0260 P.3       1 NAD601      0.0000 
      2 O1A        -2.8030  -19.1640   -9.4830 O.co2     1 NAD601      0.0000 
      3 O2A        -3.8580  -20.3540   -7.6020 O.co2     1 NAD601      0.0000 
      4 O5B        -2.6460  -18.2040   -7.1140 O.3       1 NAD601      0.0000 
      5 C5B        -1.4200  -17.4840   -6.8680 C.3       1 NAD601      0.0000 
      6 C4B        -1.8420  -16.0290   -6.4590 C.3       1 NAD601      0.0000 
      7 O4B        -2.7500  -15.5800   -7.2960 O.3       1 NAD601      0.0000 
      8 C3B        -2.5240  -16.0800   -5.0940 C.3       1 NAD601      0.0000 
      9 O3B        -2.2000  -14.9720   -4.3910 O.3       1 NAD601      0.0000 
     10 C2B        -4.0340  -16.0810   -5.4300 C.3       1 NAD601      0.0000 
     11 O2B        -4.8410  -15.5770   -4.2860 O.3       1 NAD601      0.0000 
     12 C1B        -4.1050  -15.2960   -6.4470 C.3       1 NAD601      0.0000 
     13 N9A        -5.2710  -15.5630   -7.2180 N.pl3     1 NAD601      0.0000 
     14 C8A        -5.9460  -16.7280   -7.2940 C.2       1 NAD601      0.0000 
     15 N7A        -6.9990  -16.5560   -8.1280 N.2       1 NAD601      0.0000 
     16 C5A        -6.9820  -15.2730   -8.5700 C.ar      1 NAD601      0.0000 
     17 C6A        -7.8210  -14.5830   -9.4300 C.ar      1 NAD601      0.0000 
     18 N6A        -8.9760  -15.1220  -10.0860 N.pl3     1 NAD601      0.0000 
     19 N1A        -7.5730  -13.2980   -9.7060 N.ar      1 NAD601      0.0000 
     20 C2A        -6.4980  -12.6780   -9.1400 C.ar      1 NAD601      0.0000 
     21 N3A        -5.6740  -13.3500   -8.2920 N.ar      1 NAD601      0.0000 
     22 C4A        -5.9180  -14.6580   -8.0080 C.ar      1 NAD601      0.0000 
     23 O3         -1.3170  -20.4150   -7.8330 O.3       1 NAD601      0.0000 
     24 PN         -0.9030  -21.2480   -6.5170 P.3       1 NAD601      0.0000 
     25 O1N        -2.1000  -22.0170   -5.9740 O.co2     1 NAD601      0.0000 
     26 O2N        -0.3700  -20.3170   -5.4400 O.co2     1 NAD601      0.0000 
     27 O5D         0.2430  -22.2910   -6.9090 O.3       1 NAD601      0.0000 
     28 C5D         1.5400  -21.8030   -7.2060 C.3       1 NAD601      0.0000 
     29 C4D         1.6870  -21.5790   -8.7220 C.3       1 NAD601      0.0000 
     30 O4D         2.4230  -20.5180   -8.9660 O.3       1 NAD601      0.0000 
     31 C3D         2.4190  -22.7510   -9.3670 C.3       1 NAD601      0.0000 
     32 O3D         1.8340  -23.0910  -10.5350 O.3       1 NAD601      0.0000 
     33 C2D         3.8500  -22.2150   -9.6240 C.3       1 NAD601      0.0000 
     34 O2D         4.4580  -22.9310  -10.7710 O.3       1 NAD601      0.0000 
     35 C1D         3.6560  -20.9690   -9.9000 C.3       1 NAD601      0.0000 
     36 N1N         4.8050  -20.1900   -9.5370 N.pl3     1 NAD601      0.0000 
     37 C2N         5.5030  -19.4760  -10.4940 C.ar      1 NAD601      0.0000 
     38 C3N         6.6240  -18.7340  -10.1050 C.ar      1 NAD601      0.0000 
     39 C7N         7.4470  -17.9200  -11.1420 C.2       1 NAD601      0.0000 
     40 O7N         7.2200  -18.0370  -12.3270 O.2       1 NAD601      0.0000 
     41 N7N         8.4840  -17.0210  -10.6890 N.am      1 NAD601      0.0000 
     42 C4N         7.0110  -18.7060   -8.7860 C.ar      1 NAD601      0.0000 
     43 C5N         6.3060  -19.4170   -7.8380 C.ar      1 NAD601      0.0000 
     44 C6N         5.1940  -20.1600   -8.2230 C.ar      1 NAD601      0.0000 
@<TRIPOS>BOND
     1    1    2 ar   
     2    1    3 ar   
     3    1    4 1    
     4    1   23 1    
     5    4    5 1    
     6    5    6 1    
     7    6    7 1    
     8    6    8 1    
     9    7   12 1    
    10    8    9 1    
    11    8   10 1    
    12   10   11 1    
    13   10   12 1    
    14   12   13 1    
    15   13   14 1    
    16   13   22 1    
    17   14   15 2    
    18   15   16 1    
    19   16   17 ar   
    20   16   22 ar   
    21   17   18 1    
    22   17   19 ar   
    23   19   20 ar   
    24   20   21 ar   
    25   21   22 ar   
    26   23   24 1    
    27   24   25 ar   
    28   24   26 ar   
    29   24   27 1    
    30   27   28 1    
    31   28   29 1    
    32   29   30 1    
    33   29   31 1    
    34   30   35 1    
    35   31   32 1    
    36   31   33 1    
    37   33   34 1    
    38   33   35 1    
    39   35   36 1    
    40   36   37 ar   
    41   36   44 ar   
    42   37   38 ar   
    43   38   39 1    
    44   38   42 ar   
    45   39   40 2    
    46   39   41 am   
    47   42   43 ar   
    48   43   44 ar   
@<TRIPOS>SUBSTRUCTURE
     1 NAD601      1 GROUP   
@<TRIPOS>SET
ATOM$ORANGE STATIC     ATOMS   COLORGROUP SYSTEM 
42 5 5 6 6 8 8 10 10 12 12 14 14 16 16 17 17 20 \
20 22 22 28 28 29 29 31 31 33 33 35 35 37 37 38 38 39 \
39 42 42 43 43 44 44 

