#    Name: 6eji_1_UD2
#    Modification time : Fri May 22 19:27:30 2020

@<TRIPOS>MOLECULE
6eji_1_UD2
   39    41     1     0     0
SMALL
NO_CHARGES


@<TRIPOS>ATOM
      1 C1'        14.9880    4.3710   21.3290 C.3       1 UD2401      0.0000 
      2 C2'        15.8910    3.3730   22.0340 C.3       1 UD2401      0.0000 
      3 C3'        16.1810    2.2170   21.1310 C.3       1 UD2401      0.0000 
      4 C4'        14.9150    1.5530   20.7000 C.3       1 UD2401      0.0000 
      5 C5'        13.9430    2.5640   20.0970 C.3       1 UD2401      0.0000 
      6 C6'        12.6540    1.9340   19.7220 C.3       1 UD2401      0.0000 
      7 C7'        17.6160    3.8800   23.7950 C.2       1 UD2401      0.0000 
      8 C8'        18.8850    4.5840   24.2670 C.3       1 UD2401      0.0000 
      9 N2'        17.1430    4.0740   22.4490 N.am      1 UD2401      0.0000 
     10 O1'        15.5980    4.6120   20.1280 O.3       1 UD2401      0.0000 
     11 O3'        17.0370    1.2830   21.7880 O.3       1 UD2401      0.0000 
     12 O4'        14.3140    0.9180   21.8370 O.3       1 UD2401      0.0000 
     13 O5'        13.7010    3.7550   20.9860 O.3       1 UD2401      0.0000 
     14 O6'        11.9250    1.5770   20.8900 O.3       1 UD2401      0.0000 
     15 O7'        17.0190    3.1660   24.5350 O.2       1 UD2401      0.0000 
     16 N1         18.2260    8.0650   11.7170 N.am      1 UD2401      0.0000 
     17 C2         17.9090    8.7140   10.5580 C.2       1 UD2401      0.0000 
     18 N3         18.7640    9.6140   10.0580 N.am      1 UD2401      0.0000 
     19 C4         19.9110    9.8970   10.6570 C.2       1 UD2401      0.0000 
     20 C5         20.2550    9.2510   11.8440 C.2       1 UD2401      0.0000 
     21 C6         19.3680    8.3180   12.3620 C.2       1 UD2401      0.0000 
     22 O2         16.8670    8.4730    9.9910 O.2       1 UD2401      0.0000 
     23 O4         20.6520   10.7160   10.1700 O.2       1 UD2401      0.0000 
     24 C1B        17.2640    7.0840   12.2490 C.3       1 UD2401      0.0000 
     25 C2B        17.3080    5.6880   12.0520 C.3       1 UD2401      0.0000 
     26 O2'        17.7300    5.0210   10.8860 O.3       1 UD2401      0.0000 
     27 C3B        16.3130    5.2340   12.9690 C.3       1 UD2401      0.0000 
     28 C4B        16.2530    6.3030   13.8810 C.3       1 UD2401      0.0000 
     29 O4B        16.3560    7.3580   13.1350 O.3       1 UD2401      0.0000 
     30 O3B        15.2540    4.3720   12.6410 O.3       1 UD2401      0.0000 
     31 C5B        16.8590    6.2530   15.2750 C.3       1 UD2401      0.0000 
     32 O5B        16.7020    4.9520   15.7860 O.3       1 UD2401      0.0000 
     33 PA         17.3440    4.7500   17.3120 P.3       1 UD2401      0.0000 
     34 O1A        16.9290    3.4860   17.9180 O.co2     1 UD2401      0.0000 
     35 O2A        18.8010    4.6200   17.2860 O.co2     1 UD2401      0.0000 
     36 O3A        16.8600    6.0810   18.2180 O.3       1 UD2401      0.0000 
     37 PB         16.4830    5.9940   19.8480 P.3       1 UD2401      0.0000 
     38 O1B        17.6990    6.0590   20.6460 O.co2     1 UD2401      0.0000 
     39 O2B        15.7850    7.1960   20.2810 O.co2     1 UD2401      0.0000 
@<TRIPOS>BOND
     1    1    2 1    
     2    1   10 1    
     3    1   13 1    
     4    2    3 1    
     5    2    9 1    
     6    3    4 1    
     7    3   11 1    
     8    4    5 1    
     9    4   12 1    
    10    5    6 1    
    11    5   13 1    
    12    6   14 1    
    13    7    8 1    
    14    7    9 am   
    15    7   15 2    
    16   10   37 1    
    17   16   17 1    
    18   16   21 1    
    19   16   24 1    
    20   17   18 1    
    21   17   22 2    
    22   18   19 1    
    23   19   20 1    
    24   19   23 2    
    25   20   21 2    
    26   24   25 1    
    27   24   29 1    
    28   25   26 1    
    29   25   27 1    
    30   27   28 1    
    31   27   30 1    
    32   28   29 1    
    33   28   31 1    
    34   31   32 1    
    35   32   33 1    
    36   33   34 ar   
    37   33   35 ar   
    38   33   36 1    
    39   36   37 1    
    40   37   38 ar   
    41   37   39 ar   
@<TRIPOS>SUBSTRUCTURE
     1 UD2401      1 GROUP   
@<TRIPOS>SET

