#    Name: 6eji_2_UD2
#    Modification time : Fri May 22 19:27:37 2020

@<TRIPOS>MOLECULE
6eji_2_UD2
   39    41     1     0     0
SMALL
NO_CHARGES


@<TRIPOS>ATOM
      1 C1'        21.6090   45.8370   14.3710 C.3       1 UD2401      0.0000 
      2 C2'        22.5020   46.8160   13.6250 C.3       1 UD2401      0.0000 
      3 C3'        22.8270   47.9740   14.5150 C.3       1 UD2401      0.0000 
      4 C4'        21.5780   48.6400   14.9780 C.3       1 UD2401      0.0000 
      5 C5'        20.6430   47.6480   15.6550 C.3       1 UD2401      0.0000 
      6 C6'        19.3790   48.3050   16.0530 C.3       1 UD2401      0.0000 
      7 C7'        24.2300   46.2840   11.8490 C.2       1 UD2401      0.0000 
      8 C8'        25.4890   45.5520   11.3890 C.3       1 UD2401      0.0000 
      9 N2'        23.7410   46.1010   13.1910 N.am      1 UD2401      0.0000 
     10 O1'        22.2620   45.5900   15.5460 O.3       1 UD2401      0.0000 
     11 O3'        23.6620   48.9100   13.8340 O.3       1 UD2401      0.0000 
     12 O4'        20.9130   49.1870   13.8330 O.3       1 UD2401      0.0000 
     13 O5'        20.3460   46.4600   14.7830 O.3       1 UD2401      0.0000 
     14 O6'        18.6480   48.6410   14.8790 O.3       1 UD2401      0.0000 
     15 O7'        23.6530   47.0070   11.1020 O.2       1 UD2401      0.0000 
     16 N1         24.6430   41.9830   23.9360 N.am      1 UD2401      0.0000 
     17 C2         24.3600   41.2150   25.0340 C.2       1 UD2401      0.0000 
     18 N3         25.2530   40.3050   25.4510 N.am      1 UD2401      0.0000 
     19 C4         26.4060   40.1240   24.8260 C.2       1 UD2401      0.0000 
     20 C5         26.7160   40.8900   23.7030 C.2       1 UD2401      0.0000 
     21 C6         25.7920   41.8310   23.2720 C.2       1 UD2401      0.0000 
     22 O2         23.3140   41.3610   25.6240 O.2       1 UD2401      0.0000 
     23 O4         27.1850   39.2950   25.2300 O.2       1 UD2401      0.0000 
     24 C1B        23.6480   42.9760   23.4820 C.3       1 UD2401      0.0000 
     25 C2B        23.7420   44.3740   23.6710 C.3       1 UD2401      0.0000 
     26 O2'        24.2560   45.0460   24.7950 O.3       1 UD2401      0.0000 
     27 C3B        22.7360   44.8520   22.7810 C.3       1 UD2401      0.0000 
     28 C4B        22.7660   43.8430   21.8050 C.3       1 UD2401      0.0000 
     29 O4B        22.8040   42.7560   22.5160 O.3       1 UD2401      0.0000 
     30 O3B        21.6060   45.5910   23.1710 O.3       1 UD2401      0.0000 
     31 C5B        23.5630   43.9690   20.5150 C.3       1 UD2401      0.0000 
     32 O5B        23.1670   45.1440   19.8500 O.3       1 UD2401      0.0000 
     33 PA         23.9130   45.3740   18.3770 P.3       1 UD2401      0.0000 
     34 O1A        25.3660   45.4750   18.5140 O.co2     1 UD2401      0.0000 
     35 O2A        23.5710   46.6680   17.7840 O.co2     1 UD2401      0.0000 
     36 O3A        23.4790   44.0660   17.4140 O.3       1 UD2401      0.0000 
     37 PB         23.1400   44.1990   15.7810 P.3       1 UD2401      0.0000 
     38 O1B        22.4430   43.0180   15.2910 O.co2     1 UD2401      0.0000 
     39 O2B        24.3730   44.1700   15.0040 O.co2     1 UD2401      0.0000 
@<TRIPOS>BOND
     1    1    2 1    
     2    1   10 1    
     3    1   13 1    
     4    2    3 1    
     5    2    9 1    
     6    3    4 1    
     7    3   11 1    
     8    4    5 1    
     9    4   12 1    
    10    5    6 1    
    11    5   13 1    
    12    6   14 1    
    13    7    8 1    
    14    7    9 am   
    15    7   15 2    
    16   10   37 1    
    17   16   17 1    
    18   16   21 1    
    19   16   24 1    
    20   17   18 1    
    21   17   22 2    
    22   18   19 1    
    23   19   20 1    
    24   19   23 2    
    25   20   21 2    
    26   24   25 1    
    27   24   29 1    
    28   25   26 1    
    29   25   27 1    
    30   27   28 1    
    31   27   30 1    
    32   28   29 1    
    33   28   31 1    
    34   31   32 1    
    35   32   33 1    
    36   33   34 ar   
    37   33   35 ar   
    38   33   36 1    
    39   36   37 1    
    40   37   38 ar   
    41   37   39 ar   
@<TRIPOS>SUBSTRUCTURE
     1 UD2401      1 GROUP   
@<TRIPOS>SET

