#    Name: 6c1j_1_DNX
#    Modification time : Fri May 22 19:33:15 2020

@<TRIPOS>MOLECULE
6c1j_1_DNX
   16    16     1     0     0
SMALL
NO_CHARGES


@<TRIPOS>ATOM
      1 C1        -13.7220  -11.4870    4.2790 C.ar      1 DNX204      0.0000 
      2 C2        -14.2890  -12.6940    4.7240 C.ar      1 DNX204      0.0000 
      3 C3        -14.3850  -12.8780    6.0850 C.ar      1 DNX204      0.0000 
      4 N3        -14.9980  -14.1540    6.5700 N.pl3     1 DNX204      0.0000 
      5 C4        -13.9350  -11.9020    6.9750 C.ar      1 DNX204      0.0000 
      6 N4        -13.9990  -12.0770    8.4300 N.pl3     1 DNX204      0.0000 
      7 C5        -13.3710  -10.7410    6.5060 C.ar      1 DNX204      0.0000 
      8 C6        -13.2740  -10.5250    5.1550 C.ar      1 DNX204      0.0000 
      9 O1        -13.5790  -11.3070    2.9580 O.co2     1 DNX204      0.0000 
     10 O31       -14.8110  -15.1420    5.9370 O.2       1 DNX204      0.0000 
     11 O32       -15.6990  -14.1070    7.5590 O.2       1 DNX204      0.0000 
     12 O41       -14.0010  -13.1980    8.8720 O.2       1 DNX204      0.0000 
     13 O42       -13.9950  -11.0460    9.0730 O.2       1 DNX204      0.0000 
     14 H2        -14.5840  -13.3350    4.1200 H         1 DNX204      0.0000 
     15 H5        -13.0680  -10.0950    7.1000 H         1 DNX204      0.0000 
     16 H6        -12.8820   -9.7430    4.8400 H         1 DNX204      0.0000 
@<TRIPOS>BOND
     1    1    2 ar   
     2    1    8 ar   
     3    1    9 ar   
     4    2    3 ar   
     5    3    4 1    
     6    2   14 1    
     7    3    5 ar   
     8    4   10 2    
     9    4   11 2    
    10    5    6 1    
    11    5    7 ar   
    12    6   12 2    
    13    6   13 2    
    14    7    8 ar   
    15    7   15 1    
    16    8   16 1    
@<TRIPOS>SUBSTRUCTURE
     1 DNX204      1 GROUP   
@<TRIPOS>SET

