#    Name: 6ifg_2_TYR_SER_ALA
#    Modification time : Fri May 22 19:24:18 2020

@<TRIPOS>MOLECULE
6ifg_2_TYR_SER_ALA
   45    45     3     0     0
SMALL
NO_CHARGES


@<TRIPOS>ATOM
      1 N         -37.1070  -21.1520  -15.4270 N.4       1 TYR1        0.0000 
      2 CA        -36.6330  -20.4580  -16.6610 C.3       1 TYR1        0.0000 
      3 C         -36.5540  -18.9600  -16.4740 C.2       1 TYR1        0.0000 
      4 O         -37.4110  -18.3570  -15.8420 O.2       1 TYR1        0.0000 
      5 CB        -37.5660  -20.7420  -17.8430 C.3       1 TYR1        0.0000 
      6 CG        -37.2590  -21.9950  -18.6360 C.ar      1 TYR1        0.0000 
      7 CD1       -35.9550  -22.3250  -18.9820 C.ar      1 TYR1        0.0000 
      8 CD2       -38.2790  -22.8440  -19.0420 C.ar      1 TYR1        0.0000 
      9 CE1       -35.6710  -23.4740  -19.7110 C.ar      1 TYR1        0.0000 
     10 CE2       -38.0090  -23.9980  -19.7660 C.ar      1 TYR1        0.0000 
     11 CZ        -36.7030  -24.3060  -20.0980 C.ar      1 TYR1        0.0000 
     12 OH        -36.4130  -25.4450  -20.8140 O.3       1 TYR1        0.0000 
     13 H1        -36.4170  -21.5410  -15.0220 H         1 TYR1        0.0000 
     14 H2        -37.4780  -20.5580  -14.8770 H         1 TYR1        0.0000 
     15 H3        -37.7090  -21.7690  -15.6460 H         1 TYR1        0.0000 
     16 HA        -35.7480  -20.7820  -16.8880 H         1 TYR1        0.0000 
     17 HB2       -38.4710  -20.8270  -17.5050 H         1 TYR1        0.0000 
     18 HB3       -37.5200  -19.9920  -18.4560 H         1 TYR1        0.0000 
     19 HD1       -35.2580  -21.7670  -18.7200 H         1 TYR1        0.0000 
     20 HD2       -39.1590  -22.6400  -18.8180 H         1 TYR1        0.0000 
     21 HE1       -34.7920  -23.6830  -19.9320 H         1 TYR1        0.0000 
     22 HE2       -38.7030  -24.5580  -20.0290 H         1 TYR1        0.0000 
     23 HH        -37.1210  -25.8620  -20.9880 H         1 TYR1        0.0000 
     24 N         -35.5290  -18.3590  -17.0720 N.am      2 SER2        0.0000 
     25 CA        -35.4760  -16.9140  -17.2060 C.3       2 SER2        0.0000 
     26 C         -34.5320  -16.5700  -18.3460 C.2       2 SER2        0.0000 
     27 O         -33.4470  -17.1450  -18.4550 O.2       2 SER2        0.0000 
     28 CB        -35.0170  -16.2360  -15.9170 C.3       2 SER2        0.0000 
     29 OG        -35.1670  -14.8340  -16.0400 O.3       2 SER2        0.0000 
     30 H         -34.8510  -18.7690  -17.4070 H         2 SER2        0.0000 
     31 HA        -36.3590  -16.5800  -17.4300 H         2 SER2        0.0000 
     32 HB2       -35.5610  -16.5520  -15.1790 H         2 SER2        0.0000 
     33 HB3       -34.0830  -16.4460  -15.7610 H         2 SER2        0.0000 
     34 HG        -34.9160  -14.4550  -15.3330 H         2 SER2        0.0000 
     35 N         -34.9550  -15.6270  -19.1810 N.am      3 ALA3        0.0000 
     36 CA        -34.1230  -15.1330  -20.2710 C.3       3 ALA3        0.0000 
     37 C         -33.0940  -14.1450  -19.7410 C.2       3 ALA3        0.0000 
     38 O         -33.2230  -13.6300  -18.6300 O.2       3 ALA3        0.0000 
     39 CB        -34.9820  -14.4790  -21.3450 C.3       3 ALA3        0.0000 
     40 OXT       -32.1040  -13.8480  -20.4100 O.3       3 ALA3        0.0000 
     41 H         -35.7280  -15.2540  -19.1370 H         3 ALA3        0.0000 
     42 HA        -33.6490  -15.8770  -20.6740 H         3 ALA3        0.0000 
     43 HB1       -34.4060  -14.1580  -22.0580 H         3 ALA3        0.0000 
     44 HB2       -35.6060  -15.1350  -21.6930 H         3 ALA3        0.0000 
     45 HB3       -35.4670  -13.7360  -20.9530 H         3 ALA3        0.0000 
@<TRIPOS>BOND
     1    1    2 1    
     2    2    3 1    
     3    1   13 1    
     4    1   14 1    
     5    1   15 1    
     6    2    5 1    
     7    2   16 1    
     8    3    4 2    
     9    3   24 am   
    10    5    6 1    
    11    5   17 1    
    12    5   18 1    
    13    6    7 ar   
    14    6    8 ar   
    15    7    9 ar   
    16    8   10 ar   
    17    7   19 1    
    18    9   11 ar   
    19    8   20 1    
    20   10   11 ar   
    21    9   21 1    
    22   11   12 1    
    23   10   22 1    
    24   12   23 1    
    25   24   25 1    
    26   25   26 1    
    27   24   30 1    
    28   25   28 1    
    29   25   31 1    
    30   26   27 2    
    31   26   35 am   
    32   28   29 1    
    33   28   32 1    
    34   28   33 1    
    35   29   34 1    
    36   35   36 1    
    37   36   37 1    
    38   35   41 1    
    39   36   39 1    
    40   36   42 1    
    41   37   38 2    
    42   37   40 1    
    43   39   43 1    
    44   39   44 1    
    45   39   45 1    
@<TRIPOS>SUBSTRUCTURE
     1 TYR1        1 RESIDUE 
     2 SER2       24 RESIDUE 
     3 ALA3       35 RESIDUE 
@<TRIPOS>SET

