#    Name: 6ifg_2_TYR_SER_ALA_CAVITY_N1_12
#    Modification time : Fri May 22 19:24:19 2020

@<TRIPOS>MOLECULE
6ifg_2_TYR_SER_ALA_CAVITY_N1_12
   86     0     7     0     0
SMALL
NO_CHARGES


@<TRIPOS>ATOM
      1 OG        -38.0400  -20.7100  -18.6400 O.3       1 SER1        0.0000 
      2 OG        -39.1900  -19.1800  -19.5500 O.3       1 SER1        0.0000 
      3 OG        -40.5900  -18.6600  -19.3800 O.3       1 SER1        0.0000 
      4 OG        -37.5600  -19.7400  -17.6100 O.3       1 SER1        0.0000 
      5 OG        -37.3100  -18.7200  -18.6800 O.3       1 SER1        0.0000 
      6 OG        -38.4600  -17.1900  -19.5900 O.3       1 SER1        0.0000 
      7 OG        -39.8600  -16.6700  -19.4200 O.3       1 SER1        0.0000 
      8 OG        -33.2800  -15.7300  -21.2100 O.3       1 SER1        0.0000 
      9 OG        -33.0400  -14.7200  -22.2800 O.3       1 SER1        0.0000 
     10 OG        -37.0700  -18.7700  -16.5800 O.3       1 SER1        0.0000 
     11 OG        -36.8200  -17.7500  -17.6500 O.3       1 SER1        0.0000 
     12 OG        -37.9700  -16.2100  -18.5600 O.3       1 SER1        0.0000 
     13 OG        -33.0500  -15.7800  -19.1000 O.3       1 SER1        0.0000 
     14 OG        -32.8000  -14.7600  -20.1800 O.3       1 SER1        0.0000 
     15 OG        -32.5500  -13.7400  -21.2500 O.3       1 SER1        0.0000 
     16 OG        -36.5900  -17.7900  -15.5400 O.3       1 SER1        0.0000 
     17 OG        -35.8600  -15.8000  -15.5800 O.3       1 SER1        0.0000 
     18 OG        -36.7700  -14.3100  -14.3800 O.3       1 SER1        0.0000 
     19 N         -36.4600  -24.7100  -19.9700 N.am      2 ALA2        0.0000 
     20 N         -37.8600  -24.1900  -19.8000 N.am      2 ALA2        0.0000 
     21 N         -35.2400  -21.7500  -18.9800 N.am      2 ALA2        0.0000 
     22 N         -40.3400  -17.6400  -20.4600 N.am      2 ALA2        0.0000 
     23 N         -36.4100  -21.2700  -16.7000 N.am      2 ALA2        0.0000 
     24 N         -36.1600  -20.2600  -17.7800 N.am      2 ALA2        0.0000 
     25 N         -35.6700  -19.2800  -16.7400 N.am      2 ALA2        0.0000 
     26 N         -35.4300  -18.2700  -17.8200 N.am      2 ALA2        0.0000 
     27 N         -33.5400  -17.8100  -16.9500 N.am      2 ALA2        0.0000 
     28 O         -33.3000  -16.7900  -18.0300 O.2       2 ALA2        0.0000 
     29 N         -34.9400  -17.2900  -16.7900 N.am      2 ALA2        0.0000 
     30 OD1       -32.3200  -13.7900  -19.1400 O.co2     3 ASP3        0.0000 
     31 OD1       -33.7100  -13.2700  -18.9700 O.co2     3 ASP3        0.0000 
     32 OD1       -35.3600  -13.7700  -17.7300 O.co2     3 ASP3        0.0000 
     33 OD1       -35.1100  -12.7500  -18.8100 O.co2     3 ASP3        0.0000 
     34 OD1       -34.8700  -12.7900  -16.7000 O.co2     3 ASP3        0.0000 
     35 OD1       -36.2700  -12.2800  -16.5300 O.co2     3 ASP3        0.0000 
     36 NZ        -37.3700  -23.2200  -18.7700 N.4       4 LYS4        0.0000 
     37 NZ        -36.8900  -22.2500  -17.7400 N.4       4 LYS4        0.0000 
     38 NZ        -38.2900  -21.7300  -17.5700 N.4       4 LYS4        0.0000 
     39 NZ        -37.8000  -20.7600  -16.5400 N.4       4 LYS4        0.0000 
     40 CZ        -39.2600  -23.6800  -19.6400 C.ar      5 PHE5        0.0000 
     41 CZ        -38.7700  -22.7000  -18.6000 C.ar      5 PHE5        0.0000 
     42 CZ        -39.9200  -21.1700  -19.5100 C.ar      5 PHE5        0.0000 
     43 CZ        -39.3700  -15.7000  -18.3900 C.ar      5 PHE5        0.0000 
     44 CZ        -35.1900  -18.3100  -15.7100 C.ar      5 PHE5        0.0000 
     45 CZ        -36.3400  -16.7800  -16.6200 C.ar      5 PHE5        0.0000 
     46 CZ        -37.7400  -16.2600  -16.4500 C.ar      5 PHE5        0.0000 
     47 CZ        -37.4900  -15.2400  -17.5300 C.ar      5 PHE5        0.0000 
     48 CZ        -38.8900  -14.7200  -17.3600 C.ar      5 PHE5        0.0000 
     49 CZ        -37.2500  -15.2800  -15.4200 C.ar      5 PHE5        0.0000 
     50 CZ        -37.0000  -14.2700  -16.4900 C.ar      5 PHE5        0.0000 
     51 CZ        -38.4000  -13.7500  -16.3200 C.ar      5 PHE5        0.0000 
     52 CA        -36.2100  -23.6900  -21.0500 C.3       6 GLY6        0.0000 
     53 CA        -37.6100  -23.1800  -20.8800 C.3       6 GLY6        0.0000 
     54 CA        -39.0100  -22.6600  -20.7100 C.3       6 GLY6        0.0000 
     55 CA        -35.9800  -23.7400  -18.9400 C.3       6 GLY6        0.0000 
     56 CA        -35.7300  -22.7200  -20.0100 C.3       6 GLY6        0.0000 
     57 CA        -37.1300  -22.2000  -19.8400 C.3       6 GLY6        0.0000 
     58 CA        -38.5200  -21.6900  -19.6800 C.3       6 GLY6        0.0000 
     59 CA        -39.6700  -20.1500  -20.5800 C.3       6 GLY6        0.0000 
     60 CA        -39.4300  -19.1300  -21.6600 C.3       6 GLY6        0.0000 
     61 CA        -35.4900  -22.7700  -17.9000 C.3       6 GLY6        0.0000 
     62 CA        -36.6400  -21.2300  -18.8100 C.3       6 GLY6        0.0000 
     63 CA        -38.9400  -18.1600  -20.6300 C.3       6 GLY6        0.0000 
     64 CA        -35.9100  -19.2400  -18.8500 C.3       6 GLY6        0.0000 
     65 CA        -37.0600  -17.7100  -19.7600 C.3       6 GLY6        0.0000 
     66 CA        -33.5300  -16.7500  -20.1300 C.3       6 GLY6        0.0000 
     67 CA        -35.1800  -17.2500  -18.8900 C.3       6 GLY6        0.0000 
     68 CA        -34.9300  -16.2300  -19.9700 C.3       6 GLY6        0.0000 
     69 CA        -34.6800  -15.2200  -21.0400 C.3       6 GLY6        0.0000 
     70 CA        -34.4300  -14.2000  -22.1200 C.3       6 GLY6        0.0000 
     71 CA        -36.5800  -16.7300  -18.7300 C.3       6 GLY6        0.0000 
     72 CA        -36.3300  -15.7100  -19.8000 C.3       6 GLY6        0.0000 
     73 CA        -32.5600  -14.8000  -18.0700 C.3       6 GLY6        0.0000 
     74 CA        -34.4600  -16.3200  -15.7500 C.3       6 GLY6        0.0000 
     75 CA        -34.2100  -15.3000  -16.8300 C.3       6 GLY6        0.0000 
     76 CA        -33.9600  -14.2900  -17.9000 C.3       6 GLY6        0.0000 
     77 CA        -35.1200  -13.8100  -15.6300 C.3       6 GLY6        0.0000 
     78 DU        -34.6900  -16.2800  -17.8600 H         7 CUB7        0.0000 
     79 DU        -34.4500  -15.2600  -18.9300 H         7 CUB7        0.0000 
     80 DU        -34.2000  -14.2400  -20.0100 H         7 CUB7        0.0000 
     81 DU        -36.0900  -15.7600  -17.6900 H         7 CUB7        0.0000 
     82 DU        -35.8400  -14.7400  -18.7700 H         7 CUB7        0.0000 
     83 DU        -37.2400  -14.2200  -18.6000 H         7 CUB7        0.0000 
     84 DU        -35.6100  -14.7800  -16.6600 H         7 CUB7        0.0000 
     85 DU        -36.7600  -13.2500  -17.5700 H         7 CUB7        0.0000 
     86 DU        -38.1500  -12.7300  -17.4000 H         7 CUB7        0.0000 
@<TRIPOS>BOND
@<TRIPOS>SUBSTRUCTURE
     1 SER1        1 GROUP   
     2 ALA2       19 GROUP   
     3 ASP3       30 GROUP   
     4 LYS4       36 GROUP   
     5 PHE5       40 GROUP   
     6 GLY6       52 GROUP   
     7 CUB7       78 GROUP   
@<TRIPOS>SET

