#    Name: 6a05_1_1YD
#    Modification time : Fri May 22 19:24:21 2020

@<TRIPOS>MOLECULE
6a05_1_1YD
   45    51     1     0     0
SMALL
NO_CHARGES


@<TRIPOS>ATOM
      1 OAC        25.7110    0.0890   23.3660 O.2       1 1YD403      0.0000 
      2 CBC        24.6740    0.3010   23.9700 C.2       1 1YD403      0.0000 
      3 NAT        24.7010    0.8400   25.2040 N.am      1 1YD403      0.0000 
      4 CBA        23.5370    1.0700   25.8810 C.2       1 1YD403      0.0000 
      5 NAA        23.5640    1.6080   27.1370 N.pl3     1 1YD403      0.0000 
      6 NAS        22.3600    0.7860   25.3770 N.2       1 1YD403      0.0000 
      7 CBG        22.2490    0.2630   24.1610 C.2       1 1YD403      0.0000 
      8 CBE        23.4070   -0.0020   23.4090 C.2       1 1YD403      0.0000 
      9 NAR        22.9900   -0.5410   22.2380 N.2       1 1YD403      0.0000 
     10 CAL        21.6940   -0.6100   22.2460 C.2       1 1YD403      0.0000 
     11 NBQ        21.1710   -0.1160   23.4070 N.pl3     1 1YD403      0.0000 
     12 CBO        19.7530   -0.0260   23.8320 C.3       1 1YD403      0.0000 
     13 CBI        19.0350    1.3070   23.4980 C.3       1 1YD403      0.0000 
     14 OAG        18.3620    1.7850   24.6490 O.3       1 1YD403      0.0000 
     15 OAX        19.0030   -0.9910   23.1300 O.3       1 1YD403      0.0000 
     16 CBK        18.5590   -0.3160   21.9520 C.3       1 1YD403      0.0000 
     17 CAN        17.7090   -1.2330   21.0940 C.3       1 1YD403      0.0000 
     18 OAV        18.7420   -2.0240   20.5010 O.3       1 1YD403      0.0000 
     19 PBR        18.9700   -1.9540   18.9240 P.3       1 1YD403      0.0000 
     20 O3'        18.4990   -0.4700   18.5390 O.3       1 1YD403      0.0000 
     21 OAH        20.3970   -2.1730   18.5660 O.co2     1 1YD403      0.0000 
     22 OAD        18.0300   -3.1010   18.3160 O.co2     1 1YD403      0.0000 
     23 CBM        17.9110    0.9340   22.5210 C.3       1 1YD403      0.0000 
     24 OAZ        17.5770    1.9200   21.5350 O.3       1 1YD403      0.0000 
     25 PBS        18.2320    3.3520   21.1360 P.3       1 1YD403      0.0000 
     26 OAI        19.5540    3.7770   21.9380 O.co2     1 1YD403      0.0000 
     27 OAE        17.1850    4.4050   21.1380 O.co2     1 1YD403      0.0000 
     28 O5'        18.6200    3.1740   19.6040 O.3       1 1YD403      0.0000 
     29 C5'        17.8030    2.3420   18.7860 C.3       1 1YD403      0.0000 
     30 C4'        18.8760    1.7120   17.9160 C.3       1 1YD403      0.0000 
     31 O4'        19.2760    2.5290   16.8150 O.3       1 1YD403      0.0000 
     32 C3'        18.5940    0.3260   17.3640 C.3       1 1YD403      0.0000 
     33 C2'        19.8810    0.2500   16.5390 C.3       1 1YD403      0.0000 
     34 O2'        19.5670   -0.3240   15.2700 O.3       1 1YD403      0.0000 
     35 C1'        20.3110    1.7250   16.2940 C.3       1 1YD403      0.0000 
     36 N9         21.5720    2.0380   16.9700 N.pl3     1 1YD403      0.0000 
     37 C8         21.7830    2.7580   18.1230 C.2       1 1YD403      0.0000 
     38 N7         23.0420    2.8230   18.4120 N.2       1 1YD403      0.0000 
     39 C5         23.7210    2.1430   17.4560 C.ar      1 1YD403      0.0000 
     40 C4         22.7940    1.6390   16.5220 C.ar      1 1YD403      0.0000 
     41 N3         23.2140    0.9340   15.4700 N.ar      1 1YD403      0.0000 
     42 C2         24.5010    0.7020   15.3180 C.ar      1 1YD403      0.0000 
     43 N1         25.4060    1.1500   16.1730 N.ar      1 1YD403      0.0000 
     44 C6         25.0690    1.8700   17.2410 C.ar      1 1YD403      0.0000 
     45 N6         26.0040    2.3430   18.1300 N.pl3     1 1YD403      0.0000 
@<TRIPOS>BOND
     1    1    2 2    
     2    2    3 am   
     3    2    8 1    
     4    3    4 1    
     5    4    5 1    
     6    4    6 2    
     7    6    7 1    
     8    7    8 2    
     9    7   11 1    
    10    8    9 1    
    11    9   10 2    
    12   10   11 1    
    13   11   12 1    
    14   12   13 1    
    15   12   15 1    
    16   13   14 1    
    17   13   23 1    
    18   15   16 1    
    19   16   17 1    
    20   16   23 1    
    21   17   18 1    
    22   18   19 1    
    23   19   20 1    
    24   19   21 ar   
    25   19   22 ar   
    26   20   32 1    
    27   23   24 1    
    28   24   25 1    
    29   25   26 ar   
    30   25   27 ar   
    31   25   28 1    
    32   28   29 1    
    33   29   30 1    
    34   30   31 1    
    35   30   32 1    
    36   31   35 1    
    37   32   33 1    
    38   33   34 1    
    39   33   35 1    
    40   35   36 1    
    41   36   37 1    
    42   36   40 1    
    43   37   38 2    
    44   38   39 1    
    45   39   40 ar   
    46   39   44 ar   
    47   40   41 ar   
    48   41   42 ar   
    49   42   43 ar   
    50   43   44 ar   
    51   44   45 1    
@<TRIPOS>SUBSTRUCTURE
     1 1YD403      1 GROUP   
@<TRIPOS>SET

