#    Name: 6a05_1_1YD_CAVITY_N1_4
#    Modification time : Fri May 22 19:24:23 2020

@<TRIPOS>MOLECULE
6a05_1_1YD_CAVITY_N1_4
   95     0     6     0     0
SMALL
NO_CHARGES


@<TRIPOS>ATOM
      1 OG         15.9900    1.3300   17.6800 O.3       1 SER1        0.0000 
      2 OG         20.3500    0.1600   16.2000 O.3       1 SER1        0.0000 
      3 OG         16.5500    1.7200   19.0100 O.3       1 SER1        0.0000 
      4 OG         15.9200    0.5100   19.6300 O.3       1 SER1        0.0000 
      5 OG         17.1600   -0.2800   19.3500 O.3       1 SER1        0.0000 
      6 OG         17.7600   -2.2900   19.6800 O.3       1 SER1        0.0000 
      7 OG         17.7400    3.3200   19.7300 O.3       1 SER1        0.0000 
      8 OG         17.1100    2.1100   20.3500 O.3       1 SER1        0.0000 
      9 OG         16.4700    0.9000   20.9700 O.3       1 SER1        0.0000 
     10 OG         17.7100    0.1100   20.6800 O.3       1 SER1        0.0000 
     11 OG         17.0800   -1.1000   21.3000 O.3       1 SER1        0.0000 
     12 OG         17.0600    4.5100   21.3500 O.3       1 SER1        0.0000 
     13 OG         16.4300    3.3000   21.9700 O.3       1 SER1        0.0000 
     14 OG         15.7900    2.0900   22.5900 O.3       1 SER1        0.0000 
     15 OG         17.6700    2.5000   21.6900 O.3       1 SER1        0.0000 
     16 OG         17.0300    1.2900   22.3000 O.3       1 SER1        0.0000 
     17 OG         16.4000    0.0800   22.9200 O.3       1 SER1        0.0000 
     18 OG         17.6200    4.9000   22.6900 O.3       1 SER1        0.0000 
     19 OG         18.2200    2.9000   23.0200 O.3       1 SER1        0.0000 
     20 OG         18.8300    0.8900   23.3600 O.3       1 SER1        0.0000 
     21 OG         20.6300    0.4900   24.4100 O.3       1 SER1        0.0000 
     22 OG         21.8200    2.0900   25.1300 O.3       1 SER1        0.0000 
     23 N          17.8200    4.1400   17.7700 N.am      2 ALA2        0.0000 
     24 N          17.1800    2.9300   18.3900 N.am      2 ALA2        0.0000 
     25 N          19.6200    3.7400   18.8300 N.am      2 ALA2        0.0000 
     26 N          21.4900    4.1500   17.9200 N.am      2 ALA2        0.0000 
     27 N          18.3200   -1.9000   21.0200 N.am      2 ALA2        0.0000 
     28 N          19.5600   -2.6900   20.7300 N.am      2 ALA2        0.0000 
     29 N          18.9300    4.9300   20.4500 N.am      2 ALA2        0.0000 
     30 N          17.6400   -0.7100   22.6400 N.am      2 ALA2        0.0000 
     31 N          18.8100    6.5000   23.4000 N.am      2 ALA2        0.0000 
     32 OD1        20.9000    0.5500   17.5400 O.co2     3 ASP3        0.0000 
     33 OD1        20.2700   -0.6600   18.1600 O.co2     3 ASP3        0.0000 
     34 OD1        19.6400   -1.8700   18.7800 O.co2     3 ASP3        0.0000 
     35 OD1        22.7800    0.9600   16.6400 O.co2     3 ASP3        0.0000 
     36 OD1        18.9800    2.5300   19.4500 O.co2     3 ASP3        0.0000 
     37 OD1        20.8600    2.9400   18.5400 O.co2     3 ASP3        0.0000 
     38 OD1        20.2200    1.7300   19.1600 O.co2     3 ASP3        0.0000 
     39 OD1        19.5900    0.5200   19.7800 O.co2     3 ASP3        0.0000 
     40 OD1        22.1000    2.1500   18.2600 O.co2     3 ASP3        0.0000 
     41 OD1        20.2000   -1.4800   20.1200 O.co2     3 ASP3        0.0000 
     42 OD1        18.3000    3.7100   21.0700 O.co2     3 ASP3        0.0000 
     43 OD1        19.5400    2.9200   20.7800 O.co2     3 ASP3        0.0000 
     44 OD1        18.9100    1.7100   21.4000 O.co2     3 ASP3        0.0000 
     45 OD1        20.1500    0.9200   21.1200 O.co2     3 ASP3        0.0000 
     46 OD1        20.7500   -1.0900   21.4500 O.co2     3 ASP3        0.0000 
     47 OD1        19.4900    5.3200   21.7800 O.co2     3 ASP3        0.0000 
     48 OD1        18.8600    4.1100   22.4000 O.co2     3 ASP3        0.0000 
     49 OD1        20.7000    1.3100   22.4500 O.co2     3 ASP3        0.0000 
     50 OD1        20.0700    0.1000   23.0700 O.co2     3 ASP3        0.0000 
     51 OD1        21.9400    0.5100   22.1700 O.co2     3 ASP3        0.0000 
     52 OD1        20.6800    6.9200   22.5000 O.co2     3 ASP3        0.0000 
     53 OD1        20.0500    5.7100   23.1200 O.co2     3 ASP3        0.0000 
     54 OD1        21.2600    1.7000   23.7900 O.co2     3 ASP3        0.0000 
     55 OD1        23.0600    1.3000   24.8400 O.co2     3 ASP3        0.0000 
     56 CZ         17.8700    1.7400   16.7700 C.ar      4 PHE5        0.0000 
     57 CZ         19.7400    2.1600   15.8700 C.ar      4 PHE5        0.0000 
     58 CZ         19.1100    0.9500   16.4900 C.ar      4 PHE5        0.0000 
     59 CZ         21.5400    1.7600   16.9200 C.ar      4 PHE5        0.0000 
     60 CZ         23.4100    2.1700   16.0200 C.ar      4 PHE5        0.0000 
     61 CZ         22.7300    3.3600   17.6400 C.ar      4 PHE5        0.0000 
     62 CZ         23.9700    2.5700   17.3500 C.ar      4 PHE5        0.0000 
     63 CZ         16.9600    0.4700   24.2600 C.ar      4 PHE5        0.0000 
     64 CZ         18.2000   -0.3200   23.9800 C.ar      4 PHE5        0.0000 
     65 CZ         21.8700   -0.3100   24.1200 C.ar      4 PHE5        0.0000 
     66 CZ         22.4200    0.0900   25.4600 C.ar      4 PHE5        0.0000 
     67 CA         18.5000    2.9600   16.1500 C.3       5 GLY6        0.0000 
     68 CA         17.2300    0.5300   17.3900 C.3       5 GLY6        0.0000 
     69 CA         18.4700   -0.2600   17.1100 C.3       5 GLY6        0.0000 
     70 CA         17.8400   -1.4700   17.7300 C.3       5 GLY6        0.0000 
     71 CA         19.7100   -1.0500   16.8200 C.3       5 GLY6        0.0000 
     72 CA         19.0800   -2.2700   17.4400 C.3       5 GLY6        0.0000 
     73 CA         19.0600    3.3500   17.4900 C.3       5 GLY6        0.0000 
     74 CA         20.3000    2.5500   17.2100 C.3       5 GLY6        0.0000 
     75 CA         19.0000   -3.0800   19.4000 C.3       5 GLY6        0.0000 
     76 CA         18.3800    4.5300   19.1100 C.3       5 GLY6        0.0000 
     77 CA         18.8800   -1.5100   22.3600 C.3       5 GLY6        0.0000 
     78 CA         18.2500    6.1100   22.0700 C.3       5 GLY6        0.0000 
     79 CA         16.9800    3.6900   23.3100 C.3       5 GLY6        0.0000 
     80 CA         16.3500    2.4800   23.9300 C.3       5 GLY6        0.0000 
     81 CA         17.5900    1.6900   23.6400 C.3       5 GLY6        0.0000 
     82 CA         19.4400   -1.1100   23.6900 C.3       5 GLY6        0.0000 
     83 CA         21.3100   -0.7000   22.7900 C.3       5 GLY6        0.0000 
     84 CA         19.4100    4.5000   23.7400 C.3       5 GLY6        0.0000 
     85 CA         19.9900   -0.7200   25.0300 C.3       5 GLY6        0.0000 
     86 CA         23.6200    1.6900   26.1800 C.3       5 GLY6        0.0000 
     87 DU         18.4200    2.1400   18.1100 H         6 CUB7        0.0000 
     88 DU         17.7900    0.9300   18.7300 H         6 CUB7        0.0000 
     89 DU         19.6600    1.3400   17.8300 H         6 CUB7        0.0000 
     90 DU         19.0300    0.1300   18.4400 H         6 CUB7        0.0000 
     91 DU         18.4000   -1.0800   19.0600 H         6 CUB7        0.0000 
     92 DU         18.3500    1.3200   20.0700 H         6 CUB7        0.0000 
     93 DU         18.9600   -0.6900   20.4000 H         6 CUB7        0.0000 
     94 DU         18.2700    0.5000   22.0200 H         6 CUB7        0.0000 
     95 DU         19.5100   -0.3000   21.7400 H         6 CUB7        0.0000 
@<TRIPOS>BOND
@<TRIPOS>SUBSTRUCTURE
     1 SER1        1 GROUP   
     2 ALA2       23 GROUP   
     3 ASP3       32 GROUP   
     4 PHE5       56 GROUP   
     5 GLY6       67 GROUP   
     6 CUB7       87 GROUP   
@<TRIPOS>SET

