#    Name: 6v4l_1_AGS_CAVITY_N1_ALL
#    Modification time : Fri May 22 19:29:19 2020

@<TRIPOS>MOLECULE
6v4l_1_AGS_CAVITY_N1_ALL
   71     0     5     0     0
SMALL
NO_CHARGES


@<TRIPOS>ATOM
      1 OG         -8.3400  -60.7200   -6.4000 O.3       1 SER1        0.0000 
      2 OG         -7.7000  -62.4200   -5.3000 O.3       1 SER1        0.0000 
      3 OG         -8.8200  -61.4400   -5.1700 O.3       1 SER1        0.0000 
      4 O          -6.1500  -64.1800  -13.0300 O.2       2 ALA2        0.0000 
      5 N          -7.2700  -63.1900  -12.9000 N.am      2 ALA2        0.0000 
      6 O          -6.6300  -64.8900  -11.8000 O.2       2 ALA2        0.0000 
      7 O          -3.6800  -63.5700  -13.5500 O.2       2 ALA2        0.0000 
      8 O          -4.8000  -62.5900  -13.4100 O.2       2 ALA2        0.0000 
      9 O          -5.2800  -63.3000  -12.1800 O.2       2 ALA2        0.0000 
     10 O          -6.2400  -64.7200   -9.7200 O.2       2 ALA2        0.0000 
     11 O          -3.9300  -61.7100  -12.5700 O.2       2 ALA2        0.0000 
     12 O          -2.1600  -64.3900  -11.6000 O.2       2 ALA2        0.0000 
     13 O          -5.8400  -64.5600   -7.6500 O.2       2 ALA2        0.0000 
     14 N          -5.7800  -59.5700  -10.2200 N.am      2 ALA2        0.0000 
     15 O          -1.7700  -64.2300   -9.5200 O.2       2 ALA2        0.0000 
     16 N          -2.8900  -63.2400   -9.3900 N.am      2 ALA2        0.0000 
     17 N          -4.0100  -62.2600   -9.2600 N.am      2 ALA2        0.0000 
     18 N          -6.2600  -60.2900   -8.9900 N.am      2 ALA2        0.0000 
     19 N          -8.5100  -58.3100   -8.7200 N.am      2 ALA2        0.0000 
     20 N          -4.4900  -62.9700   -8.0300 N.am      2 ALA2        0.0000 
     21 O          -4.9700  -63.6800   -6.8000 O.2       2 ALA2        0.0000 
     22 O          -4.2700  -60.3900   -8.2800 O.2       2 ALA2        0.0000 
     23 O          -5.3900  -59.4100   -8.1400 O.2       2 ALA2        0.0000 
     24 N          -4.7500  -61.1000   -7.0500 N.am      2 ALA2        0.0000 
     25 N          -5.8700  -60.1200   -6.9100 N.am      2 ALA2        0.0000 
     26 O          -6.9900  -59.1300   -6.7800 O.2       2 ALA2        0.0000 
     27 O          -8.1200  -58.1500   -6.6500 O.2       2 ALA2        0.0000 
     28 N          -4.1000  -62.8000   -5.9500 N.am      2 ALA2        0.0000 
     29 N          -5.0000  -59.2400   -6.0700 N.am      2 ALA2        0.0000 
     30 O          -5.4800  -59.9500   -4.8400 O.2       2 ALA2        0.0000 
     31 NZ         -2.8000  -62.6900  -12.7000 N.4       3 LYS4        0.0000 
     32 NZ         -3.2800  -63.4100  -11.4700 N.4       3 LYS4        0.0000 
     33 NZ         -4.4100  -62.4200  -11.3400 N.4       3 LYS4        0.0000 
     34 NZ         -4.6600  -60.5600  -10.3500 N.4       3 LYS4        0.0000 
     35 NZ         -5.1400  -61.2700   -9.1200 N.4       3 LYS4        0.0000 
     36 CA         -5.0300  -65.1600  -13.1700 C.3       4 GLY6        0.0000 
     37 CA         -6.4000  -62.3100  -12.0500 C.3       4 GLY6        0.0000 
     38 CA         -6.8800  -63.0300  -10.8200 C.3       4 GLY6        0.0000 
     39 CA         -5.5300  -61.4400  -11.2000 C.3       4 GLY6        0.0000 
     40 CA         -6.0100  -62.1500   -9.9700 C.3       4 GLY6        0.0000 
     41 CA         -6.4900  -62.8600   -8.7400 C.3       4 GLY6        0.0000 
     42 CA         -6.9700  -63.5700   -7.5100 C.3       4 GLY6        0.0000 
     43 CA         -6.7400  -61.0000   -7.7600 C.3       4 GLY6        0.0000 
     44 CA         -7.8600  -60.0100   -7.6300 C.3       4 GLY6        0.0000 
     45 CA         -8.9900  -59.0300   -7.4900 C.3       4 GLY6        0.0000 
     46 CA        -10.1100  -58.0400   -7.3600 C.3       4 GLY6        0.0000 
     47 CA         -7.2200  -61.7100   -6.5300 C.3       4 GLY6        0.0000 
     48 CA         -9.4700  -59.7400   -6.2600 C.3       4 GLY6        0.0000 
     49 CA         -9.9400  -60.4500   -5.0300 C.3       4 GLY6        0.0000 
     50 CA         -6.5100  -58.4200   -8.0100 C.3       4 GLY6        0.0000 
     51 CA         -7.6400  -57.4400   -7.8800 C.3       4 GLY6        0.0000 
     52 CA         -8.7600  -56.4500   -7.7400 C.3       4 GLY6        0.0000 
     53 CA         -9.8800  -55.4700   -7.6100 C.3       4 GLY6        0.0000 
     54 CA         -9.2400  -57.1600   -6.5100 C.3       4 GLY6        0.0000 
     55 CA        -10.3600  -56.1800   -6.3800 C.3       4 GLY6        0.0000 
     56 CA         -6.3500  -60.8300   -5.6800 C.3       4 GLY6        0.0000 
     57 CA         -7.4700  -59.8500   -5.5500 C.3       4 GLY6        0.0000 
     58 CA         -7.9500  -60.5600   -4.3200 C.3       4 GLY6        0.0000 
     59 CA         -7.8900  -55.5700   -6.9000 C.3       4 GLY6        0.0000 
     60 CA         -9.0100  -54.5900   -6.7600 C.3       4 GLY6        0.0000 
     61 CA         -3.8700  -60.2300   -6.2000 C.3       4 GLY6        0.0000 
     62 DU         -4.1600  -64.2900  -12.3200 H         5 CUB7        0.0000 
     63 DU         -4.6300  -65.0000  -11.0900 H         5 CUB7        0.0000 
     64 DU         -5.7600  -64.0100  -10.9500 H         5 CUB7        0.0000 
     65 DU         -3.7600  -64.1200  -10.2400 H         5 CUB7        0.0000 
     66 DU         -4.8900  -63.1300  -10.1100 H         5 CUB7        0.0000 
     67 DU         -4.2400  -64.8300   -9.0100 H         5 CUB7        0.0000 
     68 DU         -5.3700  -63.8500   -8.8800 H         5 CUB7        0.0000 
     69 DU         -5.6200  -61.9800   -7.8900 H         5 CUB7        0.0000 
     70 DU         -6.1000  -62.7000   -6.6600 H         5 CUB7        0.0000 
     71 DU         -5.2200  -61.8200   -5.8200 H         5 CUB7        0.0000 
@<TRIPOS>BOND
@<TRIPOS>SUBSTRUCTURE
     1 SER1        1 GROUP   
     2 ALA2        4 GROUP   
     3 LYS4       31 GROUP   
     4 GLY6       36 GROUP   
     5 CUB7       62 GROUP   
@<TRIPOS>SET

