#    Name: 6v4l_2_AGS_CAVITY_N1_6
#    Modification time : Fri May 22 19:29:25 2020

@<TRIPOS>MOLECULE
6v4l_2_AGS_CAVITY_N1_6
  100     0     6     0     0
SMALL
NO_CHARGES


@<TRIPOS>ATOM
      1 OG         -4.2600  -89.0600  -15.7300 O.3       1 SER1        0.0000 
      2 OG         -5.3800  -88.0800  -15.6000 O.3       1 SER1        0.0000 
      3 N         -10.7200  -89.4500  -16.6500 N.am      2 ALA2        0.0000 
      4 N         -11.2000  -90.1700  -15.4200 N.am      2 ALA2        0.0000 
      5 N         -11.4500  -88.3000  -14.4400 N.am      2 ALA2        0.0000 
      6 O         -12.5800  -87.3200  -14.3000 O.2       2 ALA2        0.0000 
      7 N         -13.6400  -81.3400  -16.7400 N.am      2 ALA2        0.0000 
      8 N         -12.9900  -83.0400  -15.6500 N.am      2 ALA2        0.0000 
      9 O         -15.2400  -81.0700  -15.3800 O.2       2 ALA2        0.0000 
     10 N         -12.3500  -84.7400  -14.5500 N.am      2 ALA2        0.0000 
     11 O         -13.4700  -83.7500  -14.4200 O.2       2 ALA2        0.0000 
     12 O         -11.7000  -86.4400  -13.4500 O.2       2 ALA2        0.0000 
     13 O         -12.8300  -85.4500  -13.3200 O.2       2 ALA2        0.0000 
     14 N         -12.7700  -80.4700  -15.9000 N.am      2 ALA2        0.0000 
     15 N         -12.1200  -82.1600  -14.8000 N.am      2 ALA2        0.0000 
     16 N         -13.2400  -81.1800  -14.6700 N.am      2 ALA2        0.0000 
     17 O         -14.3700  -80.1900  -14.5300 O.2       2 ALA2        0.0000 
     18 O          -9.2300  -85.8300  -13.9700 O.2       2 ALA2        0.0000 
     19 N         -10.3500  -84.8500  -13.8400 N.am      2 ALA2        0.0000 
     20 N         -11.4800  -83.8600  -13.7000 N.am      2 ALA2        0.0000 
     21 N         -12.6000  -82.8800  -13.5700 N.am      2 ALA2        0.0000 
     22 O         -10.8300  -85.5600  -12.6100 O.2       2 ALA2        0.0000 
     23 N         -11.9600  -84.5700  -12.4700 N.am      2 ALA2        0.0000 
     24 O         -12.5400  -77.8900  -16.1500 O.2       2 ALA2        0.0000 
     25 N         -11.8900  -79.5900  -15.0500 N.am      2 ALA2        0.0000 
     26 O         -13.0200  -78.6000  -14.9200 O.2       2 ALA2        0.0000 
     27 N         -12.3700  -80.3000  -13.8200 N.am      2 ALA2        0.0000 
     28 O         -13.5000  -79.3100  -13.6900 O.2       2 ALA2        0.0000 
     29 O          -8.3600  -84.9500  -13.1200 O.2       2 ALA2        0.0000 
     30 N         -12.8500  -81.0100  -12.5900 N.am      2 ALA2        0.0000 
     31 N         -13.9800  -80.0300  -12.4600 N.am      2 ALA2        0.0000 
     32 O          -8.8400  -85.6700  -11.8900 O.2       2 ALA2        0.0000 
     33 O          -9.9600  -84.6800  -11.7600 O.2       2 ALA2        0.0000 
     34 O         -11.0800  -83.7000  -11.6300 O.2       2 ALA2        0.0000 
     35 O         -12.3100  -75.3100  -16.3900 O.2       2 ALA2        0.0000 
     36 O         -12.7900  -76.0300  -15.1600 O.2       2 ALA2        0.0000 
     37 O         -12.1500  -77.7200  -14.0700 O.2       2 ALA2        0.0000 
     38 N         -11.5000  -79.4200  -12.9700 N.am      2 ALA2        0.0000 
     39 N         -14.2300  -78.1600  -11.4700 N.am      2 ALA2        0.0000 
     40 O         -10.8000  -76.1300  -14.4500 O.2       2 ALA2        0.0000 
     41 O         -11.9200  -75.1500  -14.3200 O.2       2 ALA2        0.0000 
     42 O         -11.2700  -76.8500  -13.2200 O.2       2 ALA2        0.0000 
     43 OD1        -7.8600  -88.6800  -15.0800 O.co2     3 ASP3        0.0000 
     44 OD1        -8.9800  -87.7000  -14.9500 O.co2     3 ASP3        0.0000 
     45 OD1        -9.4600  -88.4100  -13.7200 O.co2     3 ASP3        0.0000 
     46 OD1       -10.5800  -87.4200  -13.5900 O.co2     3 ASP3        0.0000 
     47 OD1        -4.7400  -89.7700  -14.5000 O.co2     3 ASP3        0.0000 
     48 OD1        -5.8600  -88.7900  -14.3700 O.co2     3 ASP3        0.0000 
     49 OD1        -6.9800  -87.8000  -14.2400 O.co2     3 ASP3        0.0000 
     50 OD1        -8.1100  -86.8200  -14.1000 O.co2     3 ASP3        0.0000 
     51 OD1        -9.7100  -86.5400  -12.7400 O.co2     3 ASP3        0.0000 
     52 OD1       -10.1900  -87.2600  -11.5100 O.co2     3 ASP3        0.0000 
     53 OD1        -7.2400  -85.9400  -13.2500 O.co2     3 ASP3        0.0000 
     54 NZ         -6.4800  -91.5300  -16.2000 N.4       4 LYS4        0.0000 
     55 NZ        -11.9300  -89.0100  -13.2100 N.4       4 LYS4        0.0000 
     56 NZ        -13.0500  -88.0300  -13.0700 N.4       4 LYS4        0.0000 
     57 NZ         -4.0100  -90.9200  -16.7100 N.4       4 LYS4        0.0000 
     58 NZ         -5.6100  -90.6500  -15.3500 N.4       4 LYS4        0.0000 
     59 NZ         -6.0900  -91.3600  -14.1200 N.4       4 LYS4        0.0000 
     60 NZ        -11.0600  -88.1400  -12.3600 N.4       4 LYS4        0.0000 
     61 NZ        -12.1800  -87.1500  -12.2200 N.4       4 LYS4        0.0000 
     62 NZ        -13.3100  -86.1600  -12.0900 N.4       4 LYS4        0.0000 
     63 NZ         -6.5100  -87.0900  -15.4700 N.4       4 LYS4        0.0000 
     64 NZ        -10.6700  -87.9700  -10.2800 N.4       4 LYS4        0.0000 
     65 NZ        -11.7900  -86.9800  -10.1500 N.4       4 LYS4        0.0000 
     66 NZ        -13.6600  -76.9000  -16.0100 N.4       4 LYS4        0.0000 
     67 NZ        -14.1400  -77.6200  -14.7800 N.4       4 LYS4        0.0000 
     68 NZ         -6.7600  -85.2300  -14.4800 N.4       4 LYS4        0.0000 
     69 NZ         -4.9900  -87.9100  -13.5200 N.4       4 LYS4        0.0000 
     70 NZ         -6.1100  -86.9200  -13.3900 N.4       4 LYS4        0.0000 
     71 NZ        -13.2700  -76.7400  -13.9300 N.4       4 LYS4        0.0000 
     72 NZ        -13.7500  -77.4500  -12.7000 N.4       4 LYS4        0.0000 
     73 CA         -9.6000  -90.4400  -16.7800 C.3       5 GLY6        0.0000 
     74 CA         -6.0000  -90.8200  -17.4300 C.3       5 GLY6        0.0000 
     75 CA         -8.2500  -88.8500  -17.1600 C.3       5 GLY6        0.0000 
     76 CA         -7.6000  -90.5400  -16.0700 C.3       5 GLY6        0.0000 
     77 CA         -8.7300  -89.5600  -15.9300 C.3       5 GLY6        0.0000 
     78 CA         -9.8500  -88.5700  -15.8000 C.3       5 GLY6        0.0000 
     79 CA        -10.9700  -87.5900  -15.6700 C.3       5 GLY6        0.0000 
     80 CA        -12.1000  -86.6000  -15.5300 C.3       5 GLY6        0.0000 
     81 CA        -10.3300  -89.2900  -14.5700 C.3       5 GLY6        0.0000 
     82 CA        -14.7600  -80.3600  -16.6100 C.3       5 GLY6        0.0000 
     83 CA         -5.1300  -89.9400  -16.5800 C.3       5 GLY6        0.0000 
     84 CA         -6.2500  -88.9500  -16.4500 C.3       5 GLY6        0.0000 
     85 CA         -7.3800  -87.9700  -16.3100 C.3       5 GLY6        0.0000 
     86 CA         -8.5000  -86.9800  -16.1800 C.3       5 GLY6        0.0000 
     87 CA        -14.1200  -82.0600  -15.5100 C.3       5 GLY6        0.0000 
     88 CA         -6.7300  -89.6700  -15.2200 C.3       5 GLY6        0.0000 
     89 CA        -10.1000  -86.7100  -14.8200 C.3       5 GLY6        0.0000 
     90 CA        -13.8900  -79.4800  -15.7600 C.3       5 GLY6        0.0000 
     91 CA        -15.0100  -78.5000  -15.6300 C.3       5 GLY6        0.0000 
     92 CA         -7.6300  -86.1000  -15.3300 C.3       5 GLY6        0.0000 
     93 CA        -15.4900  -79.2100  -14.4000 C.3       5 GLY6        0.0000 
     94 CA        -13.7200  -81.8900  -13.4400 C.3       5 GLY6        0.0000 
     95 CA        -13.0800  -83.5900  -12.3400 C.3       5 GLY6        0.0000 
     96 CA        -13.5600  -84.3000  -11.1100 C.3       5 GLY6        0.0000 
     97 CA        -14.6200  -78.3300  -13.5500 C.3       5 GLY6        0.0000 
     98 DU        -11.3100  -86.2700  -11.3800 H         6 CUB7        0.0000 
     99 DU        -12.4400  -85.2900  -11.2400 H         6 CUB7        0.0000 
    100 DU        -12.6200  -78.4400  -12.8400 H         6 CUB7        0.0000 
@<TRIPOS>BOND
@<TRIPOS>SUBSTRUCTURE
     1 SER1        1 GROUP   
     2 ALA2        3 GROUP   
     3 ASP3       43 GROUP   
     4 LYS4       54 GROUP   
     5 GLY6       73 GROUP   
     6 CUB7       98 GROUP   
@<TRIPOS>SET

