#    Name: 6v4l_2_AGS
#    Modification time : Fri May 22 19:29:24 2020

@<TRIPOS>MOLECULE
6v4l_2_AGS
   31    33     1     0     0
SMALL
NO_CHARGES


@<TRIPOS>ATOM
      1 PG        -14.1010  -80.6030  -15.2870 P.3       1 AGS502      0.0000 
      2 S1G       -13.8790  -81.8700  -16.7420 S.2       1 AGS502      0.0000 
      3 O2G       -13.3540  -79.2860  -15.6350 O.3       1 AGS502      0.0000 
      4 O3G       -15.6120  -80.3010  -15.1020 O.3       1 AGS502      0.0000 
      5 PB        -12.9950  -80.1210  -12.9050 P.3       1 AGS502      0.0000 
      6 O1B       -12.7320  -78.8260  -13.5680 O.co2     1 AGS502      0.0000 
      7 O2B       -14.0440  -80.0200  -11.7950 O.co2     1 AGS502      0.0000 
      8 O3B       -13.5560  -81.1620  -13.9460 O.3       1 AGS502      0.0000 
      9 PA        -11.8700  -81.7110  -11.0430 P.3       1 AGS502      0.0000 
     10 O1A       -10.5820  -81.9460  -10.3460 O.co2     1 AGS502      0.0000 
     11 O2A       -12.9840  -81.1450  -10.1600 O.co2     1 AGS502      0.0000 
     12 O3A       -11.6990  -80.6980  -12.2320 O.3       1 AGS502      0.0000 
     13 O5'       -12.3130  -83.0720  -11.7120 O.3       1 AGS502      0.0000 
     14 C5'       -11.3500  -83.9110  -12.3770 C.3       1 AGS502      0.0000 
     15 C4'       -11.8460  -85.3240  -12.3020 C.3       1 AGS502      0.0000 
     16 O4'       -11.6990  -86.0150  -13.5520 O.3       1 AGS502      0.0000 
     17 C3'       -11.0520  -86.2290  -11.3820 C.3       1 AGS502      0.0000 
     18 O3'       -11.3130  -85.9160  -10.0180 O.3       1 AGS502      0.0000 
     19 C2'       -11.6420  -87.5810  -11.7570 C.3       1 AGS502      0.0000 
     20 O2'       -12.8330  -87.6780  -10.9940 O.3       1 AGS502      0.0000 
     21 C1'       -11.9810  -87.3750  -13.2500 C.3       1 AGS502      0.0000 
     22 N9        -11.2280  -88.2470  -14.1500 N.pl3     1 AGS502      0.0000 
     23 C8        -11.7290  -89.2860  -14.8940 C.2       1 AGS502      0.0000 
     24 N7        -10.8260  -89.9220  -15.6000 N.2       1 AGS502      0.0000 
     25 C5         -9.6440  -89.2640  -15.2910 C.ar      1 AGS502      0.0000 
     26 C6         -8.3140  -89.4560  -15.7130 C.ar      1 AGS502      0.0000 
     27 N6         -7.9380  -90.4050  -16.5740 N.pl3     1 AGS502      0.0000 
     28 N1         -7.3700  -88.6250  -15.2110 N.ar      1 AGS502      0.0000 
     29 C2         -7.7440  -87.6700  -14.3540 C.ar      1 AGS502      0.0000 
     30 N3         -8.9640  -87.3990  -13.8810 N.ar      1 AGS502      0.0000 
     31 C4         -9.8770  -88.2340  -14.3940 C.ar      1 AGS502      0.0000 
@<TRIPOS>BOND
     1    1    2 2    
     2    1    3 1    
     3    1    4 1    
     4    1    8 1    
     5    5    6 ar   
     6    5    7 ar   
     7    5    8 1    
     8    5   12 1    
     9    9   10 ar   
    10    9   11 ar   
    11    9   12 1    
    12    9   13 1    
    13   13   14 1    
    14   14   15 1    
    15   15   16 1    
    16   15   17 1    
    17   16   21 1    
    18   17   18 1    
    19   17   19 1    
    20   19   20 1    
    21   19   21 1    
    22   21   22 1    
    23   22   23 1    
    24   22   31 1    
    25   23   24 2    
    26   24   25 1    
    27   25   26 ar   
    28   25   31 ar   
    29   26   27 1    
    30   26   28 ar   
    31   28   29 ar   
    32   29   30 ar   
    33   30   31 ar   
@<TRIPOS>SUBSTRUCTURE
     1 AGS502      1 GROUP   
@<TRIPOS>SET

