#    Name: 6v4l_1_AGS
#    Modification time : Fri May 22 19:29:18 2020

@<TRIPOS>MOLECULE
6v4l_1_AGS
   31    33     1     0     0
SMALL
NO_CHARGES


@<TRIPOS>ATOM
      1 PG         -8.1390  -67.9160  -16.2200 P.3       1 AGS501      0.0000 
      2 S1G        -7.4990  -66.4950  -17.3720 S.2       1 AGS501      0.0000 
      3 O2G        -9.6280  -68.2160  -16.5380 O.3       1 AGS501      0.0000 
      4 O3G        -7.2820  -69.1940  -16.4410 O.3       1 AGS501      0.0000 
      5 PB         -7.2730  -68.4580  -13.7610 P.3       1 AGS501      0.0000 
      6 O1B        -8.1230  -69.6480  -13.5620 O.co2     1 AGS501      0.0000 
      7 O2B        -5.9320  -68.7950  -14.4190 O.co2     1 AGS501      0.0000 
      8 O3B        -7.9830  -67.4620  -14.7460 O.3       1 AGS501      0.0000 
      9 PA         -5.4240  -67.5160  -11.9770 P.3       1 AGS501      0.0000 
     10 O1A        -5.0010  -68.4680  -10.9260 O.co2     1 AGS501      0.0000 
     11 O2A        -4.5900  -67.5610  -13.2590 O.co2     1 AGS501      0.0000 
     12 O3A        -6.9320  -67.7420  -12.3950 O.3       1 AGS501      0.0000 
     13 O5'        -5.4210  -66.0670  -11.3890 O.3       1 AGS501      0.0000 
     14 C5'        -4.2440  -65.2520  -11.4100 C.3       1 AGS501      0.0000 
     15 C4'        -4.7230  -63.8650  -11.7340 C.3       1 AGS501      0.0000 
     16 O4'        -5.7630  -63.4960  -10.8090 O.3       1 AGS501      0.0000 
     17 C3'        -3.6720  -62.7660  -11.6380 C.3       1 AGS501      0.0000 
     18 O3'        -3.9090  -61.7350  -12.5920 O.3       1 AGS501      0.0000 
     19 C2'        -3.8170  -62.2650  -10.1970 C.3       1 AGS501      0.0000 
     20 O2'        -3.6710  -60.8570  -10.0740 O.3       1 AGS501      0.0000 
     21 C1'        -5.2610  -62.6010   -9.8370 C.3       1 AGS501      0.0000 
     22 N9         -5.3930  -63.1740   -8.5070 N.pl3     1 AGS501      0.0000 
     23 C8         -4.9770  -64.4060   -8.0770 C.2       1 AGS501      0.0000 
     24 N7         -5.1980  -64.6290   -6.8040 N.2       1 AGS501      0.0000 
     25 C5         -5.7780  -63.4500   -6.3600 C.ar      1 AGS501      0.0000 
     26 C6         -6.2500  -63.0400   -5.0980 C.ar      1 AGS501      0.0000 
     27 N6         -6.2070  -63.8080   -4.0060 N.pl3     1 AGS501      0.0000 
     28 N1         -6.7720  -61.7960   -4.9970 N.ar      1 AGS501      0.0000 
     29 C2         -6.8160  -61.0260   -6.0870 C.ar      1 AGS501      0.0000 
     30 N3         -6.4040  -61.3040   -7.3260 N.ar      1 AGS501      0.0000 
     31 C4         -5.8910  -62.5400   -7.3960 C.ar      1 AGS501      0.0000 
@<TRIPOS>BOND
     1    1    2 2    
     2    1    3 1    
     3    1    4 1    
     4    1    8 1    
     5    5    6 ar   
     6    5    7 ar   
     7    5    8 1    
     8    5   12 1    
     9    9   10 ar   
    10    9   11 ar   
    11    9   12 1    
    12    9   13 1    
    13   13   14 1    
    14   14   15 1    
    15   15   16 1    
    16   15   17 1    
    17   16   21 1    
    18   17   18 1    
    19   17   19 1    
    20   19   20 1    
    21   19   21 1    
    22   21   22 1    
    23   22   23 1    
    24   22   31 1    
    25   23   24 2    
    26   24   25 1    
    27   25   26 ar   
    28   25   31 ar   
    29   26   27 1    
    30   26   28 ar   
    31   28   29 ar   
    32   29   30 ar   
    33   30   31 ar   
@<TRIPOS>SUBSTRUCTURE
     1 AGS501      1 GROUP   
@<TRIPOS>SET

