#    Name: 6a2l_3_NAP
#    Modification time : Fri May 22 19:27:06 2020

@<TRIPOS>MOLECULE
6a2l_3_NAP
   48    52     1     0     1
SMALL
NO_CHARGES


@<TRIPOS>ATOM
      1 PA         22.5860  -37.7130    4.6950 P.3       1 NAP702      0.0000 
      2 O1A        21.4570  -37.5000    5.6900 O.co2     1 NAP702      0.0000 
      3 O2A        23.9590  -37.1040    4.8710 O.co2     1 NAP702      0.0000 
      4 O5B        22.8280  -39.2980    4.5840 O.3       1 NAP702      0.0000 
      5 C5B        21.6950  -40.1460    4.4270 C.3       1 NAP702      0.0000 
      6 C4B        22.1210  -41.5690    4.7100 C.3       1 NAP702      0.0000 
      7 O4B        22.2720  -41.7560    6.1230 O.3       1 NAP702      0.0000 
      8 C3B        21.0710  -42.5730    4.2390 C.3       1 NAP702      0.0000 
      9 O3B        21.2100  -42.9350    2.8560 O.3       1 NAP702      0.0000 
     10 C2B        21.2720  -43.7340    5.2020 C.3       1 NAP702      0.0000 
     11 O2B        22.2920  -44.6380    4.7470 O.3       1 NAP702      0.0000 
     12 C1B        21.7170  -43.0260    6.4830 C.3       1 NAP702      0.0000 
     13 N9A        20.5060  -42.8800    7.3300 N.pl3     1 NAP702      0.0000 
     14 C8A        19.5350  -41.9490    7.2140 C.2       1 NAP702      0.0000 
     15 N7A        18.5580  -42.1470    8.1320 N.2       1 NAP702      0.0000 
     16 C5A        18.8950  -43.2320    8.8550 C.ar      1 NAP702      0.0000 
     17 C6A        18.3150  -44.0000    9.9880 C.ar      1 NAP702      0.0000 
     18 N6A        17.1390  -43.6440   10.5610 N.pl3     1 NAP702      0.0000 
     19 N1A        19.0080  -45.0770   10.4330 N.ar      1 NAP702      0.0000 
     20 C2A        20.1770  -45.4630    9.8820 C.ar      1 NAP702      0.0000 
     21 N3A        20.7600  -44.8130    8.8630 N.ar      1 NAP702      0.0000 
     22 C4A        20.1780  -43.7150    8.3150 C.ar      1 NAP702      0.0000 
     23 O3         22.0620  -37.3880    3.1990 O.3       1 NAP702      0.0000 
     24 PN         20.9190  -36.3160    2.7930 P.3       1 NAP702      0.0000 
     25 O1N        20.4710  -36.6710    1.3950 O.co2     1 NAP702      0.0000 
     26 O2N        19.8510  -36.1940    3.8580 O.co2     1 NAP702      0.0000 
     27 O5D        21.7710  -34.9490    2.7440 O.3       1 NAP702      0.0000 
     28 C5D        23.1050  -34.9440    2.2360 C.3       1 NAP702      0.0000 
     29 C4D        23.4290  -33.5910    1.6040 C.3       1 NAP702      0.0000 
     30 O4D        23.4400  -32.5590    2.6010 O.3       1 NAP702      0.0000 
     31 C3D        24.8000  -33.5980    0.9370 C.3       1 NAP702      0.0000 
     32 O3D        24.6960  -33.0020   -0.3580 O.3       1 NAP702      0.0000 
     33 C2D        25.6850  -32.7460    1.8260 C.3       1 NAP702      0.0000 
     34 O2D        26.6160  -31.9720    1.0630 O.3       1 NAP702      0.0000 
     35 C1D        24.6870  -31.8570    2.5590 C.3       1 NAP702      0.0000 
     36 N1N        25.1210  -31.4600    3.9030 N.pl3     1 NAP702      0.0000 
     37 C2N        24.8580  -30.1950    4.2490 C.ar      1 NAP702      0.0000 
     38 C3N        25.2200  -29.6880    5.4950 C.ar      1 NAP702      0.0000 
     39 C7N        24.8890  -28.2560    5.7970 C.2       1 NAP702      0.0000 
     40 O7N        24.4170  -27.9640    6.8810 O.2       1 NAP702      0.0000 
     41 N7N        25.0900  -27.3350    4.8500 N.am      1 NAP702      0.0000 
     42 C4N        25.8700  -30.5190    6.4090 C.ar      1 NAP702      0.0000 
     43 C5N        26.1360  -31.8340    6.0250 C.ar      1 NAP702      0.0000 
     44 C6N        25.7450  -32.2930    4.7620 C.ar      1 NAP702      0.0000 
     45 P2B        22.0490  -46.1960    4.3930 P.3       1 NAP702      0.0000 
     46 O1X        22.6150  -46.3270    2.9950 O.co2     1 NAP702      0.0000 
     47 O2X        22.8850  -46.8980    5.4320 O.co2     1 NAP702      0.0000 
     48 O3X        20.5550  -46.4440    4.5200 O.co2     1 NAP702      0.0000 
@<TRIPOS>BOND
     1    1    2 ar   
     2    1    3 ar   
     3    1    4 1    
     4    1   23 1    
     5    4    5 1    
     6    5    6 1    
     7    6    7 1    
     8    6    8 1    
     9    7   12 1    
    10    8    9 1    
    11    8   10 1    
    12   10   11 1    
    13   10   12 1    
    14   11   45 1    
    15   12   13 1    
    16   13   14 1    
    17   13   22 1    
    18   14   15 2    
    19   15   16 1    
    20   16   17 ar   
    21   16   22 ar   
    22   17   18 1    
    23   17   19 ar   
    24   19   20 ar   
    25   20   21 ar   
    26   21   22 ar   
    27   23   24 1    
    28   24   25 ar   
    29   24   26 ar   
    30   24   27 1    
    31   27   28 1    
    32   28   29 1    
    33   29   30 1    
    34   29   31 1    
    35   30   35 1    
    36   31   32 1    
    37   31   33 1    
    38   33   34 1    
    39   33   35 1    
    40   35   36 1    
    41   36   37 ar   
    42   36   44 ar   
    43   37   38 ar   
    44   38   39 1    
    45   38   42 ar   
    46   39   40 2    
    47   39   41 am   
    48   42   43 ar   
    49   43   44 ar   
    50   45   46 ar   
    51   45   47 ar   
    52   45   48 ar   
@<TRIPOS>SUBSTRUCTURE
     1 NAP702      1 GROUP   
@<TRIPOS>SET
ATOM$ORANGE STATIC     ATOMS   COLORGROUP SYSTEM 
42 5 5 6 6 8 8 10 10 12 12 14 14 16 16 17 17 20 \
20 22 22 28 28 29 29 31 31 33 33 35 35 37 37 38 38 39 \
39 42 42 43 43 44 44 

