#    Name: 6a2l_4_UMP
#    Modification time : Fri May 22 19:27:21 2020

@<TRIPOS>MOLECULE
6a2l_4_UMP
   20    21     1     0     1
SMALL
NO_CHARGES


@<TRIPOS>ATOM
      1 N1         14.8670   14.3410    9.1560 N.am      1 UMP703      0.0000 
      2 C2         15.6740   13.1610    9.2260 C.2       1 UMP703      0.0000 
      3 N3         16.4790   12.8870    8.1770 N.am      1 UMP703      0.0000 
      4 C4         16.5330   13.6510    7.0680 C.2       1 UMP703      0.0000 
      5 C5         15.7360   14.7850    6.9820 C.2       1 UMP703      0.0000 
      6 C6         14.8870   15.0790    8.0350 C.2       1 UMP703      0.0000 
      7 O2         15.6900   12.3780   10.2250 O.2       1 UMP703      0.0000 
      8 O4         17.2800   13.3610    6.1000 O.2       1 UMP703      0.0000 
      9 C1'        13.9100   14.7760   10.2020 C.3       1 UMP703      0.0000 
     10 C2'        14.4740   15.1660   11.5570 C.3       1 UMP703      0.0000 
     11 C3'        13.3240   16.0190   12.1090 C.3       1 UMP703      0.0000 
     12 C4'        12.8500   16.7880   10.8840 C.3       1 UMP703      0.0000 
     13 O3'        12.2570   15.1760   12.6510 O.3       1 UMP703      0.0000 
     14 O4'        13.1680   15.9410    9.7910 O.3       1 UMP703      0.0000 
     15 C5'        13.5570   18.1340   10.6560 C.3       1 UMP703      0.0000 
     16 O5'        13.0250   19.0880   11.5870 O.3       1 UMP703      0.0000 
     17 P          13.8900   20.1650   12.3370 P.3       1 UMP703      0.0000 
     18 OP1        12.9580   21.0770   13.0530 O.co2     1 UMP703      0.0000 
     19 OP2        14.6500   19.3070   13.2860 O.co2     1 UMP703      0.0000 
     20 OP3        14.6040   20.8370   11.2050 O.co2     1 UMP703      0.0000 
@<TRIPOS>BOND
     1    1    2 1    
     2    1    6 1    
     3    1    9 1    
     4    2    3 1    
     5    2    7 2    
     6    3    4 1    
     7    4    5 1    
     8    4    8 2    
     9    5    6 2    
    10    9   10 1    
    11    9   14 1    
    12   10   11 1    
    13   11   12 1    
    14   11   13 1    
    15   12   14 1    
    16   12   15 1    
    17   15   16 1    
    18   16   17 1    
    19   17   18 ar   
    20   17   19 ar   
    21   17   20 ar   
@<TRIPOS>SUBSTRUCTURE
     1 UMP703      1 GROUP   
@<TRIPOS>SET
ATOM$ORANGE STATIC     ATOMS   COLORGROUP SYSTEM 
18 2 2 4 4 5 5 6 6 9 9 10 10 11 11 12 12 15 \
15 

