#    Name: 6a2l_2_UMP
#    Modification time : Fri May 22 19:26:59 2020

@<TRIPOS>MOLECULE
6a2l_2_UMP
   20    21     1     0     1
SMALL
NO_CHARGES


@<TRIPOS>ATOM
      1 N1         44.0600   20.6360   19.0580 N.am      1 UMP703      0.0000 
      2 C2         43.2400   20.1460   20.1430 C.2       1 UMP703      0.0000 
      3 N3         42.4410   20.9930   20.7890 N.am      1 UMP703      0.0000 
      4 C4         42.4050   22.3000   20.4910 C.2       1 UMP703      0.0000 
      5 C5         43.2070   22.8260   19.4590 C.2       1 UMP703      0.0000 
      6 C6         44.0440   21.9550   18.7520 C.2       1 UMP703      0.0000 
      7 O2         43.2260   18.9610   20.5430 O.2       1 UMP703      0.0000 
      8 O4         41.6330   23.0340   21.1410 O.2       1 UMP703      0.0000 
      9 C1'        45.0110   19.7820   18.3350 C.3       1 UMP703      0.0000 
     10 C2'        44.4630   18.6730   17.4490 C.3       1 UMP703      0.0000 
     11 C3'        45.6460   18.5050   16.4930 C.3       1 UMP703      0.0000 
     12 C4'        46.2080   19.9170   16.3160 C.3       1 UMP703      0.0000 
     13 O3'        46.6700   17.6930   17.0930 O.3       1 UMP703      0.0000 
     14 O4'        45.8780   20.5800   17.5310 O.3       1 UMP703      0.0000 
     15 C5'        45.5510   20.6650   15.1430 C.3       1 UMP703      0.0000 
     16 O5'        46.0540   20.0720   13.9410 O.3       1 UMP703      0.0000 
     17 P          45.1850   19.8580   12.6490 P.3       1 UMP703      0.0000 
     18 OP1        46.0730   19.3500   11.5380 O.co2     1 UMP703      0.0000 
     19 OP2        44.3520   18.7030   13.1200 O.co2     1 UMP703      0.0000 
     20 OP3        44.5430   21.2190   12.4840 O.co2     1 UMP703      0.0000 
@<TRIPOS>BOND
     1    1    2 1    
     2    1    6 1    
     3    1    9 1    
     4    2    3 1    
     5    2    7 2    
     6    3    4 1    
     7    4    5 1    
     8    4    8 2    
     9    5    6 2    
    10    9   10 1    
    11    9   14 1    
    12   10   11 1    
    13   11   12 1    
    14   11   13 1    
    15   12   14 1    
    16   12   15 1    
    17   15   16 1    
    18   16   17 1    
    19   17   18 ar   
    20   17   19 ar   
    21   17   20 ar   
@<TRIPOS>SUBSTRUCTURE
     1 UMP703      1 GROUP   
@<TRIPOS>SET
ATOM$ORANGE STATIC     ATOMS   COLORGROUP SYSTEM 
18 2 2 4 4 5 5 6 6 9 9 10 10 11 11 12 12 15 \
15 

