#    Name: 6a2l_2_UMP_CAVITY_N1_4
#    Modification time : Fri May 22 19:27:01 2020

@<TRIPOS>MOLECULE
6a2l_2_UMP_CAVITY_N1_4
   86     0     7     0     0
SMALL
NO_CHARGES


@<TRIPOS>ATOM
      1 OG         45.4100   19.1600   14.8200 O.3       1 SER1        0.0000 
      2 OG         46.8300   18.1600   17.6800 O.3       1 SER1        0.0000 
      3 OG         44.9100   19.0000   17.3600 O.3       1 SER1        0.0000 
      4 OG         46.2700   19.1900   16.7600 O.3       1 SER1        0.0000 
      5 OG         47.6300   19.3900   16.1500 O.3       1 SER1        0.0000 
      6 OG         48.4800   19.4300   18.0900 O.3       1 SER1        0.0000 
      7 OG         49.8400   19.6200   17.4800 O.3       1 SER1        0.0000 
      8 OG         41.3900   24.9100   18.8100 O.3       1 SER1        0.0000 
      9 OG         42.7500   25.1100   18.2100 O.3       1 SER1        0.0000 
     10 OG         41.6800   25.9800   19.8200 O.3       1 SER1        0.0000 
     11 N          43.5500   18.8000   17.9700 N.am      2 ALA2        0.0000 
     12 N          44.3400   20.0300   16.4300 N.am      2 ALA2        0.0000 
     13 N          45.7000   20.2300   15.8300 N.am      2 ALA2        0.0000 
     14 N          45.1400   21.2600   14.9000 N.am      2 ALA2        0.0000 
     15 O          42.4900   19.6800   19.5800 O.2       2 ALA2        0.0000 
     16 N          43.8500   19.8700   18.9800 N.am      2 ALA2        0.0000 
     17 N          44.6400   21.1000   17.4400 N.am      2 ALA2        0.0000 
     18 N          45.4300   22.3300   15.9000 N.am      2 ALA2        0.0000 
     19 N          42.7800   20.7500   20.5900 N.am      2 ALA2        0.0000 
     20 N          43.5800   21.9700   19.0600 N.am      2 ALA2        0.0000 
     21 N          44.9400   22.1700   18.4500 N.am      2 ALA2        0.0000 
     22 N          44.3700   23.2000   17.5200 N.am      2 ALA2        0.0000 
     23 N          42.4500   24.0400   17.2000 N.am      2 ALA2        0.0000 
     24 N          43.8100   24.2400   16.5900 N.am      2 ALA2        0.0000 
     25 N          43.0800   21.8200   21.6000 N.am      2 ALA2        0.0000 
     26 N          43.3100   24.0800   19.1300 N.am      2 ALA2        0.0000 
     27 O          43.3800   22.8800   22.6100 O.2       2 ALA2        0.0000 
     28 O          42.8100   23.9200   21.6800 O.2       2 ALA2        0.0000 
     29 O          44.4000   26.3800   18.6100 O.2       2 ALA2        0.0000 
     30 O          43.6700   23.9500   23.6200 O.2       2 ALA2        0.0000 
     31 O          41.7500   24.7900   23.2900 O.2       2 ALA2        0.0000 
     32 O          43.1100   24.9900   22.6900 O.2       2 ALA2        0.0000 
     33 OD1        45.9700   18.1200   15.7500 O.co2     3 ASP3        0.0000 
     34 OD1        48.9800   19.5900   15.5400 O.co2     3 ASP3        0.0000 
     35 OD1        47.0600   20.4200   15.2200 O.co2     3 ASP3        0.0000 
     36 OD1        47.9200   20.4600   17.1600 O.co2     3 ASP3        0.0000 
     37 OD1        49.2800   20.6600   16.5500 O.co2     3 ASP3        0.0000 
     38 OD1        47.3600   21.4900   16.2300 O.co2     3 ASP3        0.0000 
     39 OD1        46.7900   22.5300   15.3000 O.co2     3 ASP3        0.0000 
     40 OD1        49.0100   22.7600   16.6300 O.co2     3 ASP3        0.0000 
     41 NZ         47.1300   19.2300   18.6900 N.4       4 LYS4        0.0000 
     42 NZ         47.4200   20.3000   19.7000 N.4       4 LYS4        0.0000 
     43 NZ         48.7800   20.5000   19.1000 N.4       4 LYS4        0.0000 
     44 NZ         46.3600   21.1700   21.3200 N.4       4 LYS4        0.0000 
     45 NZ         47.7200   21.3700   20.7100 N.4       4 LYS4        0.0000 
     46 NZ         41.1900   25.8200   22.3600 N.4       4 LYS4        0.0000 
     47 NZ         42.5400   26.0200   21.7600 N.4       4 LYS4        0.0000 
     48 CZ         42.5200   22.8500   20.6700 C.ar      5 PHE5        0.0000 
     49 CZ         41.9500   23.8800   19.7400 C.ar      5 PHE5        0.0000 
     50 CZ         42.2500   24.9500   20.7500 C.ar      5 PHE5        0.0000 
     51 CZ         40.3300   25.7900   20.4300 C.ar      5 PHE5        0.0000 
     52 CZ         43.0400   26.1800   19.2100 C.ar      5 PHE5        0.0000 
     53 CA         45.4700   17.9700   18.2900 C.3       6 GLY6        0.0000 
     54 CA         45.2000   20.0700   18.3700 C.3       6 GLY6        0.0000 
     55 CA         44.7100   19.9100   20.9200 C.3       6 GLY6        0.0000 
     56 CA         46.0600   20.1000   20.3100 C.3       6 GLY6        0.0000 
     57 CA         45.7300   23.4000   16.9100 C.3       6 GLY6        0.0000 
     58 CA         47.0900   23.6000   16.3100 C.3       6 GLY6        0.0000 
     59 CA         45.0000   20.9800   21.9200 C.3       6 GLY6        0.0000 
     60 CA         44.4400   22.0100   20.9900 C.3       6 GLY6        0.0000 
     61 CA         46.0300   24.4700   17.9200 C.3       6 GLY6        0.0000 
     62 CA         44.1000   25.3100   17.6000 C.3       6 GLY6        0.0000 
     63 CA         45.3000   22.0500   22.9300 C.3       6 GLY6        0.0000 
     64 CA         44.4700   25.1800   22.0800 C.3       6 GLY6        0.0000 
     65 CA         43.9000   26.2200   21.1500 C.3       6 GLY6        0.0000 
     66 DU         46.5600   20.2600   17.7600 H         7 CUB7        0.0000 
     67 DU         46.0000   21.3000   16.8300 H         7 CUB7        0.0000 
     68 DU         44.1400   20.9400   19.9900 H         7 CUB7        0.0000 
     69 DU         45.5000   21.1400   19.3800 H         7 CUB7        0.0000 
     70 DU         46.8600   21.3300   18.7700 H         7 CUB7        0.0000 
     71 DU         48.2200   21.5300   18.1700 H         7 CUB7        0.0000 
     72 DU         49.5700   21.7300   17.5600 H         7 CUB7        0.0000 
     73 DU         46.2900   22.3700   17.8400 H         7 CUB7        0.0000 
     74 DU         47.6500   22.5600   17.2400 H         7 CUB7        0.0000 
     75 DU         45.8000   22.2100   20.3900 H         7 CUB7        0.0000 
     76 DU         47.1500   22.4000   19.7800 H         7 CUB7        0.0000 
     77 DU         43.8700   23.0400   20.0600 H         7 CUB7        0.0000 
     78 DU         45.2300   23.2400   19.4600 H         7 CUB7        0.0000 
     79 DU         47.9500   23.6300   18.2500 H         7 CUB7        0.0000 
     80 DU         44.6700   24.2700   18.5300 H         7 CUB7        0.0000 
     81 DU         44.7300   23.0800   22.0000 H         7 CUB7        0.0000 
     82 DU         46.0900   23.2800   21.4000 H         7 CUB7        0.0000 
     83 DU         44.1700   24.1100   21.0700 H         7 CUB7        0.0000 
     84 DU         46.8900   24.5100   19.8600 H         7 CUB7        0.0000 
     85 DU         43.6100   25.1500   20.1400 H         7 CUB7        0.0000 
     86 DU         44.9600   25.3400   19.5400 H         7 CUB7        0.0000 
@<TRIPOS>BOND
@<TRIPOS>SUBSTRUCTURE
     1 SER1        1 GROUP   
     2 ALA2       11 GROUP   
     3 ASP3       33 GROUP   
     4 LYS4       41 GROUP   
     5 PHE5       48 GROUP   
     6 GLY6       53 GROUP   
     7 CUB7       66 GROUP   
@<TRIPOS>SET

