#    Name: 6a2l_1_NAP
#    Modification time : Fri May 22 19:26:43 2020

@<TRIPOS>MOLECULE
6a2l_1_NAP
   48    52     1     0     1
SMALL
NO_CHARGES


@<TRIPOS>ATOM
      1 PA         35.7520    4.2360   68.7340 P.3       1 NAP702      0.0000 
      2 O1A        36.8660    3.5280   68.0200 O.co2     1 NAP702      0.0000 
      3 O2A        34.3220    4.2490   68.2210 O.co2     1 NAP702      0.0000 
      4 O5B        35.6010    3.6040   70.2220 O.3       1 NAP702      0.0000 
      5 C5B        36.7170    3.2540   71.0350 C.3       1 NAP702      0.0000 
      6 C4B        36.1650    2.6250   72.3060 C.3       1 NAP702      0.0000 
      7 O4B        35.6030    1.3340   72.0070 O.3       1 NAP702      0.0000 
      8 C3B        37.2140    2.3830   73.3970 C.3       1 NAP702      0.0000 
      9 O3B        37.4110    3.5440   74.2350 O.3       1 NAP702      0.0000 
     10 C2B        36.6860    1.1260   74.0890 C.3       1 NAP702      0.0000 
     11 O2B        35.4780    1.3560   74.8260 O.3       1 NAP702      0.0000 
     12 C1B        36.0930    0.3510   72.9330 C.3       1 NAP702      0.0000 
     13 N9A        37.0740   -0.5600   72.3020 N.pl3     1 NAP702      0.0000 
     14 C8A        37.7900   -0.3410   71.1830 C.2       1 NAP702      0.0000 
     15 N7A        38.5800   -1.4020   70.8930 N.2       1 NAP702      0.0000 
     16 C5A        38.3970   -2.3270   71.8410 C.ar      1 NAP702      0.0000 
     17 C6A        38.9310   -3.6790   72.1610 C.ar      1 NAP702      0.0000 
     18 N6A        39.8400   -4.3320   71.4120 N.pl3     1 NAP702      0.0000 
     19 N1A        38.4530   -4.2720   73.2660 N.ar      1 NAP702      0.0000 
     20 C2A        37.5500   -3.6670   74.0710 C.ar      1 NAP702      0.0000 
     21 N3A        37.0320   -2.4490   73.8660 N.ar      1 NAP702      0.0000 
     22 C4A        37.4080   -1.7470   72.7760 C.ar      1 NAP702      0.0000 
     23 O3         36.1690    5.7320   69.1380 O.3       1 NAP702      0.0000 
     24 PN         37.0860    6.7490   68.2870 P.3       1 NAP702      0.0000 
     25 O1N        37.2130    8.0200   69.1110 O.co2     1 NAP702      0.0000 
     26 O2N        38.3360    6.0040   67.8410 O.co2     1 NAP702      0.0000 
     27 O5D        36.1420    7.1090   67.0270 O.3       1 NAP702      0.0000 
     28 C5D        34.8490    7.7160   67.1500 C.3       1 NAP702      0.0000 
     29 C4D        34.7270    8.8740   66.1540 C.3       1 NAP702      0.0000 
     30 O4D        34.6730    8.3810   64.8050 O.3       1 NAP702      0.0000 
     31 C3D        33.4450    9.6750   66.3170 C.3       1 NAP702      0.0000 
     32 O3D        33.7780   11.0250   65.9740 O.3       1 NAP702      0.0000 
     33 C2D        32.4760    9.0810   65.2960 C.3       1 NAP702      0.0000 
     34 O2D        31.5110   10.0510   64.9140 O.3       1 NAP702      0.0000 
     35 C1D        33.4240    8.7270   64.1620 C.3       1 NAP702      0.0000 
     36 N1N        33.1080    7.6490   63.2190 N.pl3     1 NAP702      0.0000 
     37 C2N        33.3230    7.9280   61.9190 C.ar      1 NAP702      0.0000 
     38 C3N        33.1520    6.9850   60.8950 C.ar      1 NAP702      0.0000 
     39 C7N        33.3680    7.3990   59.4440 C.2       1 NAP702      0.0000 
     40 O7N        33.5060    6.5490   58.5700 O.2       1 NAP702      0.0000 
     41 N7N        33.4340    8.7000   59.1480 N.am      1 NAP702      0.0000 
     42 C4N        32.7700    5.6920   61.2510 C.ar      1 NAP702      0.0000 
     43 C5N        32.6020    5.4130   62.6150 C.ar      1 NAP702      0.0000 
     44 C6N        32.7990    6.3990   63.5940 C.ar      1 NAP702      0.0000 
     45 P2B        35.3850    1.7620   76.3750 P.3       1 NAP702      0.0000 
     46 O1X        35.8220    3.2140   76.3850 O.co2     1 NAP702      0.0000 
     47 O2X        33.9310    1.5910   76.6950 O.co2     1 NAP702      0.0000 
     48 O3X        36.3290    0.7730   77.0040 O.co2     1 NAP702      0.0000 
@<TRIPOS>BOND
     1    1    2 ar   
     2    1    3 ar   
     3    1    4 1    
     4    1   23 1    
     5    4    5 1    
     6    5    6 1    
     7    6    7 1    
     8    6    8 1    
     9    7   12 1    
    10    8    9 1    
    11    8   10 1    
    12   10   11 1    
    13   10   12 1    
    14   11   45 1    
    15   12   13 1    
    16   13   14 1    
    17   13   22 1    
    18   14   15 2    
    19   15   16 1    
    20   16   17 ar   
    21   16   22 ar   
    22   17   18 1    
    23   17   19 ar   
    24   19   20 ar   
    25   20   21 ar   
    26   21   22 ar   
    27   23   24 1    
    28   24   25 ar   
    29   24   26 ar   
    30   24   27 1    
    31   27   28 1    
    32   28   29 1    
    33   29   30 1    
    34   29   31 1    
    35   30   35 1    
    36   31   32 1    
    37   31   33 1    
    38   33   34 1    
    39   33   35 1    
    40   35   36 1    
    41   36   37 ar   
    42   36   44 ar   
    43   37   38 ar   
    44   38   39 1    
    45   38   42 ar   
    46   39   40 2    
    47   39   41 am   
    48   42   43 ar   
    49   43   44 ar   
    50   45   46 ar   
    51   45   47 ar   
    52   45   48 ar   
@<TRIPOS>SUBSTRUCTURE
     1 NAP702      1 GROUP   
@<TRIPOS>SET
ATOM$ORANGE STATIC     ATOMS   COLORGROUP SYSTEM 
42 5 5 6 6 8 8 10 10 12 12 14 14 16 16 17 17 20 \
20 22 22 28 28 29 29 31 31 33 33 35 35 37 37 38 38 39 \
39 42 42 43 43 44 44 

