#    Name: 6om8_9_UDX_CAVITY_N1_8
#    Modification time : Fri May 22 19:38:33 2020

@<TRIPOS>MOLECULE
6om8_9_UDX_CAVITY_N1_8
   83     0     6     0     0
SMALL
NO_CHARGES


@<TRIPOS>ATOM
      1 OG        205.3300   53.5800   72.2000 O.3       1 SER1        0.0000 
      2 OG        206.0400   51.6000   71.9200 O.3       1 SER1        0.0000 
      3 OG        207.1500   52.2400   70.2300 O.3       1 SER1        0.0000 
      4 OG        206.5000   53.8800   73.0900 O.3       1 SER1        0.0000 
      5 OG        206.3000   52.5700   73.7900 O.3       1 SER1        0.0000 
      6 OG        207.4100   53.2100   72.1000 O.3       1 SER1        0.0000 
      7 OG        206.7600   54.8400   74.9600 O.3       1 SER1        0.0000 
      8 OG        206.3600   52.2200   76.3700 O.3       1 SER1        0.0000 
      9 OG        207.6800   54.1700   73.9700 O.3       1 SER1        0.0000 
     10 OG        207.4700   52.8600   74.6800 O.3       1 SER1        0.0000 
     11 O         199.9200   54.3800   68.9400 O.2       2 ALA2        0.0000 
     12 N         201.1600   54.3300   72.4000 N.am      2 ALA2        0.0000 
     13 O         202.6700   57.5900   69.3100 O.2       2 ALA2        0.0000 
     14 O         203.3800   55.6100   69.0200 O.2       2 ALA2        0.0000 
     15 O         203.8500   57.8800   70.1900 O.2       2 ALA2        0.0000 
     16 O         203.6500   56.5700   70.9000 O.2       2 ALA2        0.0000 
     17 O         204.5600   55.9100   69.9100 O.2       2 ALA2        0.0000 
     18 O         205.2700   53.9300   69.6300 O.2       2 ALA2        0.0000 
     19 O         205.7300   56.2000   70.8000 O.2       2 ALA2        0.0000 
     20 N         205.1300   52.2700   72.9100 N.am      2 ALA2        0.0000 
     21 N         207.3500   53.5500   69.5300 N.am      2 ALA2        0.0000 
     22 O         206.9500   50.9300   70.9300 O.2       2 ALA2        0.0000 
     23 O         206.9100   56.4900   71.6800 O.2       2 ALA2        0.0000 
     24 N         207.6100   54.5200   71.4000 N.am      2 ALA2        0.0000 
     25 N         208.5300   53.8500   70.4100 N.am      2 ALA2        0.0000 
     26 O         208.2800   58.1000   71.8600 O.2       2 ALA2        0.0000 
     27 O         209.1900   57.4300   70.8800 O.2       2 ALA2        0.0000 
     28 N         208.9900   56.1200   71.5800 N.am      2 ALA2        0.0000 
     29 O         208.5400   59.0600   73.7400 O.2       2 ALA2        0.0000 
     30 O         209.2500   57.0800   73.4500 O.2       2 ALA2        0.0000 
     31 N         210.3700   57.7200   71.7600 N.am      2 ALA2        0.0000 
     32 N         210.1600   56.4100   72.4700 N.am      2 ALA2        0.0000 
     33 OD1       201.1000   54.6800   69.8300 O.co2     3 ASP3        0.0000 
     34 OD1       202.0100   54.0100   68.8400 O.co2     3 ASP3        0.0000 
     35 OD1       204.6200   55.5600   72.4800 O.co2     3 ASP3        0.0000 
     36 OD1       205.5300   54.8900   71.5000 O.co2     3 ASP3        0.0000 
     37 OD1       206.7000   55.1800   72.3800 O.co2     3 ASP3        0.0000 
     38 OD1       207.3700   58.7700   72.8500 O.co2     3 ASP3        0.0000 
     39 OD1       208.0800   56.7900   72.5700 O.co2     3 ASP3        0.0000 
     40 OD1       207.8800   55.4800   73.2700 O.co2     3 ASP3        0.0000 
     41 OD1       208.3400   57.7500   74.4400 O.co2     3 ASP3        0.0000 
     42 OD1       208.1400   56.4400   75.1400 O.co2     3 ASP3        0.0000 
     43 OD1       207.9400   55.1300   75.8400 O.co2     3 ASP3        0.0000 
     44 NZ        199.2700   56.0100   71.8000 N.4       4 LYS4        0.0000 
     45 NZ        207.7400   53.8200   76.5500 N.4       4 LYS4        0.0000 
     46 NZ        208.9100   54.1200   77.4300 N.4       4 LYS4        0.0000 
     47 CA        200.1200   55.6900   68.2400 C.3       5 GLY6        0.0000 
     48 CA        201.5000   57.2900   68.4200 C.3       5 GLY6        0.0000 
     49 CA        201.3000   55.9900   69.1200 C.3       5 GLY6        0.0000 
     50 CA        200.8900   53.3700   70.5300 C.3       5 GLY6        0.0000 
     51 CA        200.4500   56.3100   72.6800 C.3       5 GLY6        0.0000 
     52 CA        201.3600   55.6400   71.7000 C.3       5 GLY6        0.0000 
     53 CA        202.0700   53.6600   71.4200 C.3       5 GLY6        0.0000 
     54 CA        203.7900   58.2300   67.6200 C.3       5 GLY6        0.0000 
     55 CA        203.5800   56.9200   68.3200 C.3       5 GLY6        0.0000 
     56 CA        203.1800   54.3000   69.7300 C.3       5 GLY6        0.0000 
     57 CA        202.7300   57.2400   71.8800 C.3       5 GLY6        0.0000 
     58 CA        202.5300   55.9300   72.5800 C.3       5 GLY6        0.0000 
     59 CA        203.4400   55.2600   71.6000 C.3       5 GLY6        0.0000 
     60 CA        203.2400   53.9600   72.3000 C.3       5 GLY6        0.0000 
     61 CA        204.1500   53.2900   71.3200 C.3       5 GLY6        0.0000 
     62 CA        205.0700   52.6200   70.3300 C.3       5 GLY6        0.0000 
     63 CA        204.8600   51.3100   71.0300 C.3       5 GLY6        0.0000 
     64 CA        206.4400   54.2200   70.5100 C.3       5 GLY6        0.0000 
     65 CA        208.0600   51.5700   69.2500 C.3       5 GLY6        0.0000 
     66 CA        207.8200   55.8300   70.7000 C.3       5 GLY6        0.0000 
     67 CA        208.3200   52.5400   71.1200 C.3       5 GLY6        0.0000 
     68 CA        208.5900   53.5000   72.9900 C.3       5 GLY6        0.0000 
     69 CA        207.5400   52.5100   77.2500 C.3       5 GLY6        0.0000 
     70 CA        209.4500   58.3900   72.7500 C.3       5 GLY6        0.0000 
     71 CA        209.0500   55.7700   74.1600 C.3       5 GLY6        0.0000 
     72 CA        208.8500   54.4600   74.8600 C.3       5 GLY6        0.0000 
     73 CA        208.6500   53.1600   75.5600 C.3       5 GLY6        0.0000 
     74 CA        208.7100   52.8100   78.1400 C.3       5 GLY6        0.0000 
     75 DU        199.0100   55.0500   69.9300 H         6 CUB7        0.0000 
     76 DU        200.3900   56.6500   70.1100 H         6 CUB7        0.0000 
     77 DU        200.1800   55.3400   70.8100 H         6 CUB7        0.0000 
     78 DU        201.5600   56.9500   71.0000 H         6 CUB7        0.0000 
     79 DU        202.4700   56.2800   70.0100 H         6 CUB7        0.0000 
     80 DU        202.2700   54.9700   70.7100 H         6 CUB7        0.0000 
     81 DU        204.3600   54.6000   70.6100 H         6 CUB7        0.0000 
     82 DU        206.2400   52.9100   71.2200 H         6 CUB7        0.0000 
     83 DU        208.7900   54.8100   72.2900 H         6 CUB7        0.0000 
@<TRIPOS>BOND
@<TRIPOS>SUBSTRUCTURE
     1 SER1        1 GROUP   
     2 ALA2       11 GROUP   
     3 ASP3       33 GROUP   
     4 LYS4       44 GROUP   
     5 GLY6       47 GROUP   
     6 CUB7       75 GROUP   
@<TRIPOS>SET

