#    Name: 6om8_2_UDX
#    Modification time : Fri May 22 19:37:49 2020

@<TRIPOS>MOLECULE
6om8_2_UDX
   34    36     1     0     0
SMALL
NO_CHARGES


@<TRIPOS>ATOM
      1 C1'       147.6680   60.2420   86.6200 C.3       1 UDX501      0.0000 
      2 C2'       147.0860   59.2710   87.6420 C.3       1 UDX501      0.0000 
      3 O2'       145.7080   59.0550   87.3300 O.3       1 UDX501      0.0000 
      4 C3'       147.2240   59.8520   89.0470 C.3       1 UDX501      0.0000 
      5 O3'       146.7030   58.9530   90.0360 O.3       1 UDX501      0.0000 
      6 C4'       148.6950   60.1680   89.3120 C.3       1 UDX501      0.0000 
      7 O4'       148.8570   60.7570   90.6080 O.3       1 UDX501      0.0000 
      8 C5'       149.1650   61.1720   88.2770 C.3       1 UDX501      0.0000 
      9 O5'       149.0060   60.6250   86.9720 O.3       1 UDX501      0.0000 
     10 PB        146.8420   62.3440   85.2220 P.3       1 UDX501      0.0000 
     11 O1B       147.9080   61.8420   84.2810 O.co2     1 UDX501      0.0000 
     12 O2B       146.9110   63.7640   85.7400 O.co2     1 UDX501      0.0000 
     13 O3B       146.8060   61.3800   86.5120 O.3       1 UDX501      0.0000 
     14 O3A       145.4140   62.1970   84.4710 O.3       1 UDX501      0.0000 
     15 PA        144.6450   60.8260   84.1310 P.3       1 UDX501      0.0000 
     16 O1A       143.1650   61.0720   84.3060 O.co2     1 UDX501      0.0000 
     17 O2A       145.2650   59.6430   84.8180 O.co2     1 UDX501      0.0000 
     18 O5D       144.9170   60.7050   82.5580 O.3       1 UDX501      0.0000 
     19 C5D       146.2250   60.4000   82.0640 C.3       1 UDX501      0.0000 
     20 C4D       146.2030   60.3020   80.5420 C.3       1 UDX501      0.0000 
     21 O4D       145.5590   59.0950   80.1240 O.3       1 UDX501      0.0000 
     22 C3D       145.4150   61.4370   79.9270 C.3       1 UDX501      0.0000 
     23 O3D       146.1090   61.7610   78.7240 O.3       1 UDX501      0.0000 
     24 C2D       144.0690   60.8330   79.5970 C.3       1 UDX501      0.0000 
     25 O2D       143.4580   61.4830   78.4760 O.3       1 UDX501      0.0000 
     26 C1D       144.4460   59.3980   79.2850 C.3       1 UDX501      0.0000 
     27 N1        143.3770   58.4450   79.5540 N.am      1 UDX501      0.0000 
     28 C6        142.9210   58.2180   80.7900 C.2       1 UDX501      0.0000 
     29 C2        142.8550   57.7400   78.4640 C.2       1 UDX501      0.0000 
     30 O2        143.3090   57.9780   77.3280 O.2       1 UDX501      0.0000 
     31 N3        141.8810   56.8450   78.6390 N.am      1 UDX501      0.0000 
     32 C4        141.4000   56.6020   79.8640 C.2       1 UDX501      0.0000 
     33 O4        140.4930   55.7540   80.0060 O.2       1 UDX501      0.0000 
     34 C5        141.9120   57.2780   80.9700 C.2       1 UDX501      0.0000 
@<TRIPOS>BOND
     1    1    2 1    
     2    1    9 1    
     3    1   13 1    
     4    2    3 1    
     5    2    4 1    
     6    4    5 1    
     7    4    6 1    
     8    6    7 1    
     9    6    8 1    
    10    8    9 1    
    11   10   11 ar   
    12   10   12 ar   
    13   10   13 1    
    14   10   14 1    
    15   14   15 1    
    16   15   16 ar   
    17   15   17 ar   
    18   15   18 1    
    19   18   19 1    
    20   19   20 1    
    21   20   21 1    
    22   20   22 1    
    23   21   26 1    
    24   22   23 1    
    25   22   24 1    
    26   24   25 1    
    27   24   26 1    
    28   26   27 1    
    29   27   28 1    
    30   27   29 1    
    31   28   34 2    
    32   29   30 2    
    33   29   31 1    
    34   31   32 1    
    35   32   33 2    
    36   32   34 1    
@<TRIPOS>SUBSTRUCTURE
     1 UDX501      1 GROUP   
@<TRIPOS>SET

