#    Name: 6om8_13_UDX_CAVITY_N1_8
#    Modification time : Fri May 22 19:38:59 2020

@<TRIPOS>MOLECULE
6om8_13_UDX_CAVITY_N1_8
   75     0     5     0     0
SMALL
NO_CHARGES


@<TRIPOS>ATOM
      1 OG        230.0500   17.7000  114.8700 O.3       1 SER1        0.0000 
      2 OG        231.1700   18.3400  113.1800 O.3       1 SER1        0.0000 
      3 OG        231.2300   18.0000  115.7500 O.3       1 SER1        0.0000 
      4 OG        232.3400   18.6400  114.0700 O.3       1 SER1        0.0000 
      5 OG        234.6300   19.5700  113.2600 O.3       1 SER1        0.0000 
      6 O         229.5900   15.4300  113.7000 O.2       2 ALA2        0.0000 
      7 O         229.3900   14.1200  114.4000 O.2       2 ALA2        0.0000 
      8 O         230.5000   14.7600  112.7200 O.2       2 ALA2        0.0000 
      9 O         230.3000   13.4500  113.4200 O.2       2 ALA2        0.0000 
     10 O         231.9200   10.8000  112.1500 O.2       2 ALA2        0.0000 
     11 N         232.9900   17.0000  111.2100 N.am      2 ALA2        0.0000 
     12 N         232.7900   15.6900  111.9100 N.am      2 ALA2        0.0000 
     13 N         232.5900   14.3800  112.6200 N.am      2 ALA2        0.0000 
     14 O         232.3900   13.0700  113.3200 O.2       2 ALA2        0.0000 
     15 N         233.3000   12.4000  112.3300 N.am      2 ALA2        0.0000 
     16 N         233.1000   11.0900  113.0400 N.am      2 ALA2        0.0000 
     17 N         233.2500   17.9700  113.0800 N.am      2 ALA2        0.0000 
     18 N         233.0500   16.6600  113.7800 N.am      2 ALA2        0.0000 
     19 O         232.8500   15.3500  114.4900 O.2       2 ALA2        0.0000 
     20 O         232.6500   14.0400  115.1900 O.2       2 ALA2        0.0000 
     21 O         232.4500   12.7300  115.8900 O.2       2 ALA2        0.0000 
     22 O         232.2500   11.4200  116.6000 O.2       2 ALA2        0.0000 
     23 O         233.7600   14.6800  113.5000 O.2       2 ALA2        0.0000 
     24 O         233.3600   12.0600  114.9100 O.2       2 ALA2        0.0000 
     25 O         233.1600   10.7500  115.6100 O.2       2 ALA2        0.0000 
     26 N         232.6000   19.6000  115.9400 N.am      2 ALA2        0.0000 
     27 O         232.7100   13.6900  117.7600 O.2       2 ALA2        0.0000 
     28 O         233.4200   11.7100  117.4800 O.2       2 ALA2        0.0000 
     29 O         234.3300   11.0400  116.5000 O.2       2 ALA2        0.0000 
     30 O         234.2900   16.6100  117.2400 O.2       2 ALA2        0.0000 
     31 O         234.0900   15.3000  117.9500 O.2       2 ALA2        0.0000 
     32 O         235.4000   17.2500  115.5600 O.2       2 ALA2        0.0000 
     33 O         235.4600   16.9000  118.1300 O.2       2 ALA2        0.0000 
     34 O         235.2600   15.5900  118.8300 O.2       2 ALA2        0.0000 
     35 O         236.1700   14.9200  117.8500 O.2       2 ALA2        0.0000 
     36 OD1       230.7600   15.7200  114.5900 O.co2     3 ASP3        0.0000 
     37 OD1       230.5600   14.4100  115.2900 O.co2     3 ASP3        0.0000 
     38 OD1       230.3600   13.1000  115.9900 O.co2     3 ASP3        0.0000 
     39 OD1       231.4700   13.7400  114.3000 O.co2     3 ASP3        0.0000 
     40 OD1       231.9800   10.4500  114.7200 O.co2     3 ASP3        0.0000 
     41 OD1       232.1400   17.3300  114.7700 O.co2     3 ASP3        0.0000 
     42 OD1       231.9400   16.0200  115.4700 O.co2     3 ASP3        0.0000 
     43 OD1       231.5400   13.4000  116.8800 O.co2     3 ASP3        0.0000 
     44 OD1       231.3300   12.0900  117.5800 O.co2     3 ASP3        0.0000 
     45 OD1       231.1300   10.7800  118.2800 O.co2     3 ASP3        0.0000 
     46 OD1       232.0400   10.1100  117.3000 O.co2     3 ASP3        0.0000 
     47 OD1       233.7200   20.2400  114.2500 O.co2     3 ASP3        0.0000 
     48 OD1       233.5200   18.9300  114.9500 O.co2     3 ASP3        0.0000 
     49 OD1       233.3100   17.6200  115.6500 O.co2     3 ASP3        0.0000 
     50 OD1       233.1100   16.3100  116.3600 O.co2     3 ASP3        0.0000 
     51 OD1       234.4300   18.2600  113.9700 O.co2     3 ASP3        0.0000 
     52 OD1       234.1300    9.7300  117.2000 O.co2     3 ASP3        0.0000 
     53 OD1       233.7800   19.8900  116.8200 O.co2     3 ASP3        0.0000 
     54 OD1       233.3800   17.2700  118.2300 O.co2     3 ASP3        0.0000 
     55 OD1       233.1700   15.9700  118.9300 O.co2     3 ASP3        0.0000 
     56 OD1       234.4900   17.9200  116.5400 O.co2     3 ASP3        0.0000 
     57 OD1       234.7500   18.8800  118.4100 O.co2     3 ASP3        0.0000 
     58 OD1       235.6600   18.2100  117.4300 O.co2     3 ASP3        0.0000 
     59 CA        230.7000   16.0700  112.0100 C.3       4 GLY6        0.0000 
     60 CA        230.9700   17.0300  113.8800 C.3       4 GLY6        0.0000 
     61 CA        232.0800   17.6700  112.1900 C.3       4 GLY6        0.0000 
     62 CA        231.8800   16.3600  112.9000 C.3       4 GLY6        0.0000 
     63 CA        231.2700   12.4300  115.0100 C.3       4 GLY6        0.0000 
     64 CA        232.1800   11.7600  114.0200 C.3       4 GLY6        0.0000 
     65 CA        233.4500   19.2800  112.3800 C.3       4 GLY6        0.0000 
     66 CA        234.3700   18.6100  111.3900 C.3       4 GLY6        0.0000 
     67 CA        232.4000   18.2900  116.6400 C.3       4 GLY6        0.0000 
     68 CA        231.6000   13.0500  119.4500 C.3       4 GLY6        0.0000 
     69 CA        234.2300   16.9500  114.6700 C.3       4 GLY6        0.0000 
     70 CA        233.5800   18.5800  117.5300 C.3       4 GLY6        0.0000 
     71 CA        232.9700   14.6600  119.6400 C.3       4 GLY6        0.0000 
     72 CA        236.3700   16.2300  117.1400 C.3       4 GLY6        0.0000 
     73 CA        236.6400   17.2000  119.0200 C.3       4 GLY6        0.0000 
     74 DU        231.6800   15.0500  113.6000 H         5 CUB7        0.0000 
     75 DU        234.5500   17.5700  119.1100 H         5 CUB7        0.0000 
@<TRIPOS>BOND
@<TRIPOS>SUBSTRUCTURE
     1 SER1        1 GROUP   
     2 ALA2        6 GROUP   
     3 ASP3       36 GROUP   
     4 GLY6       59 GROUP   
     5 CUB7       74 GROUP   
@<TRIPOS>SET

