#    Name: 6om8_4_UDX
#    Modification time : Fri May 22 19:38:05 2020

@<TRIPOS>MOLECULE
6om8_4_UDX
   34    36     1     0     0
SMALL
NO_CHARGES


@<TRIPOS>ATOM
      1 C1'       138.6910   31.9800   83.9740 C.3       1 UDX501      0.0000 
      2 C2'       137.9740   33.3160   84.0660 C.3       1 UDX501      0.0000 
      3 O2'       138.1320   33.8360   85.3910 O.3       1 UDX501      0.0000 
      4 C3'       136.4990   33.1330   83.7470 C.3       1 UDX501      0.0000 
      5 O3'       135.8310   34.4010   83.7710 O.3       1 UDX501      0.0000 
      6 C4'       136.3520   32.4720   82.3800 C.3       1 UDX501      0.0000 
      7 O4'       134.9670   32.2680   82.0710 O.3       1 UDX501      0.0000 
      8 C5'       137.0710   31.1320   82.3920 C.3       1 UDX501      0.0000 
      9 O5'       138.4400   31.3410   82.7140 O.3       1 UDX501      0.0000 
     10 PB        139.2460   29.9570   85.5490 P.3       1 UDX501      0.0000 
     11 O1B       140.4540   29.9620   84.6440 O.co2     1 UDX501      0.0000 
     12 O2B       138.4220   28.7000   85.6230 O.co2     1 UDX501      0.0000 
     13 O3B       138.2800   31.1470   85.0580 O.3       1 UDX501      0.0000 
     14 O3A       139.6930   30.3630   87.0570 O.3       1 UDX501      0.0000 
     15 PA        140.4570   31.7270   87.5020 P.3       1 UDX501      0.0000 
     16 O1A       140.0690   32.0920   88.9150 O.co2     1 UDX501      0.0000 
     17 O2A       140.3900   32.7820   86.4340 O.co2     1 UDX501      0.0000 
     18 O5D       141.9560   31.1580   87.5920 O.3       1 UDX501      0.0000 
     19 C5D       142.8860   31.3710   86.5360 C.3       1 UDX501      0.0000 
     20 C4D       144.2880   31.1210   87.0730 C.3       1 UDX501      0.0000 
     21 O4D       144.8370   32.3510   87.5400 O.3       1 UDX501      0.0000 
     22 C3D       144.2810   30.1790   88.2590 C.3       1 UDX501      0.0000 
     23 O3D       145.3780   29.2850   88.1010 O.3       1 UDX501      0.0000 
     24 C2D       144.5270   31.0450   89.4730 C.3       1 UDX501      0.0000 
     25 O2D       145.2890   30.3290   90.4550 O.3       1 UDX501      0.0000 
     26 C1D       145.2960   32.2110   88.8790 C.3       1 UDX501      0.0000 
     27 N1        145.0530   33.4640   89.5870 N.am      1 UDX501      0.0000 
     28 C6        143.8540   34.0500   89.6010 C.2       1 UDX501      0.0000 
     29 C2        146.1420   34.0590   90.2420 C.2       1 UDX501      0.0000 
     30 O2        147.2460   33.4920   90.2080 O.2       1 UDX501      0.0000 
     31 N3        145.9960   35.2070   90.9030 N.am      1 UDX501      0.0000 
     32 C4        144.8070   35.8110   90.9430 C.2       1 UDX501      0.0000 
     33 O4        144.7020   36.8870   91.5680 O.2       1 UDX501      0.0000 
     34 C5        143.7090   35.2490   90.2910 C.2       1 UDX501      0.0000 
@<TRIPOS>BOND
     1    1    2 1    
     2    1    9 1    
     3    1   13 1    
     4    2    3 1    
     5    2    4 1    
     6    4    5 1    
     7    4    6 1    
     8    6    7 1    
     9    6    8 1    
    10    8    9 1    
    11   10   11 ar   
    12   10   12 ar   
    13   10   13 1    
    14   10   14 1    
    15   14   15 1    
    16   15   16 ar   
    17   15   17 ar   
    18   15   18 1    
    19   18   19 1    
    20   19   20 1    
    21   20   21 1    
    22   20   22 1    
    23   21   26 1    
    24   22   23 1    
    25   22   24 1    
    26   24   25 1    
    27   24   26 1    
    28   26   27 1    
    29   27   28 1    
    30   27   29 1    
    31   28   34 2    
    32   29   30 2    
    33   29   31 1    
    34   31   32 1    
    35   32   33 2    
    36   32   34 1    
@<TRIPOS>SUBSTRUCTURE
     1 UDX501      1 GROUP   
@<TRIPOS>SET

