#    Name: 6om8_3_UDX
#    Modification time : Fri May 22 19:37:55 2020

@<TRIPOS>MOLECULE
6om8_3_UDX
   34    36     1     0     0
SMALL
NO_CHARGES


@<TRIPOS>ATOM
      1 C1'       136.5480   24.6400   78.0000 C.3       1 UDX500      0.0000 
      2 C2'       136.4300   25.7310   76.9330 C.3       1 UDX500      0.0000 
      3 O2'       135.1350   26.3430   76.9810 O.3       1 UDX500      0.0000 
      4 C3'       136.6920   25.1880   75.5290 C.3       1 UDX500      0.0000 
      5 O3'       136.7770   26.2570   74.5790 O.3       1 UDX500      0.0000 
      6 C4'       137.9930   24.4070   75.4980 C.3       1 UDX500      0.0000 
      7 O4'       138.1140   23.7530   74.2320 O.3       1 UDX500      0.0000 
      8 C5'       138.0100   23.3780   76.6220 C.3       1 UDX500      0.0000 
      9 O5'       137.8350   24.0390   77.8760 O.3       1 UDX500      0.0000 
     10 PB        135.3380   22.4190   78.9090 P.3       1 UDX500      0.0000 
     11 O1B       133.8780   22.0520   78.9760 O.co2     1 UDX500      0.0000 
     12 O2B       136.0540   22.7600   80.1950 O.co2     1 UDX500      0.0000 
     13 O3B       135.5120   23.6500   77.8660 O.3       1 UDX500      0.0000 
     14 O3A       136.0910   21.2040   78.1580 O.3       1 UDX500      0.0000 
     15 PA        136.0290   19.6710   78.6670 P.3       1 UDX500      0.0000 
     16 O1A       135.9920   19.6670   80.1730 O.co2     1 UDX500      0.0000 
     17 O2A       137.0810   18.8540   77.9520 O.co2     1 UDX500      0.0000 
     18 O5D       134.5890   19.2090   78.1030 O.3       1 UDX500      0.0000 
     19 C5D       134.3990   18.8610   76.7300 C.3       1 UDX500      0.0000 
     20 C4D       133.4810   17.6490   76.6250 C.3       1 UDX500      0.0000 
     21 O4D       132.8490   17.5950   75.3370 O.3       1 UDX500      0.0000 
     22 C3D       134.2870   16.3650   76.7820 C.3       1 UDX500      0.0000 
     23 O3D       133.7110   15.5330   77.7950 O.3       1 UDX500      0.0000 
     24 C2D       134.2030   15.6780   75.4360 C.3       1 UDX500      0.0000 
     25 O2D       134.1180   14.2580   75.5760 O.3       1 UDX500      0.0000 
     26 C1D       132.9350   16.2570   74.8350 C.3       1 UDX500      0.0000 
     27 N1        132.9610   16.1870   73.3740 N.am      1 UDX500      0.0000 
     28 C6        134.0770   16.4500   72.6940 C.2       1 UDX500      0.0000 
     29 C2        131.7940   15.8080   72.6850 C.2       1 UDX500      0.0000 
     30 O2        130.7580   15.5560   73.3290 O.2       1 UDX500      0.0000 
     31 N3        131.7860   15.7220   71.3500 N.am      1 UDX500      0.0000 
     32 C4        132.8930   15.9920   70.6500 C.2       1 UDX500      0.0000 
     33 O4        132.8760   15.9100   69.4050 O.2       1 UDX500      0.0000 
     34 C5        134.0610   16.3620   71.3060 C.2       1 UDX500      0.0000 
@<TRIPOS>BOND
     1    1    2 1    
     2    1    9 1    
     3    1   13 1    
     4    2    3 1    
     5    2    4 1    
     6    4    5 1    
     7    4    6 1    
     8    6    7 1    
     9    6    8 1    
    10    8    9 1    
    11   10   11 ar   
    12   10   12 ar   
    13   10   13 1    
    14   10   14 1    
    15   14   15 1    
    16   15   16 ar   
    17   15   17 ar   
    18   15   18 1    
    19   18   19 1    
    20   19   20 1    
    21   20   21 1    
    22   20   22 1    
    23   21   26 1    
    24   22   23 1    
    25   22   24 1    
    26   24   25 1    
    27   24   26 1    
    28   26   27 1    
    29   27   28 1    
    30   27   29 1    
    31   28   34 2    
    32   29   30 2    
    33   29   31 1    
    34   31   32 1    
    35   32   33 2    
    36   32   34 1    
@<TRIPOS>SUBSTRUCTURE
     1 UDX500      1 GROUP   
@<TRIPOS>SET

