#    Name: 6om8_17_UDX
#    Modification time : Fri May 22 19:39:24 2020

@<TRIPOS>MOLECULE
6om8_17_UDX
   34    36     1     0     0
SMALL
NO_CHARGES


@<TRIPOS>ATOM
      1 C1'       242.5750   59.8230   29.3560 C.3       1 UDX500      0.0000 
      2 C2'       243.4000   58.7990   28.5790 C.3       1 UDX500      0.0000 
      3 O2'       244.4650   58.3470   29.4190 O.3       1 UDX500      0.0000 
      4 C3'       243.9360   59.3830   27.2750 C.3       1 UDX500      0.0000 
      5 O3'       244.6190   58.3720   26.5190 O.3       1 UDX500      0.0000 
      6 C4'       242.7680   59.9540   26.4760 C.3       1 UDX500      0.0000 
      7 O4'       243.2000   60.5380   25.2410 O.3       1 UDX500      0.0000 
      8 C5'       242.0790   61.0170   27.3160 C.3       1 UDX500      0.0000 
      9 O5'       241.5790   60.4130   28.5080 O.3       1 UDX500      0.0000 
     10 PB        242.9140   61.8830   31.0100 P.3       1 UDX500      0.0000 
     11 O1B       244.0730   62.2300   31.9300 O.co2     1 UDX500      0.0000 
     12 O2B       241.6310   61.3850   31.6340 O.co2     1 UDX500      0.0000 
     13 O3B       243.4490   60.8000   29.9330 O.3       1 UDX500      0.0000 
     14 O3A       242.5900   63.1390   30.0400 O.3       1 UDX500      0.0000 
     15 PA        242.3120   64.6430   30.5560 P.3       1 UDX500      0.0000 
     16 O1A       241.5560   64.6320   31.8620 O.co2     1 UDX500      0.0000 
     17 O2A       241.7820   65.4480   29.3940 O.co2     1 UDX500      0.0000 
     18 O5D       243.8060   65.1490   30.8860 O.3       1 UDX500      0.0000 
     19 C5D       244.7140   65.4730   29.8410 C.3       1 UDX500      0.0000 
     20 C4D       245.3740   66.7910   30.1980 C.3       1 UDX500      0.0000 
     21 O4D       246.5790   67.0030   29.4480 O.3       1 UDX500      0.0000 
     22 C3D       244.4280   67.9350   29.8760 C.3       1 UDX500      0.0000 
     23 O3D       244.2000   68.6780   31.0780 O.3       1 UDX500      0.0000 
     24 C2D       245.1530   68.7700   28.8320 C.3       1 UDX500      0.0000 
     25 O2D       244.9680   70.1730   29.0490 O.3       1 UDX500      0.0000 
     26 C1D       246.6080   68.3620   29.0050 C.3       1 UDX500      0.0000 
     27 N1        247.3850   68.4790   27.7720 N.am      1 UDX500      0.0000 
     28 C6        246.9090   68.0190   26.6130 C.2       1 UDX500      0.0000 
     29 C2        248.6590   69.0820   27.8260 C.2       1 UDX500      0.0000 
     30 O2        249.0970   69.5090   28.9170 O.2       1 UDX500      0.0000 
     31 N3        249.3990   69.2000   26.7210 N.am      1 UDX500      0.0000 
     32 C4        248.9420   68.7460   25.5510 C.2       1 UDX500      0.0000 
     33 O4        249.6470   68.8670   24.5260 O.2       1 UDX500      0.0000 
     34 C5        247.6890   68.1470   25.4700 C.2       1 UDX500      0.0000 
@<TRIPOS>BOND
     1    1    2 1    
     2    1    9 1    
     3    1   13 1    
     4    2    3 1    
     5    2    4 1    
     6    4    5 1    
     7    4    6 1    
     8    6    7 1    
     9    6    8 1    
    10    8    9 1    
    11   10   11 ar   
    12   10   12 ar   
    13   10   13 1    
    14   10   14 1    
    15   14   15 1    
    16   15   16 ar   
    17   15   17 ar   
    18   15   18 1    
    19   18   19 1    
    20   19   20 1    
    21   20   21 1    
    22   20   22 1    
    23   21   26 1    
    24   22   23 1    
    25   22   24 1    
    26   24   25 1    
    27   24   26 1    
    28   26   27 1    
    29   27   28 1    
    30   27   29 1    
    31   28   34 2    
    32   29   30 2    
    33   29   31 1    
    34   31   32 1    
    35   32   33 2    
    36   32   34 1    
@<TRIPOS>SUBSTRUCTURE
     1 UDX500      1 GROUP   
@<TRIPOS>SET

