#    Name: 6om8_23_UDX
#    Modification time : Fri May 22 19:40:06 2020

@<TRIPOS>MOLECULE
6om8_23_UDX
   34    36     1     0     0
SMALL
NO_CHARGES


@<TRIPOS>ATOM
      1 C1'       127.0430   26.8230  128.6290 C.3       1 UDX500      0.0000 
      2 C2'       127.2610   28.1950  129.2760 C.3       1 UDX500      0.0000 
      3 O2'       128.6390   28.5610  129.1310 O.3       1 UDX500      0.0000 
      4 C3'       126.8830   28.2490  130.7580 C.3       1 UDX500      0.0000 
      5 O3'       126.7670   29.6210  131.1610 O.3       1 UDX500      0.0000 
      6 C4'       125.5620   27.5320  131.0160 C.3       1 UDX500      0.0000 
      7 O4'       125.2930   27.4470  132.4210 O.3       1 UDX500      0.0000 
      8 C5'       125.6140   26.1320  130.4230 C.3       1 UDX500      0.0000 
      9 O5'       125.7830   26.2540  129.0130 O.3       1 UDX500      0.0000 
     10 PB        128.2810   24.4860  128.3180 P.3       1 UDX500      0.0000 
     11 O1B       129.7550   24.1420  128.2840 O.co2     1 UDX500      0.0000 
     12 O2B       127.4790   24.4240  127.0370 O.co2     1 UDX500      0.0000 
     13 O3B       128.1280   25.9550  128.9690 O.3       1 UDX500      0.0000 
     14 O3A       127.6010   23.5580  129.4550 O.3       1 UDX500      0.0000 
     15 PA        127.5230   21.9450  129.3730 P.3       1 UDX500      0.0000 
     16 O1A       127.5480   21.5360  127.9200 O.co2     1 UDX500      0.0000 
     17 O2A       126.4120   21.4820  130.2880 O.co2     1 UDX500      0.0000 
     18 O5D       128.9110   21.4830  130.0530 O.3       1 UDX500      0.0000 
     19 C5D       129.1590   21.7220  131.4380 C.3       1 UDX500      0.0000 
     20 C4D       130.1230   20.6620  131.9430 C.3       1 UDX500      0.0000 
     21 O4D       130.6310   20.9880  133.2410 O.3       1 UDX500      0.0000 
     22 C3D       129.4280   19.3140  132.0700 C.3       1 UDX500      0.0000 
     23 O3D       130.1500   18.3750  131.2780 O.3       1 UDX500      0.0000 
     24 C2D       129.5240   18.9450  133.5380 C.3       1 UDX500      0.0000 
     25 O2D       129.8230   17.5620  133.7310 O.3       1 UDX500      0.0000 
     26 C1D       130.6780   19.7900  134.0260 C.3       1 UDX500      0.0000 
     27 N1        130.5770   20.0470  135.4610 N.am      1 UDX500      0.0000 
     28 C6        129.5540   20.7270  135.9880 C.2       1 UDX500      0.0000 
     29 C2        131.6060   19.5590  136.2920 C.2       1 UDX500      0.0000 
     30 O2        132.5480   18.9240  135.7750 O.2       1 UDX500      0.0000 
     31 N3        131.5700   19.7640  137.6140 N.am      1 UDX500      0.0000 
     32 C4        130.5530   20.4440  138.1650 C.2       1 UDX500      0.0000 
     33 O4        130.5300   20.6330  139.4030 O.2       1 UDX500      0.0000 
     34 C5        129.5250   20.9390  137.3640 C.2       1 UDX500      0.0000 
@<TRIPOS>BOND
     1    1    2 1    
     2    1    9 1    
     3    1   13 1    
     4    2    3 1    
     5    2    4 1    
     6    4    5 1    
     7    4    6 1    
     8    6    7 1    
     9    6    8 1    
    10    8    9 1    
    11   10   11 ar   
    12   10   12 ar   
    13   10   13 1    
    14   10   14 1    
    15   14   15 1    
    16   15   16 ar   
    17   15   17 ar   
    18   15   18 1    
    19   18   19 1    
    20   19   20 1    
    21   20   21 1    
    22   20   22 1    
    23   21   26 1    
    24   22   23 1    
    25   22   24 1    
    26   24   25 1    
    27   24   26 1    
    28   26   27 1    
    29   27   28 1    
    30   27   29 1    
    31   28   34 2    
    32   29   30 2    
    33   29   31 1    
    34   31   32 1    
    35   32   33 2    
    36   32   34 1    
@<TRIPOS>SUBSTRUCTURE
     1 UDX500      1 GROUP   
@<TRIPOS>SET

