#    Name: 6om8_3_UDX_CAVITY_N1_6
#    Modification time : Fri May 22 19:37:56 2020

@<TRIPOS>MOLECULE
6om8_3_UDX_CAVITY_N1_6
   70     0     6     0     0
SMALL
NO_CHARGES


@<TRIPOS>ATOM
      1 OG        132.2600   14.3600   67.8000 O.3       1 SER1        0.0000 
      2 OG        133.1800   13.6900   66.8100 O.3       1 SER1        0.0000 
      3 N         133.9600   16.5800   72.4200 N.am      2 ALA2        0.0000 
      4 N         132.4000   18.8800   76.2700 N.am      2 ALA2        0.0000 
      5 N         134.0200   16.2300   75.0000 N.am      2 ALA2        0.0000 
      6 N         134.9400   15.5600   74.0100 N.am      2 ALA2        0.0000 
      7 N         136.0500   16.2000   72.3200 N.am      2 ALA2        0.0000 
      8 O         132.6700   19.8500   78.1400 O.2       2 ALA2        0.0000 
      9 N         133.7800   20.4900   76.4500 N.am      2 ALA2        0.0000 
     10 N         133.5800   19.1800   77.1500 N.am      2 ALA2        0.0000 
     11 O         133.3800   17.8700   77.8600 O.2       2 ALA2        0.0000 
     12 O         134.6900   19.8200   75.4600 O.2       2 ALA2        0.0000 
     13 N         134.4900   18.5100   76.1700 N.am      2 ALA2        0.0000 
     14 N         134.2900   17.2000   76.8700 N.am      2 ALA2        0.0000 
     15 N         135.2000   16.5300   75.8800 N.am      2 ALA2        0.0000 
     16 N         135.9100   14.5500   75.6000 N.am      2 ALA2        0.0000 
     17 O         135.7100   13.2400   76.3000 O.2       2 ALA2        0.0000 
     18 O         134.9500   20.7800   77.3400 O.2       2 ALA2        0.0000 
     19 O         135.6600   18.8000   77.0500 O.2       2 ALA2        0.0000 
     20 N         136.3700   16.8200   76.7700 N.am      2 ALA2        0.0000 
     21 N         137.0800   14.8400   76.4900 N.am      2 ALA2        0.0000 
     22 O         136.8400   19.1000   77.9400 O.2       2 ALA2        0.0000 
     23 O         136.6400   17.7900   78.6400 O.2       2 ALA2        0.0000 
     24 O         137.5500   17.1200   77.6600 O.2       2 ALA2        0.0000 
     25 OD1       134.0900   15.8900   77.5700 O.co2     3 ASP3        0.0000 
     26 OD1       135.0000   15.2200   76.5900 O.co2     3 ASP3        0.0000 
     27 OD1       134.8000   13.9100   77.2900 O.co2     3 ASP3        0.0000 
     28 OD1       135.4600   17.4900   77.7600 O.co2     3 ASP3        0.0000 
     29 OD1       136.1700   15.5100   77.4700 O.co2     3 ASP3        0.0000 
     30 OD1       135.9300   19.7700   78.9200 O.co2     3 ASP3        0.0000 
     31 OD1       137.3500   15.8100   78.3600 O.co2     3 ASP3        0.0000 
     32 OD1       138.0100   19.3900   78.8200 O.co2     3 ASP3        0.0000 
     33 NZ        131.9400   16.6100   75.1000 N.4       4 LYS4        0.0000 
     34 NZ        132.8500   15.9400   74.1100 N.4       4 LYS4        0.0000 
     35 NZ        132.2000   17.5700   76.9700 N.4       4 LYS4        0.0000 
     36 NZ        133.1100   16.9000   75.9800 N.4       4 LYS4        0.0000 
     37 NZ        133.8200   14.9200   75.7000 N.4       4 LYS4        0.0000 
     38 CZ        133.6400   15.9600   67.9800 C.ar      5 PHE5        0.0000 
     39 CZ        133.4400   14.6500   68.6800 C.ar      5 PHE5        0.0000 
     40 CZ        134.3500   13.9800   67.7000 C.ar      5 PHE5        0.0000 
     41 CZ        134.6100   14.9500   69.5700 C.ar      5 PHE5        0.0000 
     42 CZ        135.0800   17.2200   70.7400 C.ar      5 PHE5        0.0000 
     43 CZ        135.7900   15.2400   70.4500 C.ar      5 PHE5        0.0000 
     44 CA        132.0600   13.0500   68.5000 C.3       6 GLY6        0.0000 
     45 CA        131.8600   11.7400   69.2000 C.3       6 GLY6        0.0000 
     46 CA        131.6200   15.9900   70.6500 C.3       6 GLY6        0.0000 
     47 CA        132.7300   16.6300   68.9600 C.3       6 GLY6        0.0000 
     48 CA        132.5300   15.3200   69.6700 C.3       6 GLY6        0.0000 
     49 CA        132.3300   14.0100   70.3700 C.3       6 GLY6        0.0000 
     50 CA        134.1500   12.6700   68.4000 C.3       6 GLY6        0.0000 
     51 CA        131.6800   15.6400   73.2300 C.3       6 GLY6        0.0000 
     52 CA        132.9900   17.5900   70.8400 C.3       6 GLY6        0.0000 
     53 CA        132.7900   16.2800   71.5400 C.3       6 GLY6        0.0000 
     54 CA        132.5900   14.9700   72.2400 C.3       6 GLY6        0.0000 
     55 CA        133.9000   16.9200   69.8500 C.3       6 GLY6        0.0000 
     56 CA        133.7000   15.6100   70.5500 C.3       6 GLY6        0.0000 
     57 CA        135.3200   12.9700   69.2800 C.3       6 GLY6        0.0000 
     58 CA        132.1400   17.9200   74.4000 C.3       6 GLY6        0.0000 
     59 CA        133.0500   17.2500   73.4100 C.3       6 GLY6        0.0000 
     60 CA        134.1700   17.8900   71.7200 C.3       6 GLY6        0.0000 
     61 CA        133.7600   15.2700   73.1300 C.3       6 GLY6        0.0000 
     62 CA        134.8800   15.9100   71.4400 C.3       6 GLY6        0.0000 
     63 CA        133.3100   18.2100   75.2800 C.3       6 GLY6        0.0000 
     64 CA        134.7300   14.2500   74.7200 C.3       6 GLY6        0.0000 
     65 CA        135.8500   14.8900   73.0300 C.3       6 GLY6        0.0000 
     66 CA        136.8200   13.8800   74.6200 C.3       6 GLY6        0.0000 
     67 CA        134.0400   21.4500   78.3200 C.3       6 GLY6        0.0000 
     68 CA        134.7500   19.4700   78.0400 C.3       6 GLY6        0.0000 
     69 CA        134.5500   18.1600   78.7400 C.3       6 GLY6        0.0000 
     70 CA        135.7200   18.4600   79.6300 C.3       6 GLY6        0.0000 
@<TRIPOS>BOND
@<TRIPOS>SUBSTRUCTURE
     1 SER1        1 GROUP   
     2 ALA2        3 GROUP   
     3 ASP3       25 GROUP   
     4 LYS4       33 GROUP   
     5 PHE5       38 GROUP   
     6 GLY6       44 GROUP   
@<TRIPOS>SET

