#    Name: 6om8_10_UDX
#    Modification time : Fri May 22 19:38:41 2020

@<TRIPOS>MOLECULE
6om8_10_UDX
   34    36     1     0     0
SMALL
NO_CHARGES


@<TRIPOS>ATOM
      1 C1'       205.5500   48.2270   80.8460 C.3       1 UDX501      0.0000 
      2 C2'       206.3630   46.9830   81.2110 C.3       1 UDX501      0.0000 
      3 O2'       206.3540   46.7690   82.6290 O.3       1 UDX501      0.0000 
      4 C3'       207.7970   47.1610   80.7440 C.3       1 UDX501      0.0000 
      5 O3'       208.5840   46.0160   81.0840 O.3       1 UDX501      0.0000 
      6 C4'       207.7690   47.3820   79.2410 C.3       1 UDX501      0.0000 
      7 O4'       209.0930   47.5330   78.7350 O.3       1 UDX501      0.0000 
      8 C5'       206.9970   48.6620   78.9700 C.3       1 UDX501      0.0000 
      9 O5'       205.6600   48.5380   79.4550 O.3       1 UDX501      0.0000 
     10 PB        205.0030   50.5730   81.8890 P.3       1 UDX501      0.0000 
     11 O1B       203.7400   50.3060   81.0990 O.co2     1 UDX501      0.0000 
     12 O2B       205.7900   51.8350   81.6670 O.co2     1 UDX501      0.0000 
     13 O3B       205.9960   49.3430   81.6120 O.3       1 UDX501      0.0000 
     14 O3A       204.7020   50.5140   83.4750 O.3       1 UDX501      0.0000 
     15 PA        204.0000   49.2910   84.2650 P.3       1 UDX501      0.0000 
     16 O1A       204.5480   49.2990   85.6750 O.co2     1 UDX501      0.0000 
     17 O2A       204.0160   48.0090   83.4650 O.co2     1 UDX501      0.0000 
     18 O5D       202.4790   49.8340   84.3150 O.3       1 UDX501      0.0000 
     19 C5D       201.6020   49.5830   83.2180 C.3       1 UDX501      0.0000 
     20 C4D       200.1540   49.8670   83.6090 C.3       1 UDX501      0.0000 
     21 O4D       199.6420   48.7880   84.3890 O.3       1 UDX501      0.0000 
     22 C3D       200.0200   51.1060   84.4710 C.3       1 UDX501      0.0000 
     23 O3D       198.8200   51.7620   84.0460 O.3       1 UDX501      0.0000 
     24 C2D       199.8890   50.5610   85.8850 C.3       1 UDX501      0.0000 
     25 O2D       199.1840   51.4450   86.7650 O.3       1 UDX501      0.0000 
     26 C1D       199.1460   49.2610   85.6430 C.3       1 UDX501      0.0000 
     27 N1        199.3750   48.2370   86.6630 N.am      1 UDX501      0.0000 
     28 C6        200.5840   47.7080   86.8530 C.2       1 UDX501      0.0000 
     29 C2        198.2810   47.7820   87.4250 C.2       1 UDX501      0.0000 
     30 O2        197.1540   48.2770   87.2270 O.2       1 UDX501      0.0000 
     31 N3        198.4480   46.8360   88.3560 N.am      1 UDX501      0.0000 
     32 C4        199.6540   46.3010   88.5700 C.2       1 UDX501      0.0000 
     33 O4        199.7970   45.4140   89.4410 O.2       1 UDX501      0.0000 
     34 C5        200.7450   46.7270   87.8220 C.2       1 UDX501      0.0000 
@<TRIPOS>BOND
     1    1    2 1    
     2    1    9 1    
     3    1   13 1    
     4    2    3 1    
     5    2    4 1    
     6    4    5 1    
     7    4    6 1    
     8    6    7 1    
     9    6    8 1    
    10    8    9 1    
    11   10   11 ar   
    12   10   12 ar   
    13   10   13 1    
    14   10   14 1    
    15   14   15 1    
    16   15   16 ar   
    17   15   17 ar   
    18   15   18 1    
    19   18   19 1    
    20   19   20 1    
    21   20   21 1    
    22   20   22 1    
    23   21   26 1    
    24   22   23 1    
    25   22   24 1    
    26   24   25 1    
    27   24   26 1    
    28   26   27 1    
    29   27   28 1    
    30   27   29 1    
    31   28   34 2    
    32   29   30 2    
    33   29   31 1    
    34   31   32 1    
    35   32   33 2    
    36   32   34 1    
@<TRIPOS>SUBSTRUCTURE
     1 UDX501      1 GROUP   
@<TRIPOS>SET

