#    Name: 6om8_12_UDX_CAVITY_N1_ALL
#    Modification time : Fri May 22 19:38:53 2020

@<TRIPOS>MOLECULE
6om8_12_UDX_CAVITY_N1_ALL
  106     0     7     0     0
SMALL
NO_CHARGES


@<TRIPOS>ATOM
      1 OG        193.2300   16.7200   92.8900 O.3       1 SER1        0.0000 
      2 OG        201.0200   21.2100   81.0700 O.3       1 SER1        0.0000 
      3 O         197.6200   19.6300   83.5600 O.2       2 ALA2        0.0000 
      4 O         198.5300   18.9600   82.5700 O.2       2 ALA2        0.0000 
      5 N         196.7700   19.9500   87.1200 N.am      2 ALA2        0.0000 
      6 N         199.7000   19.2600   83.4600 N.am      2 ALA2        0.0000 
      7 N         199.5000   17.9500   84.1600 N.am      2 ALA2        0.0000 
      8 N         195.2100   22.2600   90.9600 N.am      2 ALA2        0.0000 
      9 N         195.0000   20.9500   91.6600 N.am      2 ALA2        0.0000 
     10 N         195.7100   18.9700   91.3800 N.am      2 ALA2        0.0000 
     11 O         196.6300   18.3000   90.4000 O.2       2 ALA2        0.0000 
     12 N         202.3900   22.8100   81.2500 N.am      2 ALA2        0.0000 
     13 N         202.1900   21.5000   81.9500 N.am      2 ALA2        0.0000 
     14 N         196.3800   22.5500   91.8500 N.am      2 ALA2        0.0000 
     15 N         196.1800   21.2400   92.5500 N.am      2 ALA2        0.0000 
     16 N         197.0900   20.5700   91.5600 N.am      2 ALA2        0.0000 
     17 N         196.6900   17.9500   92.9700 N.am      2 ALA2        0.0000 
     18 N         203.5700   23.1100   82.1400 N.am      2 ALA2        0.0000 
     19 N         203.3700   21.8000   82.8400 N.am      2 ALA2        0.0000 
     20 N         204.2800   21.1300   81.8500 N.am      2 ALA2        0.0000 
     21 N         204.0700   19.8200   82.5600 N.am      2 ALA2        0.0000 
     22 N         204.5400   22.0900   83.7200 N.am      2 ALA2        0.0000 
     23 N         205.2500   20.1100   83.4400 N.am      2 ALA2        0.0000 
     24 N         205.9100   23.7000   83.9100 N.am      2 ALA2        0.0000 
     25 N         205.7100   22.3900   84.6100 N.am      2 ALA2        0.0000 
     26 N         205.5100   21.0800   85.3100 N.am      2 ALA2        0.0000 
     27 N         206.2200   19.1000   85.0300 N.am      2 ALA2        0.0000 
     28 N         207.0900   23.9900   84.7900 N.am      2 ALA2        0.0000 
     29 N         206.8900   22.6800   85.5000 N.am      2 ALA2        0.0000 
     30 N         206.6900   21.3700   86.2000 N.am      2 ALA2        0.0000 
     31 O         207.3500   24.9500   86.6600 O.2       2 ALA2        0.0000 
     32 OD1       199.6400   19.6000   80.8900 O.co2     3 ASP3        0.0000 
     33 OD1       200.8200   19.9000   81.7700 O.co2     3 ASP3        0.0000 
     34 OD1       200.6100   18.5900   82.4700 O.co2     3 ASP3        0.0000 
     35 OD1       201.9900   20.1900   82.6600 O.co2     3 ASP3        0.0000 
     36 OD1       201.7900   18.8800   83.3600 O.co2     3 ASP3        0.0000 
     37 OD1       203.1000   20.8300   80.9700 O.co2     3 ASP3        0.0000 
     38 OD1       200.0300   19.8700   87.9000 O.co2     3 ASP3        0.0000 
     39 NZ        194.3400   17.3600   91.2000 N.4       4 LYS4        0.0000 
     40 NZ        195.2500   16.7000   90.2100 N.4       4 LYS4        0.0000 
     41 NZ        195.3100   16.3500   92.7900 N.4       4 LYS4        0.0000 
     42 NZ        205.0500   18.8000   84.1500 N.4       4 LYS4        0.0000 
     43 NZ        206.0200   17.7900   85.7300 N.4       4 LYS4        0.0000 
     44 CZ        195.4500   18.0000   89.5100 C.ar      5 PHE5        0.0000 
     45 CZ        196.5600   18.6500   87.8200 C.ar      5 PHE5        0.0000 
     46 CZ        198.0800   21.9000   84.7300 C.ar      5 PHE5        0.0000 
     47 CZ        197.8800   20.6000   85.4300 C.ar      5 PHE5        0.0000 
     48 CZ        197.6800   19.2900   86.1300 C.ar      5 PHE5        0.0000 
     49 CZ        198.5900   18.6200   85.1500 C.ar      5 PHE5        0.0000 
     50 CZ        196.1200   21.5900   89.9800 C.ar      5 PHE5        0.0000 
     51 CZ        197.0300   20.9200   88.9900 C.ar      5 PHE5        0.0000 
     52 CZ        198.1400   21.5600   87.3000 C.ar      5 PHE5        0.0000 
     53 CZ        197.7400   18.9400   88.7100 C.ar      5 PHE5        0.0000 
     54 CZ        197.5400   17.6300   89.4100 C.ar      5 PHE5        0.0000 
     55 CZ        199.2600   22.2000   85.6100 C.ar      5 PHE5        0.0000 
     56 CZ        199.0500   20.8900   86.3200 C.ar      5 PHE5        0.0000 
     57 CZ        198.8500   19.5800   87.0200 C.ar      5 PHE5        0.0000 
     58 CZ        198.6500   18.2700   87.7200 C.ar      5 PHE5        0.0000 
     59 CZ        197.4900   23.1900   90.1600 C.ar      5 PHE5        0.0000 
     60 CZ        197.2900   21.8800   90.8600 C.ar      5 PHE5        0.0000 
     61 CZ        198.4000   22.5200   89.1700 C.ar      5 PHE5        0.0000 
     62 CZ        199.3200   21.8500   88.1900 C.ar      5 PHE5        0.0000 
     63 CZ        200.2300   21.1800   87.2000 C.ar      5 PHE5        0.0000 
     64 CZ        201.5400   23.1300   84.8100 C.ar      5 PHE5        0.0000 
     65 CZ        203.6300   22.7600   84.7100 C.ar      5 PHE5        0.0000 
     66 CZ        204.8000   23.0500   85.6000 C.ar      5 PHE5        0.0000 
     67 CZ        205.9800   23.3500   86.4800 C.ar      5 PHE5        0.0000 
     68 CA        198.7300   20.2700   81.8700 C.3       6 GLY6        0.0000 
     69 CA        193.4300   18.0300   92.1800 C.3       6 GLY6        0.0000 
     70 CA        194.5400   18.6700   90.5000 C.3       6 GLY6        0.0000 
     71 CA        198.9900   21.2400   83.7400 C.3       6 GLY6        0.0000 
     72 CA        200.1100   21.8800   82.0500 C.3       6 GLY6        0.0000 
     73 CA        199.9000   20.5700   82.7600 C.3       6 GLY6        0.0000 
     74 CA        194.8000   19.6400   92.3700 C.3       6 GLY6        0.0000 
     75 CA        194.6000   18.3300   93.0700 C.3       6 GLY6        0.0000 
     76 CA        194.4000   17.0200   93.7700 C.3       6 GLY6        0.0000 
     77 CA        195.9200   20.2800   90.6800 C.3       6 GLY6        0.0000 
     78 CA        195.5100   17.6600   92.0800 C.3       6 GLY6        0.0000 
     79 CA        196.4200   16.9900   91.1000 C.3       6 GLY6        0.0000 
     80 CA        200.1700   21.5300   84.6300 C.3       6 GLY6        0.0000 
     81 CA        199.7600   18.9100   86.0300 C.3       6 GLY6        0.0000 
     82 CA        201.2800   22.1700   82.9400 C.3       6 GLY6        0.0000 
     83 CA        200.6700   18.2400   85.0500 C.3       6 GLY6        0.0000 
     84 CA        198.2000   21.2100   89.8800 C.3       6 GLY6        0.0000 
     85 CA        198.0000   19.9000   90.5800 C.3       6 GLY6        0.0000 
     86 CA        197.8000   18.5900   91.2800 C.3       6 GLY6        0.0000 
     87 CA        199.1100   20.5400   88.8900 C.3       6 GLY6        0.0000 
     88 CA        198.9100   19.2300   89.5900 C.3       6 GLY6        0.0000 
     89 CA        202.6600   23.7800   83.1200 C.3       6 GLY6        0.0000 
     90 CA        198.4700   22.1800   91.7500 C.3       6 GLY6        0.0000 
     91 CA        203.8300   24.0700   84.0100 C.3       6 GLY6        0.0000 
     92 CA        204.7400   23.4000   83.0200 C.3       6 GLY6        0.0000 
     93 CA        205.9600   18.1300   83.1600 C.3       6 GLY6        0.0000 
     94 CA        205.0000   24.3600   84.8900 C.3       6 GLY6        0.0000 
     95 CA        205.1100   18.4600   86.7200 C.3       6 GLY6        0.0000 
     96 CA        207.1300   18.4300   84.0500 C.3       6 GLY6        0.0000 
     97 DU        198.7900   19.9300   84.4400 H         7 CUB7        0.0000 
     98 DU        196.8300   19.6100   89.6900 H         7 CUB7        0.0000 
     99 DU        197.9400   20.2500   88.0000 H         7 CUB7        0.0000 
    100 DU        199.9600   20.2200   85.3300 H         7 CUB7        0.0000 
    101 DU        201.0800   20.8600   83.6400 H         7 CUB7        0.0000 
    102 DU        200.8800   19.5500   84.3500 H         7 CUB7        0.0000 
    103 DU        202.4500   22.4700   83.8200 H         7 CUB7        0.0000 
    104 DU        203.1600   20.4900   83.5400 H         7 CUB7        0.0000 
    105 DU        205.3100   19.7700   86.0200 H         7 CUB7        0.0000 
    106 DU        206.4800   20.0600   86.9000 H         7 CUB7        0.0000 
@<TRIPOS>BOND
@<TRIPOS>SUBSTRUCTURE
     1 SER1        1 GROUP   
     2 ALA2        3 GROUP   
     3 ASP3       32 GROUP   
     4 LYS4       39 GROUP   
     5 PHE5       44 GROUP   
     6 GLY6       68 GROUP   
     7 CUB7       97 GROUP   
@<TRIPOS>SET

