#    Name: 6om8_16_UDX
#    Modification time : Fri May 22 19:39:19 2020

@<TRIPOS>MOLECULE
6om8_16_UDX
   34    36     1     0     0
SMALL
NO_CHARGES


@<TRIPOS>ATOM
      1 C1'       217.9210   53.5780  116.7520 C.3       1 UDX501      0.0000 
      2 C2'       217.0000   52.3630  116.7900 C.3       1 UDX501      0.0000 
      3 O2'       217.0270   51.7120  115.5110 O.3       1 UDX501      0.0000 
      4 C3'       215.5830   52.7970  117.1560 C.3       1 UDX501      0.0000 
      5 O3'       214.7430   51.6450  117.2660 O.3       1 UDX501      0.0000 
      6 C4'       215.6340   53.5750  118.4710 C.3       1 UDX501      0.0000 
      7 O4'       214.3440   54.0550  118.8650 O.3       1 UDX501      0.0000 
      8 C5'       216.5760   54.7630  118.3050 C.3       1 UDX501      0.0000 
      9 O5'       217.8830   54.2810  117.9900 O.3       1 UDX501      0.0000 
     10 PB        218.5160   55.5620  115.1410 P.3       1 UDX501      0.0000 
     11 O1B       219.7140   55.5770  116.0690 O.co2     1 UDX501      0.0000 
     12 O2B       217.7180   56.8290  114.9200 O.co2     1 UDX501      0.0000 
     13 O3B       217.5100   54.4310  115.6840 O.3       1 UDX501      0.0000 
     14 O3A       219.0120   55.0690  113.6800 O.3       1 UDX501      0.0000 
     15 PA        219.4890   53.5820  113.2650 P.3       1 UDX501      0.0000 
     16 O1A       218.9580   53.2750  111.8890 O.co2     1 UDX501      0.0000 
     17 O2A       219.3100   52.5620  114.3510 O.co2     1 UDX501      0.0000 
     18 O5D       221.0590   53.8680  113.1040 O.3       1 UDX501      0.0000 
     19 C5D       221.9360   53.8410  114.2290 C.3       1 UDX501      0.0000 
     20 C4D       223.3790   53.9020  113.7380 C.3       1 UDX501      0.0000 
     21 O4D       223.8210   52.5900  113.3750 O.3       1 UDX501      0.0000 
     22 C3D       223.5260   54.7630  112.4950 C.3       1 UDX501      0.0000 
     23 O3D       224.7410   55.5130  112.5940 O.3       1 UDX501      0.0000 
     24 C2D       223.6580   53.7710  111.3590 C.3       1 UDX501      0.0000 
     25 O2D       224.4160   54.3110  110.2730 O.3       1 UDX501      0.0000 
     26 C1D       224.3350   52.5920  112.0380 C.3       1 UDX501      0.0000 
     27 N1        223.9970   51.3260  111.4000 N.am      1 UDX501      0.0000 
     28 C6        222.7280   50.9250  111.3520 C.2       1 UDX501      0.0000 
     29 C2        225.0150   50.5220  110.8570 C.2       1 UDX501      0.0000 
     30 O2        226.2070   50.9150  110.9200 O.2       1 UDX501      0.0000 
     31 N3        224.6990   49.3500  110.2780 N.am      1 UDX501      0.0000 
     32 C4        223.4250   48.9390  110.2110 C.2       1 UDX501      0.0000 
     33 O4        223.1320   47.8440  109.6790 O.2       1 UDX501      0.0000 
     34 C5        222.4140   49.7150  110.7540 C.2       1 UDX501      0.0000 
@<TRIPOS>BOND
     1    1    2 1    
     2    1    9 1    
     3    1   13 1    
     4    2    3 1    
     5    2    4 1    
     6    4    5 1    
     7    4    6 1    
     8    6    7 1    
     9    6    8 1    
    10    8    9 1    
    11   10   11 ar   
    12   10   12 ar   
    13   10   13 1    
    14   10   14 1    
    15   14   15 1    
    16   15   16 ar   
    17   15   17 ar   
    18   15   18 1    
    19   18   19 1    
    20   19   20 1    
    21   20   21 1    
    22   20   22 1    
    23   21   26 1    
    24   22   23 1    
    25   22   24 1    
    26   24   25 1    
    27   24   26 1    
    28   26   27 1    
    29   27   28 1    
    30   27   29 1    
    31   28   34 2    
    32   29   30 2    
    33   29   31 1    
    34   31   32 1    
    35   32   33 2    
    36   32   34 1    
@<TRIPOS>SUBSTRUCTURE
     1 UDX501      1 GROUP   
@<TRIPOS>SET

