#    Name: 6om8_13_UDX
#    Modification time : Fri May 22 19:38:58 2020

@<TRIPOS>MOLECULE
6om8_13_UDX
   34    36     1     0     0
SMALL
NO_CHARGES


@<TRIPOS>ATOM
      1 C1'       231.1840   17.8260  114.1620 C.3       1 UDX500      0.0000 
      2 C2'       232.0040   18.9250  113.4800 C.3       1 UDX500      0.0000 
      3 O2'       231.5520   19.0850  112.1290 O.3       1 UDX500      0.0000 
      4 C3'       233.5020   18.6230  113.5330 C.3       1 UDX500      0.0000 
      5 O3'       234.2650   19.7270  113.0280 O.3       1 UDX500      0.0000 
      6 C4'       233.9000   18.3620  114.9790 C.3       1 UDX500      0.0000 
      7 O4'       235.2900   18.0350  115.0850 O.3       1 UDX500      0.0000 
      8 C5'       233.0550   17.2220  115.5330 C.3       1 UDX500      0.0000 
      9 O5'       231.6770   17.5920  115.4880 O.3       1 UDX500      0.0000 
     10 PB        230.4550   15.2760  113.8250 P.3       1 UDX500      0.0000 
     11 O1B       230.0620   14.5540  112.5620 O.co2     1 UDX500      0.0000 
     12 O2B       229.3890   15.5900  114.8470 O.co2     1 UDX500      0.0000 
     13 O3B       231.2210   16.6290  113.3800 O.3       1 UDX500      0.0000 
     14 O3A       231.6570   14.4460  114.5140 O.3       1 UDX500      0.0000 
     15 PA        231.5160   12.9400  115.0830 P.3       1 UDX500      0.0000 
     16 O1A       230.0760   12.6480  115.4580 O.co2     1 UDX500      0.0000 
     17 O2A       232.6210   12.6640  116.0820 O.co2     1 UDX500      0.0000 
     18 O5D       231.8640   12.1310  113.7340 O.3       1 UDX500      0.0000 
     19 C5D       233.1850   12.0650  113.2030 C.3       1 UDX500      0.0000 
     20 C4D       233.3570   10.6740  112.6150 C.3       1 UDX500      0.0000 
     21 O4D       234.5030   10.5960  111.7590 O.3       1 UDX500      0.0000 
     22 C3D       233.5660    9.6640  113.7380 C.3       1 UDX500      0.0000 
     23 O3D       232.5340    8.6700  113.6860 O.3       1 UDX500      0.0000 
     24 C2D       234.9420    9.0670  113.4890 C.3       1 UDX500      0.0000 
     25 O2D       234.9720    7.6630  113.7600 O.3       1 UDX500      0.0000 
     26 C1D       235.1700    9.3570  112.0160 C.3       1 UDX500      0.0000 
     27 N1        236.5840    9.4500  111.6690 N.am      1 UDX500      0.0000 
     28 C6        237.4040   10.2700  112.3290 C.2       1 UDX500      0.0000 
     29 C2        237.0710    8.6580  110.6100 C.2       1 UDX500      0.0000 
     30 O2        236.2890    7.8880  110.0030 O.2       1 UDX500      0.0000 
     31 N3        238.3620    8.7240  110.2640 N.am      1 UDX500      0.0000 
     32 C4        239.2020    9.5400  110.9110 C.2       1 UDX500      0.0000 
     33 O4        240.4040    9.5890  110.5750 O.2       1 UDX500      0.0000 
     34 C5        238.7430   10.3300  111.9580 C.2       1 UDX500      0.0000 
@<TRIPOS>BOND
     1    1    2 1    
     2    1    9 1    
     3    1   13 1    
     4    2    3 1    
     5    2    4 1    
     6    4    5 1    
     7    4    6 1    
     8    6    7 1    
     9    6    8 1    
    10    8    9 1    
    11   10   11 ar   
    12   10   12 ar   
    13   10   13 1    
    14   10   14 1    
    15   14   15 1    
    16   15   16 ar   
    17   15   17 ar   
    18   15   18 1    
    19   18   19 1    
    20   19   20 1    
    21   20   21 1    
    22   20   22 1    
    23   21   26 1    
    24   22   23 1    
    25   22   24 1    
    26   24   25 1    
    27   24   26 1    
    28   26   27 1    
    29   27   28 1    
    30   27   29 1    
    31   28   34 2    
    32   29   30 2    
    33   29   31 1    
    34   31   32 1    
    35   32   33 2    
    36   32   34 1    
@<TRIPOS>SUBSTRUCTURE
     1 UDX500      1 GROUP   
@<TRIPOS>SET

