#    Name: 6om8_6_UDX
#    Modification time : Fri May 22 19:38:15 2020

@<TRIPOS>MOLECULE
6om8_6_UDX
   34    36     1     0     0
SMALL
NO_CHARGES


@<TRIPOS>ATOM
      1 C1'       157.5930   55.1860   28.7690 C.3       1 UDX501      0.0000 
      2 C2'       156.7880   54.0630   28.1180 C.3       1 UDX501      0.0000 
      3 O2'       157.4550   53.5930   26.9390 O.3       1 UDX501      0.0000 
      4 C3'       155.3870   54.5260   27.7580 C.3       1 UDX501      0.0000 
      5 O3'       154.6510   53.3900   27.2940 O.3       1 UDX501      0.0000 
      6 C4'       154.7290   55.1490   28.9860 C.3       1 UDX501      0.0000 
      7 O4'       153.4570   55.6990   28.6370 O.3       1 UDX501      0.0000 
      8 C5'       155.6040   56.2720   29.5250 C.3       1 UDX501      0.0000 
      9 O5'       156.8900   55.7580   29.8720 O.3       1 UDX501      0.0000 
     10 PB        159.2290   57.0700   27.9290 P.3       1 UDX501      0.0000 
     11 O1B       159.7570   56.9060   29.3300 O.co2     1 UDX501      0.0000 
     12 O2B       158.8980   58.4500   27.3960 O.co2     1 UDX501      0.0000 
     13 O3B       157.8890   56.1780   27.7930 O.3       1 UDX501      0.0000 
     14 O3A       160.3390   56.4480   26.9180 O.3       1 UDX501      0.0000 
     15 PA        160.8020   54.9090   26.7460 P.3       1 UDX501      0.0000 
     16 O1A       161.0140   54.6500   25.2700 O.co2     1 UDX501      0.0000 
     17 O2A       159.9760   53.9470   27.5490 O.co2     1 UDX501      0.0000 
     18 O5D       162.2490   54.9670   27.4350 O.3       1 UDX501      0.0000 
     19 C5D       162.3820   55.0930   28.8460 C.3       1 UDX501      0.0000 
     20 C4D       163.8550   54.9220   29.2060 C.3       1 UDX501      0.0000 
     21 O4D       164.2400   53.5570   29.0270 O.3       1 UDX501      0.0000 
     22 C3D       164.7800   55.7500   28.3250 C.3       1 UDX501      0.0000 
     23 O3D       165.7940   56.2910   29.1800 O.3       1 UDX501      0.0000 
     24 C2D       165.3990   54.7550   27.3670 C.3       1 UDX501      0.0000 
     25 O2D       166.7330   55.1150   26.9920 O.3       1 UDX501      0.0000 
     26 C1D       165.4030   53.4890   28.2000 C.3       1 UDX501      0.0000 
     27 N1        165.3890   52.2550   27.4170 N.am      1 UDX501      0.0000 
     28 C6        164.3320   51.9010   26.6830 C.2       1 UDX501      0.0000 
     29 C2        166.5190   51.4160   27.4860 C.2       1 UDX501      0.0000 
     30 O2        167.5000   51.7620   28.1800 O.2       1 UDX501      0.0000 
     31 N3        166.5510   50.2630   26.8120 N.am      1 UDX501      0.0000 
     32 C4        165.5100   49.8900   26.0610 C.2       1 UDX501      0.0000 
     33 O4        165.5640   48.8110   25.4300 O.2       1 UDX501      0.0000 
     34 C5        164.3780   50.6990   25.9840 C.2       1 UDX501      0.0000 
@<TRIPOS>BOND
     1    1    2 1    
     2    1    9 1    
     3    1   13 1    
     4    2    3 1    
     5    2    4 1    
     6    4    5 1    
     7    4    6 1    
     8    6    7 1    
     9    6    8 1    
    10    8    9 1    
    11   10   11 ar   
    12   10   12 ar   
    13   10   13 1    
    14   10   14 1    
    15   14   15 1    
    16   15   16 ar   
    17   15   17 ar   
    18   15   18 1    
    19   18   19 1    
    20   19   20 1    
    21   20   21 1    
    22   20   22 1    
    23   21   26 1    
    24   22   23 1    
    25   22   24 1    
    26   24   25 1    
    27   24   26 1    
    28   26   27 1    
    29   27   28 1    
    30   27   29 1    
    31   28   34 2    
    32   29   30 2    
    33   29   31 1    
    34   31   32 1    
    35   32   33 2    
    36   32   34 1    
@<TRIPOS>SUBSTRUCTURE
     1 UDX501      1 GROUP   
@<TRIPOS>SET

