#    Name: 6om8_19_UDX_CAVITY_N1_4
#    Modification time : Fri May 22 19:39:42 2020

@<TRIPOS>MOLECULE
6om8_19_UDX_CAVITY_N1_4
   85     0     7     0     0
SMALL
NO_CHARGES


@<TRIPOS>ATOM
      1 OG        224.8700   18.0600   27.6400 O.3       1 SER1        0.0000 
      2 OG        224.6600   16.7500   28.3400 O.3       1 SER1        0.0000 
      3 OG        226.0400   18.3600   28.5200 O.3       1 SER1        0.0000 
      4 OG        225.8400   17.0500   29.2300 O.3       1 SER1        0.0000 
      5 OG        226.7500   16.3800   28.2400 O.3       1 SER1        0.0000 
      6 OG        227.9200   16.6700   29.1300 O.3       1 SER1        0.0000 
      7 OG        229.1000   16.9700   30.0100 O.3       1 SER1        0.0000 
      8 N         224.3400   16.1400   23.8900 N.am      2 ALA2        0.0000 
      9 O         224.1400   14.8300   24.6000 O.2       2 ALA2        0.0000 
     10 O         224.4000   15.7900   26.4700 O.2       2 ALA2        0.0000 
     11 O         225.3100   15.1200   25.4800 O.2       2 ALA2        0.0000 
     12 O         226.9300   12.4700   24.2100 O.2       2 ALA2        0.0000 
     13 N         224.4600   15.4400   29.0400 N.am      2 ALA2        0.0000 
     14 N         225.7800   17.3900   26.6500 N.am      2 ALA2        0.0000 
     15 N         226.6900   16.7200   25.6700 N.am      2 ALA2        0.0000 
     16 N         225.8800   11.4900   28.4800 N.am      2 ALA2        0.0000 
     17 N         225.6800   10.1800   29.1800 N.am      2 ALA2        0.0000 
     18 O         226.7900   10.8200   27.4900 O.2       2 ALA2        0.0000 
     19 N         226.5900    9.5100   28.1900 N.am      2 ALA2        0.0000 
     20 O         227.5000    8.8400   27.2100 O.2       2 ALA2        0.0000 
     21 O         224.9300   17.7200   30.2100 O.2       2 ALA2        0.0000 
     22 N         225.4300   14.4300   30.6300 N.am      2 ALA2        0.0000 
     23 N         225.2300   13.1200   31.3300 N.am      2 ALA2        0.0000 
     24 N         226.9500   17.6900   27.5400 N.am      2 ALA2        0.0000 
     25 N         226.1400   12.4500   30.3500 N.am      2 ALA2        0.0000 
     26 O         225.9000   16.7000   31.8000 O.2       2 ALA2        0.0000 
     27 O         227.3200   12.7400   31.2300 O.2       2 ALA2        0.0000 
     28 O         228.2300   12.0800   30.2500 O.2       2 ALA2        0.0000 
     29 OD1       226.4900   15.4200   26.3700 O.co2     3 ASP3        0.0000 
     30 OD1       226.2900   14.1100   27.0700 O.co2     3 ASP3        0.0000 
     31 OD1       227.4000   14.7500   25.3800 O.co2     3 ASP3        0.0000 
     32 OD1       227.0000   12.1300   26.7900 O.co2     3 ASP3        0.0000 
     33 OD1       228.3100   14.0800   24.4000 O.co2     3 ASP3        0.0000 
     34 OD1       227.9100   11.4600   25.8000 O.co2     3 ASP3        0.0000 
     35 OD1       228.2100    6.8600   26.9300 O.co2     3 ASP3        0.0000 
     36 OD1       226.5500   15.0700   28.9400 O.co2     3 ASP3        0.0000 
     37 OD1       227.6600   15.7100   27.2500 O.co2     3 ASP3        0.0000 
     38 OD1       227.2600   13.0900   28.6600 O.co2     3 ASP3        0.0000 
     39 OD1       227.0600   11.7800   29.3600 O.co2     3 ASP3        0.0000 
     40 OD1       227.9700   11.1100   28.3800 O.co2     3 ASP3        0.0000 
     41 OD1       228.8800   10.4400   27.3900 O.co2     3 ASP3        0.0000 
     42 OD1       228.6800    9.1300   28.1000 O.co2     3 ASP3        0.0000 
     43 OD1       229.5900    8.4600   27.1100 O.co2     3 ASP3        0.0000 
     44 OD1       228.6300   14.7000   28.8400 O.co2     3 ASP3        0.0000 
     45 OD1       228.4300   13.3900   29.5500 O.co2     3 ASP3        0.0000 
     46 OD1       229.1400   11.4100   29.2600 O.co2     3 ASP3        0.0000 
     47 OD1       229.8500    9.4300   28.9800 O.co2     3 ASP3        0.0000 
     48 OD1       229.8100   14.9900   29.7300 O.co2     3 ASP3        0.0000 
     49 OD1       229.6100   13.6800   30.4300 O.co2     3 ASP3        0.0000 
     50 NZ        231.1800   16.5900   29.9100 N.4       4 LYS4        0.0000 
     51 CZ        230.0500   10.7400   28.2800 C.ar      5 PHE5        0.0000 
     52 CA        225.0500   14.1600   23.6100 C.3       6 GLY6        0.0000 
     53 CA        224.6000   17.1000   25.7700 C.3       6 GLY6        0.0000 
     54 CA        225.5100   16.4300   24.7800 C.3       6 GLY6        0.0000 
     55 CA        225.1100   13.8100   26.1900 C.3       6 GLY6        0.0000 
     56 CA        226.0200   13.1400   25.2000 C.3       6 GLY6        0.0000 
     57 CA        223.5500   16.1100   30.0300 C.3       6 GLY6        0.0000 
     58 CA        225.3700   14.7700   28.0600 C.3       6 GLY6        0.0000 
     59 CA        225.1700   13.4700   28.7600 C.3       6 GLY6        0.0000 
     60 CA        224.9700   12.1600   29.4600 C.3       6 GLY6        0.0000 
     61 CA        226.0800   12.8000   27.7700 C.3       6 GLY6        0.0000 
     62 CA        227.6000   16.0600   24.6800 C.3       6 GLY6        0.0000 
     63 CA        224.7300   16.4100   30.9100 C.3       6 GLY6        0.0000 
     64 CA        224.5200   15.1000   31.6200 C.3       6 GLY6        0.0000 
     65 CA        226.8500   10.4700   30.0700 C.3       6 GLY6        0.0000 
     66 CA        226.6500    9.1600   30.7700 C.3       6 GLY6        0.0000 
     67 CA        227.7700    9.8000   29.0800 C.3       6 GLY6        0.0000 
     68 CA        227.5600    8.4900   29.7800 C.3       6 GLY6        0.0000 
     69 CA        225.7000   15.3900   32.5000 C.3       6 GLY6        0.0000 
     70 CA        226.8100   16.0300   30.8100 C.3       6 GLY6        0.0000 
     71 CA        226.6100   14.7200   31.5200 C.3       6 GLY6        0.0000 
     72 CA        226.4100   13.4100   32.2200 C.3       6 GLY6        0.0000 
     73 CA        227.7200   15.3600   29.8300 C.3       6 GLY6        0.0000 
     74 CA        227.5200   14.0500   30.5300 C.3       6 GLY6        0.0000 
     75 CA        228.0300   10.7700   30.9500 C.3       6 GLY6        0.0000 
     76 CA        228.9400   10.1000   29.9700 C.3       6 GLY6        0.0000 
     77 CA        228.9000   15.6600   30.7100 C.3       6 GLY6        0.0000 
     78 CA        228.6900   14.3500   31.4200 C.3       6 GLY6        0.0000 
     79 CA        230.2700   17.2600   30.9000 C.3       6 GLY6        0.0000 
     80 CA        230.0700   15.9500   31.6000 C.3       6 GLY6        0.0000 
     81 DU        226.4300   15.7600   23.7900 H         7 CUB7        0.0000 
     82 DU        226.2200   14.4500   24.5000 H         7 CUB7        0.0000 
     83 DU        225.5800   16.0800   27.3500 H         7 CUB7        0.0000 
     84 DU        225.6400   15.7400   29.9300 H         7 CUB7        0.0000 
     85 DU        226.3500   13.7600   29.6500 H         7 CUB7        0.0000 
@<TRIPOS>BOND
@<TRIPOS>SUBSTRUCTURE
     1 SER1        1 GROUP   
     2 ALA2        8 GROUP   
     3 ASP3       29 GROUP   
     4 LYS4       50 GROUP   
     5 PHE5       51 GROUP   
     6 GLY6       52 GROUP   
     7 CUB7       81 GROUP   
@<TRIPOS>SET

