#    Name: 6om8_4_UDX_CAVITY_N1_6
#    Modification time : Fri May 22 19:38:06 2020

@<TRIPOS>MOLECULE
6om8_4_UDX_CAVITY_N1_6
  103     0     7     0     0
SMALL
NO_CHARGES


@<TRIPOS>ATOM
      1 OG        137.0600   25.6200   80.5600 O.3       1 SER1        0.0000 
      2 OG        137.7200   29.2100   81.0200 O.3       1 SER1        0.0000 
      3 OG        138.4300   27.2300   80.7400 O.3       1 SER1        0.0000 
      4 OG        139.6100   27.5200   81.6300 O.3       1 SER1        0.0000 
      5 OG        147.3800   32.5300   89.9800 O.3       1 SER1        0.0000 
      6 N         136.1000   31.8500   82.2900 N.am      2 ALA2        0.0000 
      7 N         136.3600   32.8200   84.1600 N.am      2 ALA2        0.0000 
      8 O         137.4800   33.4600   82.4700 O.2       2 ALA2        0.0000 
      9 N         137.2700   32.1500   83.1800 N.am      2 ALA2        0.0000 
     10 N         137.0700   30.8400   83.8800 N.am      2 ALA2        0.0000 
     11 N         136.8700   29.5300   84.5800 N.am      2 ALA2        0.0000 
     12 N         138.3900   32.7900   81.4900 N.am      2 ALA2        0.0000 
     13 N         138.1900   31.4800   82.1900 N.am      2 ALA2        0.0000 
     14 N         137.7800   28.8600   83.6000 N.am      2 ALA2        0.0000 
     15 O         140.7800   27.8200   82.5100 O.2       2 ALA2        0.0000 
     16 N         142.4200   30.3800   84.5700 N.am      2 ALA2        0.0000 
     17 N         144.7700   30.9700   86.3400 N.am      2 ALA2        0.0000 
     18 N         144.8300   30.6300   88.9100 N.am      2 ALA2        0.0000 
     19 N         143.4700   34.2400   92.0500 N.am      2 ALA2        0.0000 
     20 N         144.6400   34.5400   92.9400 N.am      2 ALA2        0.0000 
     21 N         145.7600   35.1800   91.2500 N.am      2 ALA2        0.0000 
     22 N         145.5500   33.8700   91.9500 N.am      2 ALA2        0.0000 
     23 N         146.6700   34.5100   90.2600 N.am      2 ALA2        0.0000 
     24 OD1       136.3000   33.1600   81.5900 O.co2     3 ASP3        0.0000 
     25 OD1       136.5600   34.1300   83.4600 O.co2     3 ASP3        0.0000 
     26 OD1       137.7400   34.4200   84.3500 O.co2     3 ASP3        0.0000 
     27 OD1       138.7100   33.4100   85.9300 O.co2     3 ASP3        0.0000 
     28 OD1       139.4800   31.0800   88.2300 O.co2     3 ASP3        0.0000 
     29 OD1       140.6600   31.3800   89.1100 O.co2     3 ASP3        0.0000 
     30 OD1       145.2900   32.9000   90.0800 O.co2     3 ASP3        0.0000 
     31 OD1       145.0900   31.5900   90.7800 O.co2     3 ASP3        0.0000 
     32 OD1       146.0000   30.9200   89.8000 O.co2     3 ASP3        0.0000 
     33 OD1       145.3500   32.5600   92.6500 O.co2     3 ASP3        0.0000 
     34 OD1       146.4700   33.2000   90.9700 O.co2     3 ASP3        0.0000 
     35 NZ        136.4100   27.2600   83.4100 N.4       4 LYS4        0.0000 
     36 NZ        137.3200   26.5900   82.4300 N.4       4 LYS4        0.0000 
     37 NZ        138.4900   26.8800   83.3100 N.4       4 LYS4        0.0000 
     38 CZ        138.6500   33.7500   83.3600 C.ar      5 PHE5        0.0000 
     39 CZ        138.4500   32.4400   84.0600 C.ar      5 PHE5        0.0000 
     40 CZ        139.3600   31.7700   83.0800 C.ar      5 PHE5        0.0000 
     41 CZ        138.7600   27.8500   85.1900 C.ar      5 PHE5        0.0000 
     42 CZ        139.6700   27.1800   84.2000 C.ar      5 PHE5        0.0000 
     43 CZ        139.6200   32.7400   84.9500 C.ar      5 PHE5        0.0000 
     44 CZ        140.5300   32.0700   83.9600 C.ar      5 PHE5        0.0000 
     45 CZ        140.1300   29.4500   85.3700 C.ar      5 PHE5        0.0000 
     46 CZ        141.4500   31.4000   82.9800 C.ar      5 PHE5        0.0000 
     47 CZ        141.0400   28.7800   84.3800 C.ar      5 PHE5        0.0000 
     48 CZ        139.8900   33.7000   86.8200 C.ar      5 PHE5        0.0000 
     49 CZ        139.6800   32.3900   87.5200 C.ar      5 PHE5        0.0000 
     50 CZ        140.8000   33.0300   85.8300 C.ar      5 PHE5        0.0000 
     51 CZ        141.5100   31.0500   85.5500 C.ar      5 PHE5        0.0000 
     52 CZ        141.3100   29.7400   86.2500 C.ar      5 PHE5        0.0000 
     53 CZ        140.8600   32.6900   88.4100 C.ar      5 PHE5        0.0000 
     54 CZ        141.7700   32.0200   87.4200 C.ar      5 PHE5        0.0000 
     55 CZ        142.6800   31.3500   86.4400 C.ar      5 PHE5        0.0000 
     56 CZ        142.4800   30.0400   87.1400 C.ar      5 PHE5        0.0000 
     57 CZ        141.1200   33.6500   90.2800 C.ar      5 PHE5        0.0000 
     58 CZ        142.0300   32.9800   89.2900 C.ar      5 PHE5        0.0000 
     59 CZ        143.1500   33.6200   87.6100 C.ar      5 PHE5        0.0000 
     60 CZ        144.0600   32.9500   86.6200 C.ar      5 PHE5        0.0000 
     61 CZ        143.8600   31.6400   87.3200 C.ar      5 PHE5        0.0000 
     62 CZ        143.6500   30.3300   88.0300 C.ar      5 PHE5        0.0000 
     63 CZ        142.5000   35.2600   90.4600 C.ar      5 PHE5        0.0000 
     64 CZ        142.2900   33.9500   91.1700 C.ar      5 PHE5        0.0000 
     65 CZ        143.4100   34.5900   89.4800 C.ar      5 PHE5        0.0000 
     66 CA        136.1400   26.2900   81.5400 C.3       6 GLY6        0.0000 
     67 CA        137.0100   31.1800   81.3100 C.3       6 GLY6        0.0000 
     68 CA        136.8100   29.8800   82.0100 C.3       6 GLY6        0.0000 
     69 CA        136.6100   28.5700   82.7100 C.3       6 GLY6        0.0000 
     70 CA        137.5200   27.9000   81.7300 C.3       6 GLY6        0.0000 
     71 CA        137.9800   30.1700   82.8900 C.3       6 GLY6        0.0000 
     72 CA        137.5800   27.5500   84.3000 C.3       6 GLY6        0.0000 
     73 CA        138.6900   28.1900   82.6100 C.3       6 GLY6        0.0000 
     74 CA        137.5400   33.1100   85.0500 C.3       6 GLY6        0.0000 
     75 CA        138.2500   31.1300   84.7700 C.3       6 GLY6        0.0000 
     76 CA        139.1600   30.4600   83.7800 C.3       6 GLY6        0.0000 
     77 CA        140.0700   29.8000   82.7900 C.3       6 GLY6        0.0000 
     78 CA        139.8700   28.4900   83.5000 C.3       6 GLY6        0.0000 
     79 CA        138.5100   32.1000   86.6400 C.3       6 GLY6        0.0000 
     80 CA        139.4200   31.4300   85.6500 C.3       6 GLY6        0.0000 
     81 CA        139.2200   30.1200   86.3500 C.3       6 GLY6        0.0000 
     82 CA        141.2400   30.0900   83.6800 C.3       6 GLY6        0.0000 
     83 CA        140.3900   30.4100   87.2400 C.3       6 GLY6        0.0000 
     84 CA        141.5700   30.7100   88.1300 C.3       6 GLY6        0.0000 
     85 CA        141.8300   31.6700   90.0000 C.3       6 GLY6        0.0000 
     86 CA        142.7400   31.0000   89.0100 C.3       6 GLY6        0.0000 
     87 CA        144.3200   33.9200   88.4900 C.3       6 GLY6        0.0000 
     88 CA        145.0300   31.9400   88.2100 C.3       6 GLY6        0.0000 
     89 CA        143.8700   36.8600   90.6500 C.3       6 GLY6        0.0000 
     90 CA        144.5800   34.8800   90.3600 C.3       6 GLY6        0.0000 
     91 CA        145.4900   34.2100   89.3800 C.3       6 GLY6        0.0000 
     92 CA        146.4100   33.5400   88.3900 C.3       6 GLY6        0.0000 
     93 CA        146.2000   32.2300   89.0900 C.3       6 GLY6        0.0000 
     94 CA        144.8400   35.8500   92.2300 C.3       6 GLY6        0.0000 
     95 DU        138.9600   29.1500   84.4800 H         7 CUB7        0.0000 
     96 DU        140.3300   30.7600   84.6700 H         7 CUB7        0.0000 
     97 DU        140.6000   31.7200   86.5400 H         7 CUB7        0.0000 
     98 DU        142.9400   32.3100   88.3100 H         7 CUB7        0.0000 
     99 DU        143.2100   33.2800   90.1800 H         7 CUB7        0.0000 
    100 DU        144.1200   32.6100   89.1900 H         7 CUB7        0.0000 
    101 DU        143.9200   31.3000   89.9000 H         7 CUB7        0.0000 
    102 DU        143.6700   35.5500   91.3500 H         7 CUB7        0.0000 
    103 DU        144.3800   33.5700   91.0700 H         7 CUB7        0.0000 
@<TRIPOS>BOND
@<TRIPOS>SUBSTRUCTURE
     1 SER1        1 GROUP   
     2 ALA2        6 GROUP   
     3 ASP3       24 GROUP   
     4 LYS4       35 GROUP   
     5 PHE5       38 GROUP   
     6 GLY6       66 GROUP   
     7 CUB7       95 GROUP   
@<TRIPOS>SET

