#    Name: 6om8_18_UDX
#    Modification time : Fri May 22 19:39:34 2020

@<TRIPOS>MOLECULE
6om8_18_UDX
   34    36     1     0     0
SMALL
NO_CHARGES


@<TRIPOS>ATOM
      1 C1'       238.3060   51.8070   33.4700 C.3       1 UDX501      0.0000 
      2 C2'       239.0410   50.6010   34.0380 C.3       1 UDX501      0.0000 
      3 O2'       238.3160   50.1300   35.1800 O.3       1 UDX501      0.0000 
      4 C3'       240.4430   51.0030   34.4770 C.3       1 UDX501      0.0000 
      5 O3'       241.1610   49.8560   34.9540 O.3       1 UDX501      0.0000 
      6 C4'       241.1500   51.6790   33.3070 C.3       1 UDX501      0.0000 
      7 O4'       242.4410   52.1370   33.6970 O.3       1 UDX501      0.0000 
      8 C5'       240.3380   52.8890   32.8700 C.3       1 UDX501      0.0000 
      9 O5'       239.0500   52.4570   32.4420 O.3       1 UDX501      0.0000 
     10 PB        236.9070   53.8190   34.3960 P.3       1 UDX501      0.0000 
     11 O1B       236.5300   53.8770   32.9410 O.co2     1 UDX501      0.0000 
     12 O2B       237.3990   55.0640   35.0990 O.co2     1 UDX501      0.0000 
     13 O3B       238.0530   52.7060   34.5450 O.3       1 UDX501      0.0000 
     14 O3A       235.6230   53.3120   35.2440 O.3       1 UDX501      0.0000 
     15 PA        235.0490   51.8110   35.4030 P.3       1 UDX501      0.0000 
     16 O1A       234.8330   51.5280   36.8740 O.co2     1 UDX501      0.0000 
     17 O2A       235.7530   50.7850   34.5620 O.co2     1 UDX501      0.0000 
     18 O5D       233.6300   52.0580   34.6900 O.3       1 UDX501      0.0000 
     19 C5D       233.5360   52.0340   33.2600 C.3       1 UDX501      0.0000 
     20 C4D       232.0750   52.0950   32.8330 C.3       1 UDX501      0.0000 
     21 O4D       231.4760   50.8000   32.9170 O.3       1 UDX501      0.0000 
     22 C3D       231.2830   52.9870   33.7670 C.3       1 UDX501      0.0000 
     23 O3D       230.3700   53.7120   32.9410 O.3       1 UDX501      0.0000 
     24 C2D       230.5760   52.0250   34.7120 C.3       1 UDX501      0.0000 
     25 O2D       229.3300   52.5260   35.2060 O.3       1 UDX501      0.0000 
     26 C1D       230.3740   50.8110   33.8300 C.3       1 UDX501      0.0000 
     27 N1        230.3240   49.5500   34.5690 N.am      1 UDX501      0.0000 
     28 C6        231.3580   49.0980   35.2900 C.2       1 UDX501      0.0000 
     29 C2        229.1460   48.7880   34.4780 C.2       1 UDX501      0.0000 
     30 O2        228.2000   49.2280   33.7940 O.2       1 UDX501      0.0000 
     31 N3        229.0360   47.6160   35.1160 N.am      1 UDX501      0.0000 
     32 C4        230.0540   47.1450   35.8460 C.2       1 UDX501      0.0000 
     33 O4        229.9320   46.0440   36.4320 O.2       1 UDX501      0.0000 
     34 C5        231.2380   47.8760   35.9500 C.2       1 UDX501      0.0000 
@<TRIPOS>BOND
     1    1    2 1    
     2    1    9 1    
     3    1   13 1    
     4    2    3 1    
     5    2    4 1    
     6    4    5 1    
     7    4    6 1    
     8    6    7 1    
     9    6    8 1    
    10    8    9 1    
    11   10   11 ar   
    12   10   12 ar   
    13   10   13 1    
    14   10   14 1    
    15   14   15 1    
    16   15   16 ar   
    17   15   17 ar   
    18   15   18 1    
    19   18   19 1    
    20   19   20 1    
    21   20   21 1    
    22   20   22 1    
    23   21   26 1    
    24   22   23 1    
    25   22   24 1    
    26   24   25 1    
    27   24   26 1    
    28   26   27 1    
    29   27   28 1    
    30   27   29 1    
    31   28   34 2    
    32   29   30 2    
    33   29   31 1    
    34   31   32 1    
    35   32   33 2    
    36   32   34 1    
@<TRIPOS>SUBSTRUCTURE
     1 UDX501      1 GROUP   
@<TRIPOS>SET

