#    Name: 6om8_9_UDX
#    Modification time : Fri May 22 19:38:31 2020

@<TRIPOS>MOLECULE
6om8_9_UDX
   34    36     1     0     0
SMALL
NO_CHARGES


@<TRIPOS>ATOM
      1 C1'       207.7160   54.0220   73.2480 C.3       1 UDX500      0.0000 
      2 C2'       207.9230   52.6880   72.5240 C.3       1 UDX500      0.0000 
      3 O2'       209.2830   52.2650   72.6500 O.3       1 UDX500      0.0000 
      4 C3'       207.5540   52.7550   71.0450 C.3       1 UDX500      0.0000 
      5 O3'       207.6090   51.4360   70.4810 O.3       1 UDX500      0.0000 
      6 C4'       206.1520   53.3390   70.9040 C.3       1 UDX500      0.0000 
      7 O4'       205.7930   53.4840   69.5250 O.3       1 UDX500      0.0000 
      8 C5'       206.0930   54.6950   71.5970 C.3       1 UDX500      0.0000 
      9 O5'       206.4000   54.5260   72.9840 O.3       1 UDX500      0.0000 
     10 PB        209.0130   56.3540   73.6020 P.3       1 UDX500      0.0000 
     11 O1B       210.5080   56.5130   73.7450 O.co2     1 UDX500      0.0000 
     12 O2B       208.1690   56.4470   74.8490 O.co2     1 UDX500      0.0000 
     13 O3B       208.7270   54.9520   72.8420 O.3       1 UDX500      0.0000 
     14 O3A       208.5230   57.4200   72.4980 O.3       1 UDX500      0.0000 
     15 PA        208.3620   58.9920   72.8080 P.3       1 UDX500      0.0000 
     16 O1A       208.5540   59.2330   74.2860 O.co2     1 UDX500      0.0000 
     17 O2A       207.1340   59.5290   72.1100 O.co2     1 UDX500      0.0000 
     18 O5D       209.6440   59.5480   72.0070 O.3       1 UDX500      0.0000 
     19 C5D       209.8560   59.2210   70.6320 C.3       1 UDX500      0.0000 
     20 C4D       210.8830   60.1980   70.0780 C.3       1 UDX500      0.0000 
     21 O4D       211.3280   59.8560   68.7580 O.3       1 UDX500      0.0000 
     22 C3D       210.2900   61.5920   69.9800 C.3       1 UDX500      0.0000 
     23 O3D       211.0420   62.4450   70.8440 O.3       1 UDX500      0.0000 
     24 C2D       210.4400   61.9870   68.5170 C.3       1 UDX500      0.0000 
     25 O2D       210.7890   63.3660   68.3480 O.3       1 UDX500      0.0000 
     26 C1D       211.5420   61.0670   68.0270 C.3       1 UDX500      0.0000 
     27 N1        211.5040   60.8720   66.5750 N.am      1 UDX500      0.0000 
     28 C6        210.4860   60.2370   65.9890 C.2       1 UDX500      0.0000 
     29 C2        212.5730   61.3600   65.7880 C.2       1 UDX500      0.0000 
     30 O2        213.5230   61.9560   66.3470 O.2       1 UDX500      0.0000 
     31 N3        212.5670   61.1930   64.4540 N.am      1 UDX500      0.0000 
     32 C4        211.5490   60.5570   63.8480 C.2       1 UDX500      0.0000 
     33 O4        211.5420   60.4010   62.6030 O.2       1 UDX500      0.0000 
     34 C5        210.4900   60.0670   64.6080 C.2       1 UDX500      0.0000 
@<TRIPOS>BOND
     1    1    2 1    
     2    1    9 1    
     3    1   13 1    
     4    2    3 1    
     5    2    4 1    
     6    4    5 1    
     7    4    6 1    
     8    6    7 1    
     9    6    8 1    
    10    8    9 1    
    11   10   11 ar   
    12   10   12 ar   
    13   10   13 1    
    14   10   14 1    
    15   14   15 1    
    16   15   16 ar   
    17   15   17 ar   
    18   15   18 1    
    19   18   19 1    
    20   19   20 1    
    21   20   21 1    
    22   20   22 1    
    23   21   26 1    
    24   22   23 1    
    25   22   24 1    
    26   24   25 1    
    27   24   26 1    
    28   26   27 1    
    29   27   28 1    
    30   27   29 1    
    31   28   34 2    
    32   29   30 2    
    33   29   31 1    
    34   31   32 1    
    35   32   33 2    
    36   32   34 1    
@<TRIPOS>SUBSTRUCTURE
     1 UDX500      1 GROUP   
@<TRIPOS>SET

