#    Name: 6om8_8_UDX
#    Modification time : Fri May 22 19:38:26 2020

@<TRIPOS>MOLECULE
6om8_8_UDX
   34    36     1     0     0
SMALL
NO_CHARGES


@<TRIPOS>ATOM
      1 C1'       160.6080   25.6210   29.4840 C.3       1 UDX501      0.0000 
      2 C2'       160.7490   26.6590   28.3720 C.3       1 UDX501      0.0000 
      3 O2'       159.4480   27.0470   27.9080 O.3       1 UDX501      0.0000 
      4 C3'       161.5220   26.0810   27.1980 C.3       1 UDX501      0.0000 
      5 O3'       161.7480   27.1170   26.2380 O.3       1 UDX501      0.0000 
      6 C4'       162.8370   25.5120   27.6980 C.3       1 UDX501      0.0000 
      7 O4'       163.5560   24.9400   26.6060 O.3       1 UDX501      0.0000 
      8 C5'       162.5490   24.4260   28.7250 C.3       1 UDX501      0.0000 
      9 O5'       161.8580   25.0050   29.8270 O.3       1 UDX501      0.0000 
     10 PB        158.8190   23.8080   30.1130 P.3       1 UDX501      0.0000 
     11 O1B       159.3330   24.1580   31.4890 O.co2     1 UDX501      0.0000 
     12 O2B       158.8380   22.3710   29.6430 O.co2     1 UDX501      0.0000 
     13 O3B       159.6720   24.6450   29.0450 O.3       1 UDX501      0.0000 
     14 O3A       157.2760   24.2820   29.9720 O.3       1 UDX501      0.0000 
     15 PA        156.7190   25.7980   30.0000 P.3       1 UDX501      0.0000 
     16 O1A       155.5140   25.9050   29.1040 O.co2     1 UDX501      0.0000 
     17 O2A       157.8450   26.7880   29.8470 O.co2     1 UDX501      0.0000 
     18 O5D       156.1310   25.8600   31.5010 O.3       1 UDX501      0.0000 
     19 C5D       156.9990   26.0250   32.6220 C.3       1 UDX501      0.0000 
     20 C4D       156.1660   26.1920   33.8850 C.3       1 UDX501      0.0000 
     21 O4D       155.6820   27.5370   33.9580 O.3       1 UDX501      0.0000 
     22 C3D       154.9480   25.2810   33.8550 C.3       1 UDX501      0.0000 
     23 O3D       154.7410   24.7030   35.1490 O.3       1 UDX501      0.0000 
     24 C2D       153.7890   26.1980   33.5250 C.3       1 UDX501      0.0000 
     25 O2D       152.5840   25.7050   34.1180 O.3       1 UDX501      0.0000 
     26 C1D       154.2550   27.5380   34.0870 C.3       1 UDX501      0.0000 
     27 N1        153.6790   28.6660   33.3540 N.am      1 UDX501      0.0000 
     28 C6        154.0290   28.9170   32.0890 C.2       1 UDX501      0.0000 
     29 C2        152.7440   29.5020   34.0070 C.2       1 UDX501      0.0000 
     30 O2        152.4200   29.2720   35.1860 O.2       1 UDX501      0.0000 
     31 N3        152.1940   30.5400   33.3780 N.am      1 UDX501      0.0000 
     32 C4        152.5290   30.8070   32.1150 C.2       1 UDX501      0.0000 
     33 O4        152.0020   31.7870   31.5500 O.2       1 UDX501      0.0000 
     34 C5        153.4530   30.0050   31.4410 C.2       1 UDX501      0.0000 
@<TRIPOS>BOND
     1    1    2 1    
     2    1    9 1    
     3    1   13 1    
     4    2    3 1    
     5    2    4 1    
     6    4    5 1    
     7    4    6 1    
     8    6    7 1    
     9    6    8 1    
    10    8    9 1    
    11   10   11 ar   
    12   10   12 ar   
    13   10   13 1    
    14   10   14 1    
    15   14   15 1    
    16   15   16 ar   
    17   15   17 ar   
    18   15   18 1    
    19   18   19 1    
    20   19   20 1    
    21   20   21 1    
    22   20   22 1    
    23   21   26 1    
    24   22   23 1    
    25   22   24 1    
    26   24   25 1    
    27   24   26 1    
    28   26   27 1    
    29   27   28 1    
    30   27   29 1    
    31   28   34 2    
    32   29   30 2    
    33   29   31 1    
    34   31   32 1    
    35   32   33 2    
    36   32   34 1    
@<TRIPOS>SUBSTRUCTURE
     1 UDX501      1 GROUP   
@<TRIPOS>SET

