#    Name: 6om8_24_UDX_CAVITY_N1_6
#    Modification time : Fri May 22 19:40:19 2020

@<TRIPOS>MOLECULE
6om8_24_UDX_CAVITY_N1_6
   72     0     7     0     0
SMALL
NO_CHARGES


@<TRIPOS>ATOM
      1 OG        117.3500   33.0600  114.3600 O.3       1 SER1        0.0000 
      2 OG        117.1500   31.7500  115.0700 O.3       1 SER1        0.0000 
      3 N         117.7400   30.4600  109.6400 N.am      2 ALA2        0.0000 
      4 N         118.8500   31.1000  107.9500 N.am      2 ALA2        0.0000 
      5 N         118.9100   30.7500  110.5200 N.am      2 ALA2        0.0000 
      6 N         119.8300   30.0800  109.5400 N.am      2 ALA2        0.0000 
      7 N         118.4700   33.7000  112.6700 N.am      2 ALA2        0.0000 
      8 N         119.3800   33.0300  111.6900 N.am      2 ALA2        0.0000 
      9 N         120.0900   31.0500  111.4100 N.am      2 ALA2        0.0000 
     10 N         121.0000   30.3800  110.4200 N.am      2 ALA2        0.0000 
     11 N         120.5500   33.3200  112.5700 N.am      2 ALA2        0.0000 
     12 N         121.6700   33.9600  110.8900 N.am      2 ALA2        0.0000 
     13 N         121.4600   32.6500  111.5900 N.am      2 ALA2        0.0000 
     14 N         121.2600   31.3400  112.2900 N.am      2 ALA2        0.0000 
     15 N         122.3800   31.9800  110.6000 N.am      2 ALA2        0.0000 
     16 N         122.1700   30.6700  111.3100 N.am      2 ALA2        0.0000 
     17 N         123.2900   31.3100  109.6200 N.am      2 ALA2        0.0000 
     18 N         123.0900   30.0000  110.3200 N.am      2 ALA2        0.0000 
     19 O         119.1000   29.7200  118.2400 O.2       2 ALA2        0.0000 
     20 N         123.5500   32.2800  111.4900 N.am      2 ALA2        0.0000 
     21 N         120.4700   31.3200  118.4300 N.am      2 ALA2        0.0000 
     22 OD1       118.0000   31.4200  111.5100 O.co2     3 ASP3        0.0000 
     23 OD1       118.7100   29.4400  111.2200 O.co2     3 ASP3        0.0000 
     24 OD1       118.2700   32.3900  113.3800 O.co2     3 ASP3        0.0000 
     25 OD1       118.0600   31.0800  114.0800 O.co2     3 ASP3        0.0000 
     26 OD1       119.1800   31.7200  112.3900 O.co2     3 ASP3        0.0000 
     27 OD1       118.9800   30.4100  113.1000 O.co2     3 ASP3        0.0000 
     28 OD1       119.2400   31.3700  114.9700 O.co2     3 ASP3        0.0000 
     29 OD1       119.0400   30.0600  115.6700 O.co2     3 ASP3        0.0000 
     30 OD1       120.1500   30.7000  113.9800 O.co2     3 ASP3        0.0000 
     31 OD1       122.5000   31.2900  115.7500 O.co2     3 ASP3        0.0000 
     32 OD1       124.5200   31.2600  113.0800 O.co2     3 ASP3        0.0000 
     33 NZ        119.8900   29.7400  112.1100 N.4       4 LYS4        0.0000 
     34 NZ        121.0600   30.0300  113.0000 N.4       4 LYS4        0.0000 
     35 NZ        120.8600   28.7200  113.7000 N.4       4 LYS4        0.0000 
     36 NZ        121.9700   29.3600  112.0100 N.4       4 LYS4        0.0000 
     37 NZ        122.8800   28.6900  111.0200 N.4       4 LYS4        0.0000 
     38 CZ        120.8200   34.2900  114.4500 C.ar      5 PHE5        0.0000 
     39 CZ        120.0100   29.0500  117.2600 C.ar      5 PHE5        0.0000 
     40 CZ        121.9300   34.9300  112.7600 C.ar      5 PHE5        0.0000 
     41 CZ        121.7300   33.6200  113.4600 C.ar      5 PHE5        0.0000 
     42 CZ        121.5200   32.3100  114.1600 C.ar      5 PHE5        0.0000 
     43 CZ        122.6400   32.9500  112.4800 C.ar      5 PHE5        0.0000 
     44 CZ        120.6700   32.6300  117.7200 C.ar      5 PHE5        0.0000 
     45 CZ        121.5900   31.9600  116.7400 C.ar      5 PHE5        0.0000 
     46 CZ        122.7000   32.6000  115.0500 C.ar      5 PHE5        0.0000 
     47 CZ        123.6100   31.9300  114.0600 C.ar      5 PHE5        0.0000 
     48 CZ        124.7200   32.5700  112.3800 C.ar      5 PHE5        0.0000 
     49 CA        117.0900   32.0900  112.4900 C.3       6 GLY6        0.0000 
     50 CA        118.5300   33.3500  115.2500 C.3       6 GLY6        0.0000 
     51 CA        118.3300   32.0400  115.9500 C.3       6 GLY6        0.0000 
     52 CA        118.1200   30.7300  116.6500 C.3       6 GLY6        0.0000 
     53 CA        119.6400   33.9900  113.5600 C.3       6 GLY6        0.0000 
     54 CA        119.4400   32.6800  114.2600 C.3       6 GLY6        0.0000 
     55 CA        120.7500   34.6300  111.8700 C.3       6 GLY6        0.0000 
     56 CA        119.9500   29.3900  114.6800 C.3       6 GLY6        0.0000 
     57 CA        119.5000   32.3400  116.8400 C.3       6 GLY6        0.0000 
     58 CA        119.3000   31.0300  117.5400 C.3       6 GLY6        0.0000 
     59 CA        120.6100   32.9800  115.1500 C.3       6 GLY6        0.0000 
     60 CA        121.1200   29.6900  115.5700 C.3       6 GLY6        0.0000 
     61 CA        122.2300   30.3300  113.8800 C.3       6 GLY6        0.0000 
     62 CA        122.3000   29.9800  116.4600 C.3       6 GLY6        0.0000 
     63 DU        120.3500   32.0100  113.2800 H         7 CUB7        0.0000 
     64 DU        120.4100   31.6700  115.8500 H         7 CUB7        0.0000 
     65 DU        120.2100   30.3600  116.5600 H         7 CUB7        0.0000 
     66 DU        121.3200   31.0000  114.8700 H         7 CUB7        0.0000 
     67 DU        122.4400   31.6400  113.1800 H         7 CUB7        0.0000 
     68 DU        123.3500   30.9700  112.1900 H         7 CUB7        0.0000 
     69 DU        124.4600   31.6100  110.5000 H         7 CUB7        0.0000 
     70 DU        124.2600   30.3000  111.2100 H         7 CUB7        0.0000 
     71 DU        121.3800   30.6500  117.4400 H         7 CUB7        0.0000 
     72 DU        125.6300   31.9000  111.3900 H         7 CUB7        0.0000 
@<TRIPOS>BOND
@<TRIPOS>SUBSTRUCTURE
     1 SER1        1 GROUP   
     2 ALA2        3 GROUP   
     3 ASP3       22 GROUP   
     4 LYS4       33 GROUP   
     5 PHE5       38 GROUP   
     6 GLY6       49 GROUP   
     7 CUB7       63 GROUP   
@<TRIPOS>SET

