#    Name: 6om8_6_UDX_CAVITY_N1_ALL
#    Modification time : Fri May 22 19:38:17 2020

@<TRIPOS>MOLECULE
6om8_6_UDX_CAVITY_N1_ALL
   91     0     6     0     0
SMALL
NO_CHARGES


@<TRIPOS>ATOM
      1 N         153.8600   55.0500   28.1700 N.am      1 ALA2        0.0000 
      2 N         154.7700   54.3800   27.1900 N.am      1 ALA2        0.0000 
      3 N         155.0300   55.3400   29.0600 N.am      1 ALA2        0.0000 
      4 N         154.8300   54.0300   29.7600 N.am      1 ALA2        0.0000 
      5 N         156.1500   55.9800   27.3700 N.am      1 ALA2        0.0000 
      6 N         155.9400   54.6700   28.0700 N.am      1 ALA2        0.0000 
      7 N         156.4100   56.9500   29.2400 N.am      1 ALA2        0.0000 
      8 N         156.2100   55.6400   29.9400 N.am      1 ALA2        0.0000 
      9 N         157.3200   56.2800   28.2500 N.am      1 ALA2        0.0000 
     10 O         163.3000   48.9700   22.7600 O.2       1 ALA2        0.0000 
     11 O         165.4400   48.2500   25.2400 O.2       1 ALA2        0.0000 
     12 N         161.7500   56.4900   29.9300 N.am      1 ALA2        0.0000 
     13 N         165.9100   50.5300   26.4000 N.am      1 ALA2        0.0000 
     14 N         164.9500   56.7600   28.1400 N.am      1 ALA2        0.0000 
     15 O         164.7500   55.4500   28.8400 O.2       1 ALA2        0.0000 
     16 N         165.8600   56.0900   27.1500 N.am      1 ALA2        0.0000 
     17 N         165.6600   54.7800   27.8600 N.am      1 ALA2        0.0000 
     18 N         167.0800   50.8200   27.2900 N.am      1 ALA2        0.0000 
     19 OD1       154.5700   53.0700   27.8900 O.co2     2 ASP3        0.0000 
     20 OD1       156.8500   54.0000   27.0900 O.co2     2 ASP3        0.0000 
     21 OD1       160.5200   56.5400   26.4700 O.co2     2 ASP3        0.0000 
     22 OD1       161.2300   54.5700   26.1800 O.co2     2 ASP3        0.0000 
     23 OD1       166.3100   53.1500   25.0000 O.co2     2 ASP3        0.0000 
     24 OD1       166.7700   55.4200   26.1700 O.co2     2 ASP3        0.0000 
     25 OD1       166.5700   54.1100   26.8700 O.co2     2 ASP3        0.0000 
     26 OD1       166.3700   52.8000   27.5700 O.co2     2 ASP3        0.0000 
     27 OD1       167.2800   52.1300   26.5900 O.co2     2 ASP3        0.0000 
     28 OD1       166.8400   55.0700   28.7400 O.co2     2 ASP3        0.0000 
     29 OD1       167.5500   53.1000   28.4600 O.co2     2 ASP3        0.0000 
     30 NZ        166.5100   54.4600   24.3000 N.4       3 LYS4        0.0000 
     31 CZ        157.1200   54.9700   28.9600 C.ar      4 PHE5        0.0000 
     32 CZ        158.0300   54.3000   27.9700 C.ar      4 PHE5        0.0000 
     33 CZ        158.9400   53.6300   26.9900 C.ar      4 PHE5        0.0000 
     34 CZ        162.5900   50.9500   23.0400 C.ar      4 PHE5        0.0000 
     35 CZ        158.6900   57.8800   28.4400 C.ar      4 PHE5        0.0000 
     36 CZ        158.2900   55.2600   29.8400 C.ar      4 PHE5        0.0000 
     37 CZ        159.6100   57.2100   27.4500 C.ar      4 PHE5        0.0000 
     38 CZ        159.2000   54.5900   28.8600 C.ar      4 PHE5        0.0000 
     39 CZ        160.1100   53.9200   27.8700 C.ar      4 PHE5        0.0000 
     40 CZ        163.7600   51.2500   23.9300 C.ar      4 PHE5        0.0000 
     41 CZ        163.5600   49.9400   24.6300 C.ar      4 PHE5        0.0000 
     42 CZ        160.5800   56.2000   29.0400 C.ar      4 PHE5        0.0000 
     43 CZ        160.3800   54.8900   29.7400 C.ar      4 PHE5        0.0000 
     44 CZ        161.6900   56.8400   27.3500 C.ar      4 PHE5        0.0000 
     45 CZ        161.4900   55.5300   28.0500 C.ar      4 PHE5        0.0000 
     46 CZ        161.2900   54.2200   28.7600 C.ar      4 PHE5        0.0000 
     47 CZ        162.2000   53.5500   27.7700 C.ar      4 PHE5        0.0000 
     48 CZ        163.1100   52.8800   26.7900 C.ar      4 PHE5        0.0000 
     49 CZ        164.0200   52.2100   25.8000 C.ar      4 PHE5        0.0000 
     50 CZ        163.8200   50.9000   26.5000 C.ar      4 PHE5        0.0000 
     51 CZ        164.7300   50.2300   25.5200 C.ar      4 PHE5        0.0000 
     52 CZ        162.6600   55.8200   28.9400 C.ar      4 PHE5        0.0000 
     53 CZ        162.4600   54.5100   29.6400 C.ar      4 PHE5        0.0000 
     54 CZ        163.3700   53.8400   28.6600 C.ar      4 PHE5        0.0000 
     55 CA        155.7400   53.3600   28.7700 C.3       5 GLY6        0.0000 
     56 CA        156.6500   52.7000   27.7900 C.3       5 GLY6        0.0000 
     57 CA        157.5200   57.5900   27.5500 C.3       5 GLY6        0.0000 
     58 CA        158.2300   55.6100   27.2700 C.3       5 GLY6        0.0000 
     59 CA        159.1400   54.9400   26.2800 C.3       5 GLY6        0.0000 
     60 CA        157.5800   57.2400   30.1300 C.3       5 GLY6        0.0000 
     61 CA        160.3200   55.2300   27.1700 C.3       5 GLY6        0.0000 
     62 CA        164.4700   49.2700   23.6500 C.3       5 GLY6        0.0000 
     63 CA        165.3800   48.6000   22.6600 C.3       5 GLY6        0.0000 
     64 CA        159.6700   56.8700   30.0300 C.3       5 GLY6        0.0000 
     65 CA        162.4000   54.8600   27.0700 C.3       5 GLY6        0.0000 
     66 CA        164.5300   48.9200   26.2200 C.3       5 GLY6        0.0000 
     67 CA        165.8500   50.8700   23.8300 C.3       5 GLY6        0.0000 
     68 CA        165.6400   49.5600   24.5300 C.3       5 GLY6        0.0000 
     69 CA        163.7800   56.4600   27.2500 C.3       5 GLY6        0.0000 
     70 CA        164.6900   55.8000   26.2700 C.3       5 GLY6        0.0000 
     71 CA        164.2900   53.1800   27.6700 C.3       5 GLY6        0.0000 
     72 CA        165.6000   55.1300   25.2800 C.3       5 GLY6        0.0000 
     73 CA        165.0000   51.2000   27.3900 C.3       5 GLY6        0.0000 
     74 CA        165.7100   49.2200   27.1100 C.3       5 GLY6        0.0000 
     75 CA        167.2200   52.4800   24.0100 C.3       5 GLY6        0.0000 
     76 CA        167.0200   51.1700   24.7200 C.3       5 GLY6        0.0000 
     77 CA        166.8200   49.8600   25.4200 C.3       5 GLY6        0.0000 
     78 CA        164.5500   54.1400   29.5400 C.3       5 GLY6        0.0000 
     79 CA        165.4600   53.4700   28.5600 C.3       5 GLY6        0.0000 
     80 CA        166.1700   51.4900   28.2800 C.3       5 GLY6        0.0000 
     81 CA        166.6300   53.7700   29.4400 C.3       5 GLY6        0.0000 
     82 DU        158.4900   56.5700   29.1400 H         6 CUB7        0.0000 
     83 DU        159.4000   55.9000   28.1500 H         6 CUB7        0.0000 
     84 DU        164.6700   50.5800   22.9400 H         6 CUB7        0.0000 
     85 DU        164.9300   51.5400   24.8200 H         6 CUB7        0.0000 
     86 DU        166.0500   52.1800   23.1300 H         6 CUB7        0.0000 
     87 DU        163.5800   55.1500   27.9500 H         6 CUB7        0.0000 
     88 DU        164.4900   54.4900   26.9700 H         6 CUB7        0.0000 
     89 DU        165.4000   53.8200   25.9800 H         6 CUB7        0.0000 
     90 DU        165.2000   52.5100   26.6900 H         6 CUB7        0.0000 
     91 DU        166.1100   51.8400   25.7000 H         6 CUB7        0.0000 
@<TRIPOS>BOND
@<TRIPOS>SUBSTRUCTURE
     1 ALA2        1 GROUP   
     2 ASP3       19 GROUP   
     3 LYS4       30 GROUP   
     4 PHE5       31 GROUP   
     5 GLY6       55 GROUP   
     6 CUB7       82 GROUP   
@<TRIPOS>SET

