#    Name: 6om8_19_UDX
#    Modification time : Fri May 22 19:39:41 2020

@<TRIPOS>MOLECULE
6om8_19_UDX
   34    36     1     0     0
SMALL
NO_CHARGES


@<TRIPOS>ATOM
      1 C1'       227.2630   15.5720   29.3890 C.3       1 UDX500      0.0000 
      2 C2'       226.2420   16.6760   29.6690 C.3       1 UDX500      0.0000 
      3 O2'       226.0310   16.7880   31.0820 O.3       1 UDX500      0.0000 
      4 C3'       224.9090   16.3990   28.9780 C.3       1 UDX500      0.0000 
      5 O3'       224.0290   17.5200   29.1280 O.3       1 UDX500      0.0000 
      6 C4'       225.1390   16.1180   27.5000 C.3       1 UDX500      0.0000 
      7 O4'       223.9040   15.7710   26.8650 O.3       1 UDX500      0.0000 
      8 C5'       226.1370   14.9780   27.3550 C.3       1 UDX500      0.0000 
      9 O5'       227.3690   15.3510   27.9770 O.3       1 UDX500      0.0000 
     10 PB        227.8320   13.1040   30.2840 P.3       1 UDX500      0.0000 
     11 O1B       227.7780   12.6970   31.7380 O.co2     1 UDX500      0.0000 
     12 O2B       229.1840   13.3860   29.6760 O.co2     1 UDX500      0.0000 
     13 O3B       226.8650   14.3830   30.0790 O.3       1 UDX500      0.0000 
     14 O3A       227.0590   11.9410   29.4750 O.3       1 UDX500      0.0000 
     15 PA        227.7480   10.6300   28.8270 P.3       1 UDX500      0.0000 
     16 O1A       229.1680   10.4670   29.3270 O.co2     1 UDX500      0.0000 
     17 O2A       227.4360   10.5960   27.3490 O.co2     1 UDX500      0.0000 
     18 O5D       226.8740    9.4830   29.5430 O.3       1 UDX500      0.0000 
     19 C5D       225.4670    9.3790   29.3410 C.3       1 UDX500      0.0000 
     20 C4D       225.0260    8.0500   29.9300 C.3       1 UDX500      0.0000 
     21 O4D       223.6010    7.9670   29.9990 O.3       1 UDX500      0.0000 
     22 C3D       225.4980    6.8930   29.0630 C.3       1 UDX500      0.0000 
     23 O3D       226.3180    6.0260   29.8500 O.3       1 UDX500      0.0000 
     24 C2D       224.2300    6.1830   28.6280 C.3       1 UDX500      0.0000 
     25 O2D       224.4250    4.7640   28.6200 O.3       1 UDX500      0.0000 
     26 C1D       223.2090    6.6310   29.6680 C.3       1 UDX500      0.0000 
     27 N1        221.8140    6.5890   29.2080 N.am      1 UDX500      0.0000 
     28 C6        221.3980    7.3930   28.2220 C.2       1 UDX500      0.0000 
     29 C2        220.8980    5.7060   29.8310 C.2       1 UDX500      0.0000 
     30 O2        221.2740    4.9520   30.7580 O.2       1 UDX500      0.0000 
     31 N3        219.6220    5.6670   29.4260 N.am      1 UDX500      0.0000 
     32 C4        219.1910    6.4600   28.4380 C.2       1 UDX500      0.0000 
     33 O4        217.9950    6.4070   28.0770 O.2       1 UDX500      0.0000 
     34 C5        220.0690    7.3400   27.8130 C.2       1 UDX500      0.0000 
@<TRIPOS>BOND
     1    1    2 1    
     2    1    9 1    
     3    1   13 1    
     4    2    3 1    
     5    2    4 1    
     6    4    5 1    
     7    4    6 1    
     8    6    7 1    
     9    6    8 1    
    10    8    9 1    
    11   10   11 ar   
    12   10   12 ar   
    13   10   13 1    
    14   10   14 1    
    15   14   15 1    
    16   15   16 ar   
    17   15   17 ar   
    18   15   18 1    
    19   18   19 1    
    20   19   20 1    
    21   20   21 1    
    22   20   22 1    
    23   21   26 1    
    24   22   23 1    
    25   22   24 1    
    26   24   25 1    
    27   24   26 1    
    28   26   27 1    
    29   27   28 1    
    30   27   29 1    
    31   28   34 2    
    32   29   30 2    
    33   29   31 1    
    34   31   32 1    
    35   32   33 2    
    36   32   34 1    
@<TRIPOS>SUBSTRUCTURE
     1 UDX500      1 GROUP   
@<TRIPOS>SET

