#    Name: 6om8_24_UDX
#    Modification time : Fri May 22 19:40:17 2020

@<TRIPOS>MOLECULE
6om8_24_UDX
   34    36     1     0     0
SMALL
NO_CHARGES


@<TRIPOS>ATOM
      1 C1'       125.3540   32.5120  120.6730 C.3       1 UDX501      0.0000 
      2 C2'       126.2480   33.6600  120.2050 C.3       1 UDX501      0.0000 
      3 O2'       126.1860   33.7740  118.7750 O.3       1 UDX501      0.0000 
      4 C3'       127.6790   33.3760  120.6580 C.3       1 UDX501      0.0000 
      5 O3'       128.6040   34.3880  120.2470 O.3       1 UDX501      0.0000 
      6 C4'       127.6720   33.2560  122.1700 C.3       1 UDX501      0.0000 
      7 O4'       129.0020   33.0300  122.6270 O.3       1 UDX501      0.0000 
      8 C5'       126.7690   32.0930  122.5660 C.3       1 UDX501      0.0000 
      9 O5'       125.4480   32.3470  122.0890 O.3       1 UDX501      0.0000 
     10 PB        124.7640   30.0410  119.8450 P.3       1 UDX501      0.0000 
     11 O1B       123.5270   30.2870  120.6760 O.co2     1 UDX501      0.0000 
     12 O2B       125.5560   28.7790  120.1010 O.co2     1 UDX501      0.0000 
     13 O3B       125.7500   31.3110  119.9970 O.3       1 UDX501      0.0000 
     14 O3A       124.3550   30.0040  118.2840 O.3       1 UDX501      0.0000 
     15 PA        123.8540   31.2370  117.3680 P.3       1 UDX501      0.0000 
     16 O1A       124.4420   31.0190  115.9880 O.co2     1 UDX501      0.0000 
     17 O2A       123.9990   32.5800  118.0350 O.co2     1 UDX501      0.0000 
     18 O5D       122.2740   30.9270  117.2790 O.3       1 UDX501      0.0000 
     19 C5D       121.4160   31.2310  118.3790 C.3       1 UDX501      0.0000 
     20 C4D       119.9730   30.9290  118.0030 C.3       1 UDX501      0.0000 
     21 O4D       119.4340   32.0150  117.2490 O.3       1 UDX501      0.0000 
     22 C3D       119.8710   29.7010  117.1210 C.3       1 UDX501      0.0000 
     23 O3D       118.7070   28.9830  117.5300 O.3       1 UDX501      0.0000 
     24 C2D       119.6570   30.2320  115.7220 C.3       1 UDX501      0.0000 
     25 O2D       118.8130   29.3570  114.9680 O.3       1 UDX501      0.0000 
     26 C1D       118.9790   31.5660  115.9710 C.3       1 UDX501      0.0000 
     27 N1        119.2940   32.5620  114.9410 N.am      1 UDX501      0.0000 
     28 C6        120.5420   33.0000  114.7280 C.2       1 UDX501      0.0000 
     29 C2        118.2290   33.0740  114.1740 C.2       1 UDX501      0.0000 
     30 O2        117.0700   32.6590  114.3840 O.2       1 UDX501      0.0000 
     31 N3        118.4520   33.9900  113.2260 N.am      1 UDX501      0.0000 
     32 C4        119.6840   34.4410  112.9910 C.2       1 UDX501      0.0000 
     33 O4        119.8500   35.3010  112.0960 O.2       1 UDX501      0.0000 
     34 C5        120.7600   33.9580  113.7400 C.2       1 UDX501      0.0000 
@<TRIPOS>BOND
     1    1    2 1    
     2    1    9 1    
     3    1   13 1    
     4    2    3 1    
     5    2    4 1    
     6    4    5 1    
     7    4    6 1    
     8    6    7 1    
     9    6    8 1    
    10    8    9 1    
    11   10   11 ar   
    12   10   12 ar   
    13   10   13 1    
    14   10   14 1    
    15   14   15 1    
    16   15   16 ar   
    17   15   17 ar   
    18   15   18 1    
    19   18   19 1    
    20   19   20 1    
    21   20   21 1    
    22   20   22 1    
    23   21   26 1    
    24   22   23 1    
    25   22   24 1    
    26   24   25 1    
    27   24   26 1    
    28   26   27 1    
    29   27   28 1    
    30   27   29 1    
    31   28   34 2    
    32   29   30 2    
    33   29   31 1    
    34   31   32 1    
    35   32   33 2    
    36   32   34 1    
@<TRIPOS>SUBSTRUCTURE
     1 UDX501      1 GROUP   
@<TRIPOS>SET

