#    Name: 6om8_12_UDX
#    Modification time : Fri May 22 19:38:52 2020

@<TRIPOS>MOLECULE
6om8_12_UDX
   34    36     1     0     0
SMALL
NO_CHARGES


@<TRIPOS>ATOM
      1 C1'       196.8160   21.4710   90.3100 C.3       1 UDX501      0.0000 
      2 C2'       197.4560   22.6660   91.0190 C.3       1 UDX501      0.0000 
      3 O2'       198.8200   22.8120   90.6110 O.3       1 UDX501      0.0000 
      4 C3'       197.4360   22.4690   92.5220 C.3       1 UDX501      0.0000 
      5 O3'       198.0010   23.6130   93.1830 O.3       1 UDX501      0.0000 
      6 C4'       195.9940   22.2420   92.9430 C.3       1 UDX501      0.0000 
      7 O4'       195.9500   22.0210   94.3530 O.3       1 UDX501      0.0000 
      8 C5'       195.4350   21.0250   92.2140 C.3       1 UDX501      0.0000 
      9 O5'       195.5040   21.2190   90.8020 O.3       1 UDX501      0.0000 
     10 PB        197.5520   19.0710   89.5280 P.3       1 UDX501      0.0000 
     11 O1B       196.5260   19.3780   88.4670 O.co2     1 UDX501      0.0000 
     12 O2B       197.3960   17.8360   90.3810 O.co2     1 UDX501      0.0000 
     13 O3B       197.6250   20.3200   90.5330 O.3       1 UDX501      0.0000 
     14 O3A       199.0060   18.9980   88.8190 O.3       1 UDX501      0.0000 
     15 PA        199.7210   20.2040   88.0120 P.3       1 UDX501      0.0000 
     16 O1A       201.2190   20.0560   88.1750 O.co2     1 UDX501      0.0000 
     17 O2A       199.1020   21.5520   88.2900 O.co2     1 UDX501      0.0000 
     18 O5D       199.3230   19.7910   86.5100 O.3       1 UDX501      0.0000 
     19 C5D       198.3090   20.5270   85.8260 C.3       1 UDX501      0.0000 
     20 C4D       198.1910   20.0970   84.3660 C.3       1 UDX501      0.0000 
     21 O4D       198.7720   21.1030   83.5400 O.3       1 UDX501      0.0000 
     22 C3D       198.9390   18.8180   84.0430 C.3       1 UDX501      0.0000 
     23 O3D       198.2690   18.2390   82.9220 O.3       1 UDX501      0.0000 
     24 C2D       200.2970   19.2840   83.5710 C.3       1 UDX501      0.0000 
     25 O2D       200.8900   18.3510   82.6570 O.3       1 UDX501      0.0000 
     26 C1D       199.9180   20.5750   82.8700 C.3       1 UDX501      0.0000 
     27 N1        200.9720   21.5780   82.8860 N.am      1 UDX501      0.0000 
     28 C6        201.5060   22.0330   84.0250 C.2       1 UDX501      0.0000 
     29 C2        201.3850   22.0670   81.6380 C.2       1 UDX501      0.0000 
     30 O2        200.8540   21.6100   80.6050 O.2       1 UDX501      0.0000 
     31 N3        202.3340   23.0000   81.5590 N.am      1 UDX501      0.0000 
     32 C4        202.8950   23.4630   82.6750 C.2       1 UDX501      0.0000 
     33 O4        203.7730   24.3360   82.5640 O.2       1 UDX501      0.0000 
     34 C5        202.4970   23.0050   83.9360 C.2       1 UDX501      0.0000 
@<TRIPOS>BOND
     1    1    2 1    
     2    1    9 1    
     3    1   13 1    
     4    2    3 1    
     5    2    4 1    
     6    4    5 1    
     7    4    6 1    
     8    6    7 1    
     9    6    8 1    
    10    8    9 1    
    11   10   11 ar   
    12   10   12 ar   
    13   10   13 1    
    14   10   14 1    
    15   14   15 1    
    16   15   16 ar   
    17   15   17 ar   
    18   15   18 1    
    19   18   19 1    
    20   19   20 1    
    21   20   21 1    
    22   20   22 1    
    23   21   26 1    
    24   22   23 1    
    25   22   24 1    
    26   24   25 1    
    27   24   26 1    
    28   26   27 1    
    29   27   28 1    
    30   27   29 1    
    31   28   34 2    
    32   29   30 2    
    33   29   31 1    
    34   31   32 1    
    35   32   33 2    
    36   32   34 1    
@<TRIPOS>SUBSTRUCTURE
     1 UDX501      1 GROUP   
@<TRIPOS>SET

