#    Name: 6om8_20_UDX
#    Modification time : Fri May 22 19:39:53 2020

@<TRIPOS>MOLECULE
6om8_20_UDX
   34    36     1     0     0
SMALL
NO_CHARGES


@<TRIPOS>ATOM
      1 C1'       233.3340   22.8470   31.2860 C.3       1 UDX501      0.0000 
      2 C2'       233.2050   23.8290   32.4420 C.3       1 UDX501      0.0000 
      3 O2'       234.5300   24.1730   32.8700 O.3       1 UDX501      0.0000 
      4 C3'       232.4350   23.1900   33.5950 C.3       1 UDX501      0.0000 
      5 O3'       232.2350   24.1460   34.6430 O.3       1 UDX501      0.0000 
      6 C4'       231.1000   22.6470   33.0880 C.3       1 UDX501      0.0000 
      7 O4'       230.3820   21.9820   34.1350 O.3       1 UDX501      0.0000 
      8 C5'       231.3560   21.6550   31.9580 C.3       1 UDX501      0.0000 
      9 O5'       232.0660   22.3040   30.9010 O.3       1 UDX501      0.0000 
     10 PB        234.9850   20.8870   30.6470 P.3       1 UDX501      0.0000 
     11 O1B       234.5080   21.2600   29.2630 O.co2     1 UDX501      0.0000 
     12 O2B       234.8420   19.4670   31.1350 O.co2     1 UDX501      0.0000 
     13 O3B       234.2150   21.8120   31.7150 O.3       1 UDX501      0.0000 
     14 O3A       236.5610   21.2370   30.7700 O.3       1 UDX501      0.0000 
     15 PA        237.2250   22.7100   30.7670 P.3       1 UDX501      0.0000 
     16 O1A       238.3990   22.6720   31.7150 O.co2     1 UDX501      0.0000 
     17 O2A       236.1850   23.7920   30.9000 O.co2     1 UDX501      0.0000 
     18 O5D       237.8180   22.7590   29.2670 O.3       1 UDX501      0.0000 
     19 C5D       237.0080   23.1810   28.1600 C.3       1 UDX501      0.0000 
     20 C4D       237.8470   23.3240   26.8880 C.3       1 UDX501      0.0000 
     21 O4D       238.4550   24.6190   26.8410 O.3       1 UDX501      0.0000 
     22 C3D       238.9870   22.3190   26.8250 C.3       1 UDX501      0.0000 
     23 O3D       239.2110   21.9590   25.4600 O.3       1 UDX501      0.0000 
     24 C2D       240.1920   23.0930   27.2920 C.3       1 UDX501      0.0000 
     25 O2D       241.3890   22.5260   26.7490 O.3       1 UDX501      0.0000 
     26 C1D       239.8760   24.4930   26.7790 C.3       1 UDX501      0.0000 
     27 N1        240.4850   25.5420   27.5900 N.am      1 UDX501      0.0000 
     28 C6        240.1800   25.6810   28.8860 C.2       1 UDX501      0.0000 
     29 C2        241.3990   26.4260   26.9770 C.2       1 UDX501      0.0000 
     30 O2        241.6710   26.2880   25.7680 O.2       1 UDX501      0.0000 
     31 N3        241.9760   27.4060   27.6780 N.am      1 UDX501      0.0000 
     32 C4        241.6920   27.5630   28.9750 C.2       1 UDX501      0.0000 
     33 O4        242.2460   28.4840   29.6130 O.2       1 UDX501      0.0000 
     34 C5        240.7900   26.7040   29.6090 C.2       1 UDX501      0.0000 
@<TRIPOS>BOND
     1    1    2 1    
     2    1    9 1    
     3    1   13 1    
     4    2    3 1    
     5    2    4 1    
     6    4    5 1    
     7    4    6 1    
     8    6    7 1    
     9    6    8 1    
    10    8    9 1    
    11   10   11 ar   
    12   10   12 ar   
    13   10   13 1    
    14   10   14 1    
    15   14   15 1    
    16   15   16 ar   
    17   15   17 ar   
    18   15   18 1    
    19   18   19 1    
    20   19   20 1    
    21   20   21 1    
    22   20   22 1    
    23   21   26 1    
    24   22   23 1    
    25   22   24 1    
    26   24   25 1    
    27   24   26 1    
    28   26   27 1    
    29   27   28 1    
    30   27   29 1    
    31   28   34 2    
    32   29   30 2    
    33   29   31 1    
    34   31   32 1    
    35   32   33 2    
    36   32   34 1    
@<TRIPOS>SUBSTRUCTURE
     1 UDX501      1 GROUP   
@<TRIPOS>SET

