#    Name: 6om8_21_UDX_CAVITY_N1_4
#    Modification time : Fri May 22 19:40:01 2020

@<TRIPOS>MOLECULE
6om8_21_UDX_CAVITY_N1_4
   68     0     6     0     0
SMALL
NO_CHARGES


@<TRIPOS>ATOM
      1 OG        108.4900   64.0900  105.6300 O.3       1 SER1        0.0000 
      2 OG        108.2800   62.7800  106.3300 O.3       1 SER1        0.0000 
      3 OG        110.5700   63.7200  105.5300 O.3       1 SER1        0.0000 
      4 OG        110.3700   62.4100  106.2300 O.3       1 SER1        0.0000 
      5 OG        110.8300   64.6800  107.4000 O.3       1 SER1        0.0000 
      6 OG        111.7400   64.0100  106.4200 O.3       1 SER1        0.0000 
      7 OG        113.1200   65.6200  106.6000 O.3       1 SER1        0.0000 
      8 OG        112.9200   64.3100  107.3000 O.3       1 SER1        0.0000 
      9 OG        113.8300   63.6400  106.3200 O.3       1 SER1        0.0000 
     10 OG        115.0000   63.9300  107.2000 O.3       1 SER1        0.0000 
     11 N         108.2200   63.1300  103.7600 N.am      2 ALA2        0.0000 
     12 O         107.5700   64.7600  106.6200 O.2       2 ALA2        0.0000 
     13 N         109.4900   70.6400  102.1200 N.am      2 ALA2        0.0000 
     14 N         109.2900   69.3300  102.8200 N.am      2 ALA2        0.0000 
     15 N         108.6900   65.4000  104.9300 N.am      2 ALA2        0.0000 
     16 N         110.0000   67.3500  102.5400 N.am      2 ALA2        0.0000 
     17 N         109.6000   64.7300  103.9400 N.am      2 ALA2        0.0000 
     18 N         110.7100   65.3700  102.2500 N.am      2 ALA2        0.0000 
     19 N         109.7600   71.6100  103.9900 N.am      2 ALA2        0.0000 
     20 O         108.9500   66.3700  106.8000 O.2       2 ALA2        0.0000 
     21 O         108.7500   65.0600  107.5000 O.2       2 ALA2        0.0000 
     22 O         110.4700   69.6300  103.7100 O.2       2 ALA2        0.0000 
     23 O         110.2600   68.3200  104.4100 O.2       2 ALA2        0.0000 
     24 O         110.0600   67.0100  105.1100 O.2       2 ALA2        0.0000 
     25 N         109.8600   65.7000  105.8100 N.am      2 ALA2        0.0000 
     26 N         111.1800   67.6500  103.4200 N.am      2 ALA2        0.0000 
     27 N         110.9700   66.3400  104.1300 N.am      2 ALA2        0.0000 
     28 N         110.7700   65.0300  104.8300 N.am      2 ALA2        0.0000 
     29 O         111.4800   63.0500  104.5500 O.2       2 ALA2        0.0000 
     30 O         110.0200   72.5700  105.8600 O.2       2 ALA2        0.0000 
     31 O         110.7300   70.5900  105.5800 O.2       2 ALA2        0.0000 
     32 N         109.7200   64.0400  109.0900 N.am      2 ALA2        0.0000 
     33 N         110.6300   63.3700  108.1100 N.am      2 ALA2        0.0000 
     34 O         112.3500   67.9400  104.3100 O.2       2 ALA2        0.0000 
     35 O         113.2600   67.2700  103.3200 O.2       2 ALA2        0.0000 
     36 O         112.8100   70.2200  105.4800 O.2       2 ALA2        0.0000 
     37 O         113.5200   68.2400  105.1900 O.2       2 ALA2        0.0000 
     38 OD1       110.9300   71.9000  104.8700 O.co2     3 ASP3        0.0000 
     39 OD1       110.1200   66.6600  107.6900 O.co2     3 ASP3        0.0000 
     40 OD1       111.4400   68.6100  105.2900 O.co2     3 ASP3        0.0000 
     41 OD1       111.2400   67.3000  106.0000 O.co2     3 ASP3        0.0000 
     42 OD1       111.0400   65.9900  106.7000 O.co2     3 ASP3        0.0000 
     43 OD1       112.1500   66.6300  105.0100 O.co2     3 ASP3        0.0000 
     44 OD1       111.9000   70.8900  106.4600 O.co2     3 ASP3        0.0000 
     45 OD1       113.3200   66.9300  105.9000 O.co2     3 ASP3        0.0000 
     46 NZ        115.2100   65.2400  106.5000 N.4       4 LYS4        0.0000 
     47 CA        109.4000   63.4200  104.6500 C.3       5 GLY6        0.0000 
     48 CA        109.2000   62.1100  105.3500 C.3       5 GLY6        0.0000 
     49 CA        108.5500   63.7500  108.2100 C.3       5 GLY6        0.0000 
     50 CA        110.6700   70.9400  103.0000 C.3       5 GLY6        0.0000 
     51 CA        109.4600   63.0800  107.2200 C.3       5 GLY6        0.0000 
     52 CA        109.2600   61.7700  107.9200 C.3       5 GLY6        0.0000 
     53 CA        111.8900   65.6700  103.1400 C.3       5 GLY6        0.0000 
     54 CA        111.6800   64.3600  103.8400 C.3       5 GLY6        0.0000 
     55 CA        109.0100   66.0200  109.3700 C.3       5 GLY6        0.0000 
     56 CA        108.8100   64.7100  110.0800 C.3       5 GLY6        0.0000 
     57 CA        109.9200   65.3500  108.3900 C.3       5 GLY6        0.0000 
     58 CA        111.8400   71.2300  103.8900 C.3       5 GLY6        0.0000 
     59 CA        111.6400   69.9200  104.5900 C.3       5 GLY6        0.0000 
     60 CA        112.5500   69.2500  103.6100 C.3       5 GLY6        0.0000 
     61 CA        111.9500   65.3200  105.7100 C.3       5 GLY6        0.0000 
     62 CA        110.1800   66.3200  110.2600 C.3       5 GLY6        0.0000 
     63 CA        114.2300   66.2600  104.9100 C.3       5 GLY6        0.0000 
     64 CA        114.0300   64.9500  105.6100 C.3       5 GLY6        0.0000 
     65 CA        115.4100   66.5500  105.8000 C.3       5 GLY6        0.0000 
     66 CA        116.3200   65.8800  104.8100 C.3       5 GLY6        0.0000 
     67 CA        116.1200   64.5700  105.5100 C.3       5 GLY6        0.0000 
     68 DU        109.6600   64.3900  106.5200 H         6 CUB7        0.0000 
@<TRIPOS>BOND
@<TRIPOS>SUBSTRUCTURE
     1 SER1        1 GROUP   
     2 ALA2       11 GROUP   
     3 ASP3       38 GROUP   
     4 LYS4       46 GROUP   
     5 GLY6       47 GROUP   
     6 CUB7       68 GROUP   
@<TRIPOS>SET

