#    Name: 6om8_14_UDX
#    Modification time : Fri May 22 19:39:08 2020

@<TRIPOS>MOLECULE
6om8_14_UDX
   34    36     1     0     0
SMALL
NO_CHARGES


@<TRIPOS>ATOM
      1 C1'       224.2620   24.5820  116.0150 C.3       1 UDX501      0.0000 
      2 C2'       223.7420   25.5510  114.9540 C.3       1 UDX501      0.0000 
      3 O2'       222.3980   25.9350  115.2640 O.3       1 UDX501      0.0000 
      4 C3'       223.7680   24.8960  113.5860 C.3       1 UDX501      0.0000 
      5 O3'       223.3720   25.8350  112.5790 O.3       1 UDX501      0.0000 
      6 C4'       225.1840   24.4270  113.3140 C.3       1 UDX501      0.0000 
      7 O4'       225.2050   23.7990  112.0320 O.3       1 UDX501      0.0000 
      8 C5'       225.6240   23.4460  114.3950 C.3       1 UDX501      0.0000 
      9 O5'       225.5590   24.0710  115.6780 O.3       1 UDX501      0.0000 
     10 PB        223.2670   22.6320  117.4820 P.3       1 UDX501      0.0000 
     11 O1B       224.3290   23.1440  118.4220 O.co2     1 UDX501      0.0000 
     12 O2B       223.2750   21.1890  117.0380 O.co2     1 UDX501      0.0000 
     13 O3B       223.3130   23.5290  116.1470 O.3       1 UDX501      0.0000 
     14 O3A       221.8250   22.9060  118.1730 O.3       1 UDX501      0.0000 
     15 PA        221.2570   24.3740  118.5360 P.3       1 UDX501      0.0000 
     16 O1A       219.7460   24.3660  118.4470 O.co2     1 UDX501      0.0000 
     17 O2A       222.0270   25.4540  117.8170 O.co2     1 UDX501      0.0000 
     18 O5D       221.6190   24.4140  120.0970 O.3       1 UDX501      0.0000 
     19 C5D       222.8480   24.9670  120.5510 C.3       1 UDX501      0.0000 
     20 C4D       222.8110   25.0320  122.0680 C.3       1 UDX501      0.0000 
     21 O4D       222.2890   26.3060  122.4160 O.3       1 UDX501      0.0000 
     22 C3D       221.8770   24.0030  122.6930 C.3       1 UDX501      0.0000 
     23 O3D       222.4500   23.5910  123.9430 O.3       1 UDX501      0.0000 
     24 C2D       220.5890   24.7620  122.9510 C.3       1 UDX501      0.0000 
     25 O2D       219.8560   24.2510  124.0740 O.3       1 UDX501      0.0000 
     26 C1D       221.1180   26.1570  123.2180 C.3       1 UDX501      0.0000 
     27 N1        220.1470   27.1830  122.8730 N.am      1 UDX501      0.0000 
     28 C6        219.6560   27.3110  121.6350 C.2       1 UDX501      0.0000 
     29 C2        219.7420   28.0470  123.9020 C.2       1 UDX501      0.0000 
     30 O2        220.2350   27.8790  125.0420 O.2       1 UDX501      0.0000 
     31 N3        218.8480   29.0160  123.6600 N.am      1 UDX501      0.0000 
     32 C4        218.3340   29.1680  122.4310 C.2       1 UDX501      0.0000 
     33 O4        217.4990   30.0760  122.2140 O.2       1 UDX501      0.0000 
     34 C5        218.7290   28.3220  121.3930 C.2       1 UDX501      0.0000 
@<TRIPOS>BOND
     1    1    2 1    
     2    1    9 1    
     3    1   13 1    
     4    2    3 1    
     5    2    4 1    
     6    4    5 1    
     7    4    6 1    
     8    6    7 1    
     9    6    8 1    
    10    8    9 1    
    11   10   11 ar   
    12   10   12 ar   
    13   10   13 1    
    14   10   14 1    
    15   14   15 1    
    16   15   16 ar   
    17   15   17 ar   
    18   15   18 1    
    19   18   19 1    
    20   19   20 1    
    21   20   21 1    
    22   20   22 1    
    23   21   26 1    
    24   22   23 1    
    25   22   24 1    
    26   24   25 1    
    27   24   26 1    
    28   26   27 1    
    29   27   28 1    
    30   27   29 1    
    31   28   34 2    
    32   29   30 2    
    33   29   31 1    
    34   31   32 1    
    35   32   33 2    
    36   32   34 1    
@<TRIPOS>SUBSTRUCTURE
     1 UDX501      1 GROUP   
@<TRIPOS>SET

