#    Name: 6om8_8_UDX_CAVITY_N1_ALL
#    Modification time : Fri May 22 19:38:27 2020

@<TRIPOS>MOLECULE
6om8_8_UDX_CAVITY_N1_ALL
   83     0     7     0     0
SMALL
NO_CHARGES


@<TRIPOS>ATOM
      1 OG        161.9400   21.1200   31.2900 O.3       1 SER1        0.0000 
      2 OG        162.8500   20.4500   30.3000 O.3       1 SER1        0.0000 
      3 N         152.8400   30.1600   32.7200 N.am      2 ALA2        0.0000 
      4 N         153.1500   25.5600   33.8400 N.am      2 ALA2        0.0000 
      5 N         154.3200   25.8500   34.7300 N.am      2 ALA2        0.0000 
      6 O         158.8800   22.5100   29.8000 O.2       2 ALA2        0.0000 
      7 N         160.4000   25.7700   26.7100 N.am      2 ALA2        0.0000 
      8 N         160.1900   24.4600   27.4100 N.am      2 ALA2        0.0000 
      9 O         159.7900   21.8400   28.8200 O.2       2 ALA2        0.0000 
     10 N         160.7000   21.1700   27.8300 N.am      2 ALA2        0.0000 
     11 N         156.4100   25.4800   34.6300 N.am      2 ALA2        0.0000 
     12 N         161.5700   26.0600   27.5900 N.am      2 ALA2        0.0000 
     13 N         161.3700   24.7500   28.3000 N.am      2 ALA2        0.0000 
     14 N         161.1700   23.4400   29.0000 N.am      2 ALA2        0.0000 
     15 N         162.4800   25.3900   26.6100 N.am      2 ALA2        0.0000 
     16 N         162.0800   22.7700   28.0100 N.am      2 ALA2        0.0000 
     17 N         161.8800   21.4600   28.7200 N.am      2 ALA2        0.0000 
     18 N         162.7400   26.3600   28.4800 N.am      2 ALA2        0.0000 
     19 N         162.5400   25.0500   29.1800 N.am      2 ALA2        0.0000 
     20 OD1       152.6400   28.8500   33.4200 O.co2     3 ASP3        0.0000 
     21 OD1       152.4400   27.5400   34.1300 O.co2     3 ASP3        0.0000 
     22 OD1       156.0800   24.8600   30.1800 O.co2     3 ASP3        0.0000 
     23 OD1       153.6100   27.8300   35.0100 O.co2     3 ASP3        0.0000 
     24 OD1       158.5700   27.1100   28.6800 O.co2     3 ASP3        0.0000 
     25 OD1       159.4800   26.4400   27.6900 O.co2     3 ASP3        0.0000 
     26 OD1       161.7700   27.3700   26.8900 O.co2     3 ASP3        0.0000 
     27 NZ        160.7600   20.8200   30.4000 N.4       4 LYS4        0.0000 
     28 NZ        161.6800   20.1500   29.4200 N.4       4 LYS4        0.0000 
     29 NZ        162.5900   19.4900   28.4300 N.4       4 LYS4        0.0000 
     30 NZ        163.5600   18.4700   30.0200 N.4       4 LYS4        0.0000 
     31 CZ        153.7500   29.4900   31.7300 C.ar      5 PHE5        0.0000 
     32 CZ        154.4600   27.5100   31.4500 C.ar      5 PHE5        0.0000 
     33 CZ        155.3700   26.8400   30.4700 C.ar      5 PHE5        0.0000 
     34 CZ        156.2900   26.1700   29.4800 C.ar      5 PHE5        0.0000 
     35 CZ        155.2300   25.1900   33.7400 C.ar      5 PHE5        0.0000 
     36 CZ        156.5500   27.1400   31.3500 C.ar      5 PHE5        0.0000 
     37 CZ        156.1500   24.5200   32.7600 C.ar      5 PHE5        0.0000 
     38 CZ        157.4600   26.4700   30.3700 C.ar      5 PHE5        0.0000 
     39 CZ        157.2600   25.1600   31.0700 C.ar      5 PHE5        0.0000 
     40 CZ        157.9700   23.1800   30.7900 C.ar      5 PHE5        0.0000 
     41 CZ        156.8100   28.1000   33.2200 C.ar      5 PHE5        0.0000 
     42 CZ        157.5200   26.1200   32.9400 C.ar      5 PHE5        0.0000 
     43 CZ        158.4300   25.4500   31.9500 C.ar      5 PHE5        0.0000 
     44 CZ        158.2300   24.1400   32.6600 C.ar      5 PHE5        0.0000 
     45 CZ        159.5500   26.0900   30.2700 C.ar      5 PHE5        0.0000 
     46 CZ        159.1400   23.4700   31.6700 C.ar      5 PHE5        0.0000 
     47 CZ        160.6600   26.7300   28.5800 C.ar      5 PHE5        0.0000 
     48 CZ        160.4600   25.4200   29.2800 C.ar      5 PHE5        0.0000 
     49 CZ        160.0500   22.8000   30.6900 C.ar      5 PHE5        0.0000 
     50 CZ        159.8500   21.4900   31.3900 C.ar      5 PHE5        0.0000 
     51 CZ        161.8300   27.0300   29.4600 C.ar      5 PHE5        0.0000 
     52 CZ        161.6300   25.7200   30.1700 C.ar      5 PHE5        0.0000 
     53 CA        154.0600   24.8900   32.8600 C.3       6 GLY6        0.0000 
     54 CA        155.1700   25.5300   31.1700 C.3       6 GLY6        0.0000 
     55 CA        157.2000   25.5000   28.4900 C.3       6 GLY6        0.0000 
     56 CA        157.0000   24.1900   29.2000 C.3       6 GLY6        0.0000 
     57 CA        153.8100   29.1400   34.3100 C.3       6 GLY6        0.0000 
     58 CA        154.7300   28.4700   33.3200 C.3       6 GLY6        0.0000 
     59 CA        154.5200   27.1600   34.0300 C.3       6 GLY6        0.0000 
     60 CA        155.6400   27.8000   32.3400 C.3       6 GLY6        0.0000 
     61 CA        158.3700   25.8000   29.3800 C.3       6 GLY6        0.0000 
     62 CA        158.1700   24.4900   30.0800 C.3       6 GLY6        0.0000 
     63 CA        159.2800   25.1300   28.3900 C.3       6 GLY6        0.0000 
     64 CA        159.0800   23.8200   29.1000 C.3       6 GLY6        0.0000 
     65 CA        159.9900   23.1500   28.1100 C.3       6 GLY6        0.0000 
     66 CA        156.6100   26.7900   33.9300 C.3       6 GLY6        0.0000 
     67 CA        160.8600   28.0400   27.8700 C.3       6 GLY6        0.0000 
     68 CA        162.7900   20.8000   27.7300 C.3       6 GLY6        0.0000 
     69 CA        161.4300   24.4100   30.8700 C.3       6 GLY6        0.0000 
     70 CA        161.2300   23.1000   31.5700 C.3       6 GLY6        0.0000 
     71 CA        162.3400   23.7400   29.8800 C.3       6 GLY6        0.0000 
     72 CA        162.1400   22.4300   30.5900 C.3       6 GLY6        0.0000 
     73 CA        163.4500   24.3800   28.2000 C.3       6 GLY6        0.0000 
     74 CA        163.2500   23.0700   28.9000 C.3       6 GLY6        0.0000 
     75 CA        163.0500   21.7600   29.6000 C.3       6 GLY6        0.0000 
     76 CA        163.7600   19.7800   29.3200 C.3       6 GLY6        0.0000 
     77 DU        153.5500   28.1800   32.4400 H         7 CUB7        0.0000 
     78 DU        154.2600   26.2000   32.1500 H         7 CUB7        0.0000 
     79 DU        155.4400   26.4900   33.0400 H         7 CUB7        0.0000 
     80 DU        156.3500   25.8300   32.0500 H         7 CUB7        0.0000 
     81 DU        159.3400   24.7800   30.9700 H         7 CUB7        0.0000 
     82 DU        160.2600   24.1100   29.9800 H         7 CUB7        0.0000 
     83 DU        160.9700   22.1300   29.7000 H         7 CUB7        0.0000 
@<TRIPOS>BOND
@<TRIPOS>SUBSTRUCTURE
     1 SER1        1 GROUP   
     2 ALA2        3 GROUP   
     3 ASP3       20 GROUP   
     4 LYS4       27 GROUP   
     5 PHE5       31 GROUP   
     6 GLY6       53 GROUP   
     7 CUB7       77 GROUP   
@<TRIPOS>SET

