#    Name: 6om8_18_UDX_CAVITY_N1_4
#    Modification time : Fri May 22 19:39:36 2020

@<TRIPOS>MOLECULE
6om8_18_UDX_CAVITY_N1_4
   90     0     7     0     0
SMALL
NO_CHARGES


@<TRIPOS>ATOM
      1 OG        238.4500   56.3600   32.4600 O.3       1 SER1        0.0000 
      2 N         230.4100   53.2600   33.9800 N.am      2 ALA2        0.0000 
      3 O         231.3200   52.5900   32.9900 O.2       2 ALA2        0.0000 
      4 N         233.4100   52.2100   32.8900 N.am      2 ALA2        0.0000 
      5 O         236.2200   55.0800   35.8300 O.2       2 ALA2        0.0000 
      6 O         237.1300   54.4100   34.8500 O.2       2 ALA2        0.0000 
      7 N         239.8700   52.4000   31.8900 N.am      2 ALA2        0.0000 
      8 O         238.5100   56.0100   35.0300 O.2       2 ALA2        0.0000 
      9 N         239.4200   55.3400   34.0500 N.am      2 ALA2        0.0000 
     10 N         239.2200   54.0300   34.7500 N.am      2 ALA2        0.0000 
     11 N         240.1300   53.3600   33.7600 N.am      2 ALA2        0.0000 
     12 N         239.9300   52.0500   34.4700 N.am      2 ALA2        0.0000 
     13 N         241.0400   52.6900   32.7800 N.am      2 ALA2        0.0000 
     14 N         240.8400   51.3800   33.4800 N.am      2 ALA2        0.0000 
     15 N         241.5000   54.9700   33.9500 N.am      2 ALA2        0.0000 
     16 OD1       229.0300   51.6500   33.8000 O.co2     3 ASP3        0.0000 
     17 OD1       228.8300   50.3400   34.5000 O.co2     3 ASP3        0.0000 
     18 OD1       228.6300   49.0300   35.2000 O.co2     3 ASP3        0.0000 
     19 OD1       229.3000   52.6200   35.6700 O.co2     3 ASP3        0.0000 
     20 OD1       230.2100   51.9500   34.6800 O.co2     3 ASP3        0.0000 
     21 OD1       230.0100   50.6400   35.3900 O.co2     3 ASP3        0.0000 
     22 OD1       232.4200   50.8800   39.7300 O.co2     3 ASP3        0.0000 
     23 OD1       234.6400   52.1600   36.3500 O.co2     3 ASP3        0.0000 
     24 OD1       234.4400   50.8500   37.0600 O.co2     3 ASP3        0.0000 
     25 OD1       238.5500   50.4500   34.2800 O.co2     3 ASP3        0.0000 
     26 OD1       239.7300   50.7400   35.1700 O.co2     3 ASP3        0.0000 
     27 NZ        230.2700   51.6000   37.2600 N.4       4 LYS4        0.0000 
     28 NZ        237.5300   57.0300   33.4400 N.4       4 LYS4        0.0000 
     29 NZ        239.6200   56.6500   33.3400 N.4       4 LYS4        0.0000 
     30 NZ        240.7900   56.9500   34.2300 N.4       4 LYS4        0.0000 
     31 CZ        232.5000   52.8800   33.8800 C.ar      5 PHE5        0.0000 
     32 CZ        232.0900   50.2600   35.2900 C.ar      5 PHE5        0.0000 
     33 CZ        231.8900   48.9500   35.9900 C.ar      5 PHE5        0.0000 
     34 CZ        231.6900   47.6400   36.6900 C.ar      5 PHE5        0.0000 
     35 CZ        233.2100   50.9000   33.6000 C.ar      5 PHE5        0.0000 
     36 CZ        233.0000   49.5900   34.3000 C.ar      5 PHE5        0.0000 
     37 CZ        232.1500   49.9200   37.8600 C.ar      5 PHE5        0.0000 
     38 CZ        233.6700   53.1800   34.7700 C.ar      5 PHE5        0.0000 
     39 CZ        233.2700   50.5600   36.1700 C.ar      5 PHE5        0.0000 
     40 CZ        233.0700   49.2500   36.8700 C.ar      5 PHE5        0.0000 
     41 CZ        234.7800   53.8200   33.0800 C.ar      5 PHE5        0.0000 
     42 CZ        234.5800   52.5100   33.7800 C.ar      5 PHE5        0.0000 
     43 CZ        234.3800   51.2000   34.4800 C.ar      5 PHE5        0.0000 
     44 CZ        235.4900   51.8400   32.7900 C.ar      5 PHE5        0.0000 
     45 CZ        234.2400   49.5400   37.7600 C.ar      5 PHE5        0.0000 
     46 CZ        236.1600   55.4200   33.2600 C.ar      5 PHE5        0.0000 
     47 CZ        235.9600   54.1100   33.9600 C.ar      5 PHE5        0.0000 
     48 CZ        235.5500   51.4900   35.3700 C.ar      5 PHE5        0.0000 
     49 CZ        236.6700   52.1300   33.6800 C.ar      5 PHE5        0.0000 
     50 CZ        236.4700   50.8200   34.3800 C.ar      5 PHE5        0.0000 
     51 CZ        237.5800   51.4600   32.6900 C.ar      5 PHE5        0.0000 
     52 CZ        237.3300   55.7200   34.1500 C.ar      5 PHE5        0.0000 
     53 CZ        238.7500   51.7600   33.5800 C.ar      5 PHE5        0.0000 
     54 CZ        239.6600   51.0900   32.5900 C.ar      5 PHE5        0.0000 
     55 CA        229.9500   50.9800   32.8100 C.3       6 GLY6        0.0000 
     56 CA        229.7400   49.6700   33.5100 C.3       6 GLY6        0.0000 
     57 CA        229.5400   48.3600   34.2200 C.3       6 GLY6        0.0000 
     58 CA        231.1200   51.2800   33.7000 C.3       6 GLY6        0.0000 
     59 CA        230.9200   49.9700   34.4000 C.3       6 GLY6        0.0000 
     60 CA        230.7200   48.6600   35.1000 C.3       6 GLY6        0.0000 
     61 CA        230.5200   47.3500   35.8100 C.3       6 GLY6        0.0000 
     62 CA        232.0300   50.6100   32.7100 C.3       6 GLY6        0.0000 
     63 CA        230.4700   52.9100   36.5500 C.3       6 GLY6        0.0000 
     64 CA        231.5800   53.5500   34.8600 C.3       6 GLY6        0.0000 
     65 CA        231.3800   52.2400   35.5700 C.3       6 GLY6        0.0000 
     66 CA        231.4400   51.9000   38.1400 C.3       6 GLY6        0.0000 
     67 CA        232.5600   52.5400   36.4500 C.3       6 GLY6        0.0000 
     68 CA        232.3600   51.2300   37.1600 C.3       6 GLY6        0.0000 
     69 CA        233.4700   51.8700   35.4700 C.3       6 GLY6        0.0000 
     70 CA        234.8400   53.4700   35.6500 C.3       6 GLY6        0.0000 
     71 CA        237.0700   54.7500   32.2700 C.3       6 GLY6        0.0000 
     72 CA        237.7800   52.7700   31.9900 C.3       6 GLY6        0.0000 
     73 CA        236.9300   53.1000   35.5500 C.3       6 GLY6        0.0000 
     74 CA        238.2400   55.0500   33.1600 C.3       6 GLY6        0.0000 
     75 CA        237.8400   52.4300   34.5700 C.3       6 GLY6        0.0000 
     76 CA        237.6400   51.1200   35.2700 C.3       6 GLY6        0.0000 
     77 CA        239.3600   55.6900   31.4700 C.3       6 GLY6        0.0000 
     78 CA        239.1600   54.3800   32.1700 C.3       6 GLY6        0.0000 
     79 CA        238.9500   53.0700   32.8800 C.3       6 GLY6        0.0000 
     80 CA        240.5300   55.9800   32.3600 C.3       6 GLY6        0.0000 
     81 CA        240.3300   54.6700   33.0600 C.3       6 GLY6        0.0000 
     82 CA        241.2400   54.0000   32.0700 C.3       6 GLY6        0.0000 
     83 DU        231.1800   50.9300   36.2700 H         7 CUB7        0.0000 
     84 DU        230.9800   49.6200   36.9700 H         7 CUB7        0.0000 
     85 DU        230.7800   48.3100   37.6800 H         7 CUB7        0.0000 
     86 DU        232.2900   51.5700   34.5800 H         7 CUB7        0.0000 
     87 DU        231.2400   50.5900   38.8500 H         7 CUB7        0.0000 
     88 DU        235.7600   52.8000   34.6700 H         7 CUB7        0.0000 
     89 DU        236.8700   53.4400   32.9800 H         7 CUB7        0.0000 
     90 DU        238.0400   53.7400   33.8600 H         7 CUB7        0.0000 
@<TRIPOS>BOND
@<TRIPOS>SUBSTRUCTURE
     1 SER1        1 GROUP   
     2 ALA2        2 GROUP   
     3 ASP3       16 GROUP   
     4 LYS4       27 GROUP   
     5 PHE5       31 GROUP   
     6 GLY6       55 GROUP   
     7 CUB7       83 GROUP   
@<TRIPOS>SET

