#    Name: 6om8_1_UDX_CAVITY_N1_4
#    Modification time : Fri May 22 19:37:39 2020

@<TRIPOS>MOLECULE
6om8_1_UDX_CAVITY_N1_4
   68     0     6     0     0
SMALL
NO_CHARGES


@<TRIPOS>ATOM
      1 OG        152.2800   66.4800   87.4300 O.3       1 SER1        0.0000 
      2 OG        152.0700   65.1700   88.1300 O.3       1 SER1        0.0000 
      3 OG        153.4500   66.7800   88.3200 O.3       1 SER1        0.0000 
      4 OG        153.2500   65.4700   89.0200 O.3       1 SER1        0.0000 
      5 OG        154.3600   66.1100   87.3300 O.3       1 SER1        0.0000 
      6 OG        155.3300   65.0900   88.9200 O.3       1 SER1        0.0000 
      7 OG        156.4500   65.7300   87.2300 O.3       1 SER1        0.0000 
      8 OG        156.2400   64.4200   87.9300 O.3       1 SER1        0.0000 
      9 OG        156.0400   63.1200   88.6400 O.3       1 SER1        0.0000 
     10 OG        158.5900   65.0100   89.7100 O.3       1 SER1        0.0000 
     11 N         155.0700   64.1300   87.0500 N.am      2 ALA2        0.0000 
     12 O         154.1200   70.3600   88.7800 O.2       2 ALA2        0.0000 
     13 O         153.9100   69.0500   89.4900 O.2       2 ALA2        0.0000 
     14 O         156.6000   72.6100   87.2800 O.2       2 ALA2        0.0000 
     15 O         156.4000   71.3000   87.9800 O.2       2 ALA2        0.0000 
     16 O         156.2000   69.9900   88.6800 O.2       2 ALA2        0.0000 
     17 O         156.9100   68.0100   88.4000 O.2       2 ALA2        0.0000 
     18 N         156.7100   66.7000   89.1000 N.am      2 ALA2        0.0000 
     19 O         157.8200   67.3400   87.4100 O.2       2 ALA2        0.0000 
     20 O         157.2200   63.4100   89.5200 O.2       2 ALA2        0.0000 
     21 O         158.9400   67.9800   85.7300 O.2       2 ALA2        0.0000 
     22 N         156.4600   70.9500   90.5500 N.am      2 ALA2        0.0000 
     23 N         157.7800   72.9000   88.1600 N.am      2 ALA2        0.0000 
     24 O         157.5800   71.5900   88.8700 O.2       2 ALA2        0.0000 
     25 O         157.3700   70.2800   89.5700 O.2       2 ALA2        0.0000 
     26 N         157.1700   68.9700   90.2700 N.am      2 ALA2        0.0000 
     27 N         157.6800   65.6800   90.6900 N.am      2 ALA2        0.0000 
     28 O         158.7900   66.3200   89.0000 O.2       2 ALA2        0.0000 
     29 O         161.0200   67.6000   85.6300 O.2       2 ALA2        0.0000 
     30 OD1       153.6500   68.0900   87.6100 O.co2     3 ASP3        0.0000 
     31 OD1       156.5900   67.3900   83.9500 O.co2     3 ASP3        0.0000 
     32 OD1       155.4300   72.3100   86.3900 O.co2     3 ASP3        0.0000 
     33 OD1       155.2300   71.0000   87.0900 O.co2     3 ASP3        0.0000 
     34 OD1       155.0300   69.6900   87.8000 O.co2     3 ASP3        0.0000 
     35 OD1       154.8200   68.3800   88.5000 O.co2     3 ASP3        0.0000 
     36 OD1       155.7400   67.7100   87.5100 O.co2     3 ASP3        0.0000 
     37 OD1       155.5300   66.4000   88.2200 O.co2     3 ASP3        0.0000 
     38 OD1       156.6500   67.0400   86.5300 O.co2     3 ASP3        0.0000 
     39 OD1       157.7600   67.6800   84.8400 O.co2     3 ASP3        0.0000 
     40 OD1       157.5600   66.3700   85.5400 O.co2     3 ASP3        0.0000 
     41 OD1       157.3600   65.0700   86.2500 O.co2     3 ASP3        0.0000 
     42 OD1       158.4700   65.7100   84.5600 O.co2     3 ASP3        0.0000 
     43 OD1       158.2700   64.4000   85.2600 O.co2     3 ASP3        0.0000 
     44 OD1       155.6900   73.2800   88.2600 O.co2     3 ASP3        0.0000 
     45 OD1       156.8100   73.9200   86.5700 O.co2     3 ASP3        0.0000 
     46 OD1       157.6200   66.0300   88.1200 O.co2     3 ASP3        0.0000 
     47 OD1       157.4200   64.7200   88.8200 O.co2     3 ASP3        0.0000 
     48 OD1       158.7300   66.6700   86.4300 O.co2     3 ASP3        0.0000 
     49 OD1       158.5300   65.3600   87.1300 O.co2     3 ASP3        0.0000 
     50 OD1       159.6400   66.0000   85.4400 O.co2     3 ASP3        0.0000 
     51 OD1       157.9800   74.2100   87.4600 O.co2     3 ASP3        0.0000 
     52 NZ        151.3600   67.1500   88.4200 N.4       4 LYS4        0.0000 
     53 CA        151.1600   65.8400   89.1200 C.3       5 GLY6        0.0000 
     54 CA        152.7400   68.7600   88.6000 C.3       5 GLY6        0.0000 
     55 CA        157.3000   65.4100   83.6700 C.3       5 GLY6        0.0000 
     56 CA        154.6200   67.0700   89.2000 C.3       5 GLY6        0.0000 
     57 CA        157.1600   63.7600   86.9500 C.3       5 GLY6        0.0000 
     58 CA        155.4900   71.9700   88.9700 C.3       5 GLY6        0.0000 
     59 CA        155.2900   70.6600   89.6700 C.3       5 GLY6        0.0000 
     60 CA        155.0900   69.3500   90.3700 C.3       5 GLY6        0.0000 
     61 CA        156.5100   65.3900   89.8100 C.3       5 GLY6        0.0000 
     62 CA        156.3100   64.0800   90.5100 C.3       5 GLY6        0.0000 
     63 CA        159.8500   67.3100   84.7400 C.3       5 GLY6        0.0000 
     64 CA        160.5600   65.3300   84.4600 C.3       5 GLY6        0.0000 
     65 CA        156.6600   72.2600   89.8500 C.3       5 GLY6        0.0000 
     66 CA        158.0800   68.3000   89.2900 C.3       5 GLY6        0.0000 
     67 DU        158.6700   67.0200   83.8500 H         6 CUB7        0.0000 
     68 DU        156.0000   68.6800   89.3900 H         6 CUB7        0.0000 
@<TRIPOS>BOND
@<TRIPOS>SUBSTRUCTURE
     1 SER1        1 GROUP   
     2 ALA2       11 GROUP   
     3 ASP3       30 GROUP   
     4 LYS4       52 GROUP   
     5 GLY6       53 GROUP   
     6 CUB7       67 GROUP   
@<TRIPOS>SET

