#    Name: 6om8_1_UDX
#    Modification time : Fri May 22 19:37:38 2020

@<TRIPOS>MOLECULE
6om8_1_UDX
   34    36     1     0     0
SMALL
NO_CHARGES


@<TRIPOS>ATOM
      1 C1'       154.9390   66.4190   88.8210 C.3       1 UDX500      0.0000 
      2 C2'       155.6230   65.2740   89.5590 C.3       1 UDX500      0.0000 
      3 O2'       155.2130   65.2990   90.9340 O.3       1 UDX500      0.0000 
      4 C3'       157.1420   65.3830   89.4510 C.3       1 UDX500      0.0000 
      5 O3'       157.7370   64.2030   89.9970 O.3       1 UDX500      0.0000 
      6 C4'       157.5600   65.5330   87.9940 C.3       1 UDX500      0.0000 
      7 O4'       158.9700   65.7560   87.8940 O.3       1 UDX500      0.0000 
      8 C5'       156.8310   66.7120   87.3720 C.3       1 UDX500      0.0000 
      9 O5'       155.4210   66.4930   87.4750 O.3       1 UDX500      0.0000 
     10 PB        154.4760   69.0210   89.1970 P.3       1 UDX500      0.0000 
     11 O1B       154.3500   69.7700   90.4960 O.co2     1 UDX500      0.0000 
     12 O2B       153.2290   68.7670   88.3870 O.co2     1 UDX500      0.0000 
     13 O3B       155.2060   67.6260   89.5370 O.3       1 UDX500      0.0000 
     14 O3A       155.5920   69.7410   88.2860 O.3       1 UDX500      0.0000 
     15 PA        155.6570   71.3360   88.1040 P.3       1 UDX500      0.0000 
     16 O1A       154.2680   71.8360   87.8000 O.co2     1 UDX500      0.0000 
     17 O2A       156.8060   71.6950   87.1870 O.co2     1 UDX500      0.0000 
     18 O5D       156.0940   71.8070   89.5790 O.3       1 UDX500      0.0000 
     19 C5D       157.4710   71.8960   89.9290 C.3       1 UDX500      0.0000 
     20 C4D       157.6900   73.2010   90.6780 C.3       1 UDX500      0.0000 
     21 O4D       158.8550   73.1250   91.5050 O.3       1 UDX500      0.0000 
     22 C3D       157.9300   74.3320   89.6930 C.3       1 UDX500      0.0000 
     23 O3D       156.9990   75.3880   89.9510 O.3       1 UDX500      0.0000 
     24 C2D       159.3510   74.7910   89.9560 C.3       1 UDX500      0.0000 
     25 O2D       159.4500   76.2080   89.8190 O.3       1 UDX500      0.0000 
     26 C1D       159.5920   74.3430   91.3850 C.3       1 UDX500      0.0000 
     27 N1        161.0040   74.1200   91.7190 N.am      1 UDX500      0.0000 
     28 C6        161.7550   73.2390   91.0500 C.2       1 UDX500      0.0000 
     29 C2        161.5590   74.8430   92.7970 C.2       1 UDX500      0.0000 
     30 O2        160.8420   75.6610   93.4160 O.2       1 UDX500      0.0000 
     31 N3        162.8390   74.6700   93.1520 N.am      1 UDX500      0.0000 
     32 C4        163.6120   73.7990   92.4900 C.2       1 UDX500      0.0000 
     33 O4        164.8080   73.6440   92.8280 O.2       1 UDX500      0.0000 
     34 C5        163.0830   73.0660   91.4270 C.2       1 UDX500      0.0000 
@<TRIPOS>BOND
     1    1    2 1    
     2    1    9 1    
     3    1   13 1    
     4    2    3 1    
     5    2    4 1    
     6    4    5 1    
     7    4    6 1    
     8    6    7 1    
     9    6    8 1    
    10    8    9 1    
    11   10   11 ar   
    12   10   12 ar   
    13   10   13 1    
    14   10   14 1    
    15   14   15 1    
    16   15   16 ar   
    17   15   17 ar   
    18   15   18 1    
    19   18   19 1    
    20   19   20 1    
    21   20   21 1    
    22   20   22 1    
    23   21   26 1    
    24   22   23 1    
    25   22   24 1    
    26   24   25 1    
    27   24   26 1    
    28   26   27 1    
    29   27   28 1    
    30   27   29 1    
    31   28   34 2    
    32   29   30 2    
    33   29   31 1    
    34   31   32 1    
    35   32   33 2    
    36   32   34 1    
@<TRIPOS>SUBSTRUCTURE
     1 UDX500      1 GROUP   
@<TRIPOS>SET

