#    Name: 6om8_21_UDX
#    Modification time : Fri May 22 19:39:59 2020

@<TRIPOS>MOLECULE
6om8_21_UDX
   34    36     1     0     0
SMALL
NO_CHARGES


@<TRIPOS>ATOM
      1 C1'       111.9320   64.9870  105.8650 C.3       1 UDX500      0.0000 
      2 C2'       111.2240   63.6860  105.4970 C.3       1 UDX500      0.0000 
      3 O2'       111.6790   63.2410  104.2130 O.3       1 UDX500      0.0000 
      4 C3'       109.7080   63.8350  105.4900 C.3       1 UDX500      0.0000 
      5 O3'       109.1210   62.5380  105.3510 O.3       1 UDX500      0.0000 
      6 C4'       109.2390   64.4830  106.7890 C.3       1 UDX500      0.0000 
      7 O4'       107.8280   64.7280  106.7610 O.3       1 UDX500      0.0000 
      8 C5'       109.9660   65.8060  106.9810 C.3       1 UDX500      0.0000 
      9 O5'       111.3690   65.5570  107.0520 O.3       1 UDX500      0.0000 
     10 PB        112.6330   67.2990  104.8060 P.3       1 UDX500      0.0000 
     11 O1B       113.0400   67.6230  103.3900 O.co2     1 UDX500      0.0000 
     12 O2B       113.7120   67.2390  105.8610 O.co2     1 UDX500      0.0000 
     13 O3B       111.8330   65.9020  104.7800 O.3       1 UDX500      0.0000 
     14 O3A       111.4780   68.3390  105.2460 O.3       1 UDX500      0.0000 
     15 PA        111.6350   69.9330  105.0530 P.3       1 UDX500      0.0000 
     16 O1A       113.0730   70.3440  105.2560 O.co2     1 UDX500      0.0000 
     17 O2A       110.5370   70.6350  105.8030 O.co2     1 UDX500      0.0000 
     18 O5D       111.2970   70.0680  103.4930 O.3       1 UDX500      0.0000 
     19 C5D       109.9390   70.1090  103.0620 C.3       1 UDX500      0.0000 
     20 C4D       109.7960   71.1940  102.0060 C.3       1 UDX500      0.0000 
     21 O4D       108.7300   70.8700  101.1150 O.3       1 UDX500      0.0000 
     22 C3D       109.4550   72.5300  102.6510 C.3       1 UDX500      0.0000 
     23 O3D       110.3870   73.5370  102.2410 O.3       1 UDX500      0.0000 
     24 C2D       108.0740   72.8750  102.1340 C.3       1 UDX500      0.0000 
     25 O2D       107.9380   74.2760  101.8730 O.3       1 UDX500      0.0000 
     26 C1D       107.9740   72.0550  100.8650 C.3       1 UDX500      0.0000 
     27 N1        106.5760   71.7590  100.5690 N.am      1 UDX500      0.0000 
     28 C6        105.7580   71.3040  101.5200 C.2       1 UDX500      0.0000 
     29 C2        106.0980   71.9750   99.2610 C.2       1 UDX500      0.0000 
     30 O2        106.8860   72.4050   98.3870 O.2       1 UDX500      0.0000 
     31 N3        104.8180   71.7190   98.9610 N.am      1 UDX500      0.0000 
     32 C4        103.9810   71.2600   99.9010 C.2       1 UDX500      0.0000 
     33 O4        102.7860   71.0230   99.6170 O.2       1 UDX500      0.0000 
     34 C5        104.4340   71.0430  101.1990 C.2       1 UDX500      0.0000 
@<TRIPOS>BOND
     1    1    2 1    
     2    1    9 1    
     3    1   13 1    
     4    2    3 1    
     5    2    4 1    
     6    4    5 1    
     7    4    6 1    
     8    6    7 1    
     9    6    8 1    
    10    8    9 1    
    11   10   11 ar   
    12   10   12 ar   
    13   10   13 1    
    14   10   14 1    
    15   14   15 1    
    16   15   16 ar   
    17   15   17 ar   
    18   15   18 1    
    19   18   19 1    
    20   19   20 1    
    21   20   21 1    
    22   20   22 1    
    23   21   26 1    
    24   22   23 1    
    25   22   24 1    
    26   24   25 1    
    27   24   26 1    
    28   26   27 1    
    29   27   28 1    
    30   27   29 1    
    31   28   34 2    
    32   29   30 2    
    33   29   31 1    
    34   31   32 1    
    35   32   33 2    
    36   32   34 1    
@<TRIPOS>SUBSTRUCTURE
     1 UDX500      1 GROUP   
@<TRIPOS>SET

