#    Name: 6baz_1_NAD
#    Modification time : Fri May 22 19:24:38 2020

@<TRIPOS>MOLECULE
6baz_1_NAD
   44    48     1     0     1
SMALL
NO_CHARGES


@<TRIPOS>ATOM
      1 PA         41.0220    9.9810   16.0410 P.3       1 NAD402      0.0000 
      2 O1A        42.4670   10.3010   15.7070 O.co2     1 NAD402      0.0000 
      3 O2A        40.9020    8.5550   16.5420 O.co2     1 NAD402      0.0000 
      4 O5B        40.2000   10.1280   14.7200 O.3       1 NAD402      0.0000 
      5 C5B        39.5780   11.2850   14.3090 C.3       1 NAD402      0.0000 
      6 C4B        39.0030   11.2350   12.9850 C.3       1 NAD402      0.0000 
      7 O4B        38.7560   12.5160   12.4720 O.3       1 NAD402      0.0000 
      8 C3B        39.9680   10.5640   12.0680 C.3       1 NAD402      0.0000 
      9 O3B        39.4200    9.3720   11.6070 O.3       1 NAD402      0.0000 
     10 C2B        40.1950   11.5010   11.0490 C.3       1 NAD402      0.0000 
     11 O2B        40.3370   10.9570    9.7890 O.3       1 NAD402      0.0000 
     12 C1B        38.9760   12.3550   11.1140 C.3       1 NAD402      0.0000 
     13 N9A        39.0530   13.5750   10.3400 N.pl3     1 NAD402      0.0000 
     14 C8A        40.0980   14.4140   10.2460 C.2       1 NAD402      0.0000 
     15 N7A        39.8240   15.3750    9.3330 N.2       1 NAD402      0.0000 
     16 C5A        38.6080   15.1270    8.8130 C.ar      1 NAD402      0.0000 
     17 C6A        37.7720   15.7600    7.8740 C.ar      1 NAD402      0.0000 
     18 N6A        38.2220   16.9630    7.1870 N.pl3     1 NAD402      0.0000 
     19 N1A        36.5580   15.2280    7.5740 N.ar      1 NAD402      0.0000 
     20 C2A        36.1320   14.1030    8.2070 C.ar      1 NAD402      0.0000 
     21 N3A        36.8960   13.4690    9.1130 N.ar      1 NAD402      0.0000 
     22 C4A        38.1260   13.9550    9.4340 C.ar      1 NAD402      0.0000 
     23 O3         40.5200   11.0950   17.1010 O.3       1 NAD402      0.0000 
     24 PN         39.5090   10.7240   18.2910 P.3       1 NAD402      0.0000 
     25 O1N        38.3370    9.9220   17.6870 O.co2     1 NAD402      0.0000 
     26 O2N        40.2150    9.9420   19.3750 O.co2     1 NAD402      0.0000 
     27 O5D        38.8970   12.0490   18.8810 O.3       1 NAD402      0.0000 
     28 C5D        38.4560   13.0780   18.0650 C.3       1 NAD402      0.0000 
     29 C4D        38.1790   14.3450   18.6760 C.3       1 NAD402      0.0000 
     30 O4D        37.2440   14.1780   19.7990 O.3       1 NAD402      0.0000 
     31 C3D        39.4070   14.9670   19.2180 C.3       1 NAD402      0.0000 
     32 O3D        39.5150   16.2680   18.7620 O.3       1 NAD402      0.0000 
     33 C2D        39.2420   14.8930   20.6820 C.3       1 NAD402      0.0000 
     34 O2D        39.8820   15.8730   21.3450 O.3       1 NAD402      0.0000 
     35 C1D        37.7560   14.8980   20.8870 C.3       1 NAD402      0.0000 
     36 N1N        37.3350   14.4440   22.2300 N.pl3     1 NAD402      0.0000 
     37 C2N        36.3710   15.1730   22.8730 C.ar      1 NAD402      0.0000 
     38 C3N        35.9120   14.8290   24.1620 C.ar      1 NAD402      0.0000 
     39 C7N        34.8900   15.6900   24.8540 C.2       1 NAD402      0.0000 
     40 O7N        34.4840   15.3920   25.9920 O.2       1 NAD402      0.0000 
     41 N7N        34.3860   16.8660   24.2350 N.am      1 NAD402      0.0000 
     42 C4N        36.4390   13.6800   24.7840 C.ar      1 NAD402      0.0000 
     43 C5N        37.4130   12.9170   24.1120 C.ar      1 NAD402      0.0000 
     44 C6N        37.8440   13.3120   22.8300 C.ar      1 NAD402      0.0000 
@<TRIPOS>BOND
     1    1    2 ar   
     2    1    3 ar   
     3    1    4 1    
     4    1   23 1    
     5    4    5 1    
     6    5    6 1    
     7    6    7 1    
     8    6    8 1    
     9    7   12 1    
    10    8    9 1    
    11    8   10 1    
    12   10   11 1    
    13   10   12 1    
    14   12   13 1    
    15   13   14 1    
    16   13   22 1    
    17   14   15 2    
    18   15   16 1    
    19   16   17 ar   
    20   16   22 ar   
    21   17   18 1    
    22   17   19 ar   
    23   19   20 ar   
    24   20   21 ar   
    25   21   22 ar   
    26   23   24 1    
    27   24   25 ar   
    28   24   26 ar   
    29   24   27 1    
    30   27   28 1    
    31   28   29 1    
    32   29   30 1    
    33   29   31 1    
    34   30   35 1    
    35   31   32 1    
    36   31   33 1    
    37   33   34 1    
    38   33   35 1    
    39   35   36 1    
    40   36   37 ar   
    41   36   44 ar   
    42   37   38 ar   
    43   38   39 1    
    44   38   42 ar   
    45   39   40 2    
    46   39   41 am   
    47   42   43 ar   
    48   43   44 ar   
@<TRIPOS>SUBSTRUCTURE
     1 NAD402      1 GROUP   
@<TRIPOS>SET
ATOM$ORANGE STATIC     ATOMS   COLORGROUP SYSTEM 
42 5 5 6 6 8 8 10 10 12 12 14 14 16 16 17 17 20 \
20 22 22 28 28 29 29 31 31 33 33 35 35 37 37 38 38 39 \
39 42 42 43 43 44 44 

