#    Name: 6baz_2_NAD
#    Modification time : Fri May 22 19:24:44 2020

@<TRIPOS>MOLECULE
6baz_2_NAD
   44    48     1     0     1
SMALL
NO_CHARGES


@<TRIPOS>ATOM
      1 PA         43.9600   -7.5730   19.9390 P.3       1 NAD402      0.0000 
      2 O1A        45.4360   -7.8340   19.6630 O.co2     1 NAD402      0.0000 
      3 O2A        43.6220   -6.1140   19.6910 O.co2     1 NAD402      0.0000 
      4 O5B        43.6080   -7.9670   21.4230 O.3       1 NAD402      0.0000 
      5 C5B        44.1890   -9.0010   22.1160 C.3       1 NAD402      0.0000 
      6 C4B        44.3180   -8.7660   23.5360 C.3       1 NAD402      0.0000 
      7 O4B        44.5950   -9.9320   24.2610 O.3       1 NAD402      0.0000 
      8 C3B        45.4100   -7.7930   23.8100 C.3       1 NAD402      0.0000 
      9 O3B        44.8860   -6.7410   24.5640 O.3       1 NAD402      0.0000 
     10 C2B        46.3630   -8.5400   24.5260 C.3       1 NAD402      0.0000 
     11 O2B        47.0960   -7.7910   25.4270 O.3       1 NAD402      0.0000 
     12 C1B        45.5150   -9.5480   25.2270 C.3       1 NAD402      0.0000 
     13 N9A        46.2140  -10.7010   25.7310 N.pl3     1 NAD402      0.0000 
     14 C8A        47.1940  -11.3740   25.1080 C.2       1 NAD402      0.0000 
     15 N7A        47.5860  -12.4100   25.8820 N.2       1 NAD402      0.0000 
     16 C5A        46.8420  -12.3990   26.9990 C.ar      1 NAD402      0.0000 
     17 C6A        46.7680  -13.2060   28.1430 C.ar      1 NAD402      0.0000 
     18 N6A        47.6800  -14.3390   28.2680 N.pl3     1 NAD402      0.0000 
     19 N1A        45.8770  -12.9100   29.1300 N.ar      1 NAD402      0.0000 
     20 C2A        45.0310  -11.8540   28.9950 C.ar      1 NAD402      0.0000 
     21 N3A        45.0760  -11.0570   27.9140 N.ar      1 NAD402      0.0000 
     22 C4A        45.9680  -11.2980   26.9150 C.ar      1 NAD402      0.0000 
     23 O3         43.1320   -8.5600   18.9510 O.3       1 NAD402      0.0000 
     24 PN         41.5330   -8.5280   18.7950 P.3       1 NAD402      0.0000 
     25 O1N        40.9050   -7.9180   20.0660 O.co2     1 NAD402      0.0000 
     26 O2N        41.1380   -7.7480   17.5620 O.co2     1 NAD402      0.0000 
     27 O5D        41.0050  -10.0020   18.6600 O.3       1 NAD402      0.0000 
     28 C5D        41.5120  -11.0470   19.4090 C.3       1 NAD402      0.0000 
     29 C4D        41.1640  -12.3890   19.0210 C.3       1 NAD402      0.0000 
     30 O4D        39.7380  -12.5320   18.6730 O.3       1 NAD402      0.0000 
     31 C3D        41.9320  -12.8330   17.8450 C.3       1 NAD402      0.0000 
     32 O3D        42.4250  -14.1100   18.0820 O.3       1 NAD402      0.0000 
     33 C2D        40.9470  -12.7870   16.7480 C.3       1 NAD402      0.0000 
     34 O2D        41.2570  -13.5850   15.7150 O.3       1 NAD402      0.0000 
     35 C1D        39.6770  -13.1810   17.4320 C.3       1 NAD402      0.0000 
     36 N1N        38.4620  -12.9450   16.6290 N.pl3     1 NAD402      0.0000 
     37 C2N        37.4760  -13.8930   16.6840 C.ar      1 NAD402      0.0000 
     38 C3N        36.2740  -13.7390   15.9690 C.ar      1 NAD402      0.0000 
     39 C7N        35.2250  -14.8150   16.0040 C.2       1 NAD402      0.0000 
     40 O7N        34.2090  -14.7330   15.2810 O.2       1 NAD402      0.0000 
     41 N7N        35.3870  -15.9390   16.8610 N.am      1 NAD402      0.0000 
     42 C4N        36.0820  -12.5720   15.2040 C.ar      1 NAD402      0.0000 
     43 C5N        37.0910  -11.5920   15.1660 C.ar      1 NAD402      0.0000 
     44 C6N        38.2730  -11.7960   15.9000 C.ar      1 NAD402      0.0000 
@<TRIPOS>BOND
     1    1    2 ar   
     2    1    3 ar   
     3    1    4 1    
     4    1   23 1    
     5    4    5 1    
     6    5    6 1    
     7    6    7 1    
     8    6    8 1    
     9    7   12 1    
    10    8    9 1    
    11    8   10 1    
    12   10   11 1    
    13   10   12 1    
    14   12   13 1    
    15   13   14 1    
    16   13   22 1    
    17   14   15 2    
    18   15   16 1    
    19   16   17 ar   
    20   16   22 ar   
    21   17   18 1    
    22   17   19 ar   
    23   19   20 ar   
    24   20   21 ar   
    25   21   22 ar   
    26   23   24 1    
    27   24   25 ar   
    28   24   26 ar   
    29   24   27 1    
    30   27   28 1    
    31   28   29 1    
    32   29   30 1    
    33   29   31 1    
    34   30   35 1    
    35   31   32 1    
    36   31   33 1    
    37   33   34 1    
    38   33   35 1    
    39   35   36 1    
    40   36   37 ar   
    41   36   44 ar   
    42   37   38 ar   
    43   38   39 1    
    44   38   42 ar   
    45   39   40 2    
    46   39   41 am   
    47   42   43 ar   
    48   43   44 ar   
@<TRIPOS>SUBSTRUCTURE
     1 NAD402      1 GROUP   
@<TRIPOS>SET
ATOM$ORANGE STATIC     ATOMS   COLORGROUP SYSTEM 
42 5 5 6 6 8 8 10 10 12 12 14 14 16 16 17 17 20 \
20 22 22 28 28 29 29 31 31 33 33 35 35 37 37 38 38 39 \
39 42 42 43 43 44 44 

