#    Name: 6baz_3_NAD
#    Modification time : Fri May 22 19:24:51 2020

@<TRIPOS>MOLECULE
6baz_3_NAD
   44    48     1     0     1
SMALL
NO_CHARGES


@<TRIPOS>ATOM
      1 PA         -8.5390   -5.3230   42.8350 P.3       1 NAD402      0.0000 
      2 O1A        -9.8760   -5.5000   43.5350 O.co2     1 NAD402      0.0000 
      3 O2A        -8.7480   -4.9670   41.3770 O.co2     1 NAD402      0.0000 
      4 O5B        -7.7210   -6.6550   42.9710 O.3       1 NAD402      0.0000 
      5 C5B        -7.3790   -7.2100   44.1850 C.3       1 NAD402      0.0000 
      6 C4B        -7.0050   -8.6060   44.1440 C.3       1 NAD402      0.0000 
      7 O4B        -6.5970   -9.0760   45.4000 O.3       1 NAD402      0.0000 
      8 C3B        -8.1770   -9.4230   43.7280 C.3       1 NAD402      0.0000 
      9 O3B        -7.8970  -10.0390   42.5140 O.3       1 NAD402      0.0000 
     10 C2B        -8.3570  -10.3400   44.7770 C.3       1 NAD402      0.0000 
     11 O2B        -8.7430  -11.6000   44.3730 O.3       1 NAD402      0.0000 
     12 C1B        -7.0110  -10.4010   45.4130 C.3       1 NAD402      0.0000 
     13 N9A        -7.0070  -11.0230   46.7220 N.pl3     1 NAD402      0.0000 
     14 C8A        -7.8450  -10.7520   47.7390 C.2       1 NAD402      0.0000 
     15 N7A        -7.5890  -11.5820   48.7770 N.2       1 NAD402      0.0000 
     16 C5A        -6.5940  -12.4120   48.4120 C.ar      1 NAD402      0.0000 
     17 C6A        -5.9000  -13.4670   49.0350 C.ar      1 NAD402      0.0000 
     18 N6A        -6.2450  -13.8570   50.4000 N.pl3     1 NAD402      0.0000 
     19 N1A        -4.9110  -14.1220   48.3690 N.ar      1 NAD402      0.0000 
     20 C2A        -4.5930  -13.7550   47.0990 C.ar      1 NAD402      0.0000 
     21 N3A        -5.2360  -12.7540   46.4650 N.ar      1 NAD402      0.0000 
     22 C4A        -6.2350  -12.0720   47.0880 C.ar      1 NAD402      0.0000 
     23 O3         -7.7270   -4.1670   43.6200 O.3       1 NAD402      0.0000 
     24 PN         -6.5310   -3.3410   42.9330 P.3       1 NAD402      0.0000 
     25 O1N        -5.5840   -4.3220   42.2070 O.co2     1 NAD402      0.0000 
     26 O2N        -7.0860   -2.3160   41.9750 O.co2     1 NAD402      0.0000 
     27 O5D        -5.7090   -2.6550   44.0900 O.3       1 NAD402      0.0000 
     28 C5D        -5.1210   -3.4210   45.0870 C.3       1 NAD402      0.0000 
     29 C4D        -4.3950   -2.7720   46.1390 C.3       1 NAD402      0.0000 
     30 O4D        -3.3280   -1.9150   45.5990 O.3       1 NAD402      0.0000 
     31 C3D        -5.2730   -1.9130   46.9610 C.3       1 NAD402      0.0000 
     32 O3D        -5.1950   -2.2830   48.2950 O.3       1 NAD402      0.0000 
     33 C2D        -4.7800   -0.5440   46.7080 C.3       1 NAD402      0.0000 
     34 O2D        -4.9690    0.2810   47.7530 O.3       1 NAD402      0.0000 
     35 C1D        -3.3350   -0.7590   46.3860 C.3       1 NAD402      0.0000 
     36 N1N        -2.6530    0.4160   45.8160 N.pl3     1 NAD402      0.0000 
     37 C2N        -1.5000    0.8430   46.4230 C.ar      1 NAD402      0.0000 
     38 C3N        -0.7620    1.9420   45.9350 C.ar      1 NAD402      0.0000 
     39 C7N         0.4980    2.4030   46.6250 C.2       1 NAD402      0.0000 
     40 O7N         1.1130    3.4110   46.2190 O.2       1 NAD402      0.0000 
     41 N7N         1.0120    1.6870   47.7410 N.am      1 NAD402      0.0000 
     42 C4N        -1.2180    2.5870   44.7710 C.ar      1 NAD402      0.0000 
     43 C5N        -2.3940    2.1370   44.1440 C.ar      1 NAD402      0.0000 
     44 C6N        -3.1010    1.0410   44.6780 C.ar      1 NAD402      0.0000 
@<TRIPOS>BOND
     1    1    2 ar   
     2    1    3 ar   
     3    1    4 1    
     4    1   23 1    
     5    4    5 1    
     6    5    6 1    
     7    6    7 1    
     8    6    8 1    
     9    7   12 1    
    10    8    9 1    
    11    8   10 1    
    12   10   11 1    
    13   10   12 1    
    14   12   13 1    
    15   13   14 1    
    16   13   22 1    
    17   14   15 2    
    18   15   16 1    
    19   16   17 ar   
    20   16   22 ar   
    21   17   18 1    
    22   17   19 ar   
    23   19   20 ar   
    24   20   21 ar   
    25   21   22 ar   
    26   23   24 1    
    27   24   25 ar   
    28   24   26 ar   
    29   24   27 1    
    30   27   28 1    
    31   28   29 1    
    32   29   30 1    
    33   29   31 1    
    34   30   35 1    
    35   31   32 1    
    36   31   33 1    
    37   33   34 1    
    38   33   35 1    
    39   35   36 1    
    40   36   37 ar   
    41   36   44 ar   
    42   37   38 ar   
    43   38   39 1    
    44   38   42 ar   
    45   39   40 2    
    46   39   41 am   
    47   42   43 ar   
    48   43   44 ar   
@<TRIPOS>SUBSTRUCTURE
     1 NAD402      1 GROUP   
@<TRIPOS>SET
ATOM$ORANGE STATIC     ATOMS   COLORGROUP SYSTEM 
42 5 5 6 6 8 8 10 10 12 12 14 14 16 16 17 17 20 \
20 22 22 28 28 29 29 31 31 33 33 35 35 37 37 38 38 39 \
39 42 42 43 43 44 44 

