#    Name: 6baz_4_NAD
#    Modification time : Fri May 22 19:24:57 2020

@<TRIPOS>MOLECULE
6baz_4_NAD
   44    48     1     0     1
SMALL
NO_CHARGES


@<TRIPOS>ATOM
      1 PA        -13.6610   -2.7650   25.3340 P.3       1 NAD801      0.0000 
      2 O1A       -15.1750   -2.7110   25.4830 O.co2     1 NAD801      0.0000 
      3 O2A       -12.9840   -3.1100   26.6440 O.co2     1 NAD801      0.0000 
      4 O5B       -13.1640   -1.3690   24.8390 O.3       1 NAD801      0.0000 
      5 C5B       -13.6710   -0.7270   23.7350 C.3       1 NAD801      0.0000 
      6 C4B       -13.5260    0.7090   23.7510 C.3       1 NAD801      0.0000 
      7 O4B       -14.0410    1.2740   22.5840 O.3       1 NAD801      0.0000 
      8 C3B       -14.2870    1.2900   24.8870 C.3       1 NAD801      0.0000 
      9 O3B       -13.4070    2.0300   25.6720 O.3       1 NAD801      0.0000 
     10 C2B       -15.2770    2.0840   24.2810 C.3       1 NAD801      0.0000 
     11 O2B       -15.5780    3.2350   24.9700 O.3       1 NAD801      0.0000 
     12 C1B       -14.6440    2.4520   22.9940 C.3       1 NAD801      0.0000 
     13 N9A       -15.5360    2.9690   21.9830 N.pl3     1 NAD801      0.0000 
     14 C8A       -16.7620    2.5220   21.6740 C.2       1 NAD801      0.0000 
     15 N7A       -17.2580    3.2550   20.6560 N.2       1 NAD801      0.0000 
     16 C5A       -16.3430    4.1740   20.3080 C.ar      1 NAD801      0.0000 
     17 C6A       -16.2600    5.1910   19.3430 C.ar      1 NAD801      0.0000 
     18 N6A       -17.3690    5.4390   18.4360 N.pl3     1 NAD801      0.0000 
     19 N1A       -15.1480    5.9620   19.2680 N.ar      1 NAD801      0.0000 
     20 C2A       -14.1100    5.7570   20.1160 C.ar      1 NAD801      0.0000 
     21 N3A       -14.1380    4.7830   21.0320 N.ar      1 NAD801      0.0000 
     22 C4A       -15.2330    3.9860   21.1510 C.ar      1 NAD801      0.0000 
     23 O3        -13.3030   -3.8410   24.1940 O.3       1 NAD801      0.0000 
     24 PN        -11.8270   -4.4600   24.0980 P.3       1 NAD801      0.0000 
     25 O1N       -10.8010   -3.3820   24.4790 O.co2     1 NAD801      0.0000 
     26 O2N       -11.6750   -5.6870   24.9710 O.co2     1 NAD801      0.0000 
     27 O5D       -11.5520   -4.8370   22.5920 O.3       1 NAD801      0.0000 
     28 C5D       -11.9100   -4.0180   21.5310 C.3       1 NAD801      0.0000 
     29 C4D       -11.8300   -4.5860   20.2150 C.3       1 NAD801      0.0000 
     30 O4D       -10.5300   -5.2480   19.9930 O.3       1 NAD801      0.0000 
     31 C3D       -12.8750   -5.6090   19.9850 C.3       1 NAD801      0.0000 
     32 O3D       -13.4750   -5.3890   18.7490 O.3       1 NAD801      0.0000 
     33 C2D       -12.1190   -6.8800   20.0460 C.3       1 NAD801      0.0000 
     34 O2D       -12.7190   -7.9100   19.4300 O.3       1 NAD801      0.0000 
     35 C1D       -10.8000   -6.5100   19.4400 C.3       1 NAD801      0.0000 
     36 N1N        -9.7560   -7.5390   19.6050 N.pl3     1 NAD801      0.0000 
     37 C2N        -8.9960   -7.8650   18.5130 C.ar      1 NAD801      0.0000 
     38 C3N        -7.9750   -8.8350   18.6000 C.ar      1 NAD801      0.0000 
     39 C7N        -7.1770   -9.2260   17.3870 C.2       1 NAD801      0.0000 
     40 O7N        -6.4500  -10.2420   17.4120 O.2       1 NAD801      0.0000 
     41 N7N        -7.2540   -8.4630   16.1870 N.am      1 NAD801      0.0000 
     42 C4N        -7.7070   -9.4300   19.8470 C.ar      1 NAD801      0.0000 
     43 C5N        -8.4830   -9.0850   20.9680 C.ar      1 NAD801      0.0000 
     44 C6N        -9.4980   -8.1230   20.8240 C.ar      1 NAD801      0.0000 
@<TRIPOS>BOND
     1    1    2 ar   
     2    1    3 ar   
     3    1    4 1    
     4    1   23 1    
     5    4    5 1    
     6    5    6 1    
     7    6    7 1    
     8    6    8 1    
     9    7   12 1    
    10    8    9 1    
    11    8   10 1    
    12   10   11 1    
    13   10   12 1    
    14   12   13 1    
    15   13   14 1    
    16   13   22 1    
    17   14   15 2    
    18   15   16 1    
    19   16   17 ar   
    20   16   22 ar   
    21   17   18 1    
    22   17   19 ar   
    23   19   20 ar   
    24   20   21 ar   
    25   21   22 ar   
    26   23   24 1    
    27   24   25 ar   
    28   24   26 ar   
    29   24   27 1    
    30   27   28 1    
    31   28   29 1    
    32   29   30 1    
    33   29   31 1    
    34   30   35 1    
    35   31   32 1    
    36   31   33 1    
    37   33   34 1    
    38   33   35 1    
    39   35   36 1    
    40   36   37 ar   
    41   36   44 ar   
    42   37   38 ar   
    43   38   39 1    
    44   38   42 ar   
    45   39   40 2    
    46   39   41 am   
    47   42   43 ar   
    48   43   44 ar   
@<TRIPOS>SUBSTRUCTURE
     1 NAD801      1 GROUP   
@<TRIPOS>SET
ATOM$ORANGE STATIC     ATOMS   COLORGROUP SYSTEM 
42 5 5 6 6 8 8 10 10 12 12 14 14 16 16 17 17 20 \
20 22 22 28 28 29 29 31 31 33 33 35 35 37 37 38 38 39 \
39 42 42 43 43 44 44 

