#    Name: 5oa4_1_58D
#    Modification time : Fri May 22 19:12:45 2020

@<TRIPOS>MOLECULE
5oa4_1_58D
   23    25     1     0     0
SMALL
NO_CHARGES


@<TRIPOS>ATOM
      1 C4        -24.9920  -20.2730   -3.2010           1 58D402      0.0000 
      2 C7        -25.0490  -22.7330   -3.6300           1 58D402      0.0000 
      3 C8        -24.9450  -24.1430   -2.9780           1 58D402      0.0000 
      4 C10       -24.5530  -25.3710   -0.9830           1 58D402      0.0000 
      5 C13       -22.8990  -23.4240    0.0930           1 58D402      0.0000 
      6 C15       -25.7640  -22.6810   -4.8610           1 58D402      0.0000 
      7 C20       -22.6950  -19.5070   -6.6330           1 58D402      0.0000 
      8 C22       -22.3370  -23.7010    2.9210           1 58D402      0.0000 
      9 O21       -22.6320  -24.8280    2.0750           1 58D402      0.0000 
     10 C12       -23.1530  -24.5900    0.8280           1 58D402      0.0000 
     11 C11       -23.9870  -25.5590    0.2790           1 58D402      0.0000 
     12 C14       -23.4650  -23.2380   -1.1750           1 58D402      0.0000 
     13 C9        -24.3180  -24.2100   -1.7310           1 58D402      0.0000 
     14 O16       -26.6170  -23.5170   -5.1660           1 58D402      0.0000 
     15 N17       -25.4900  -21.6720   -5.7980           1 58D402      0.0000 
     16 C18       -24.5050  -20.6910   -5.5840           1 58D402      0.0000 
     17 C19       -23.7270  -20.4390   -6.7120           1 58D402      0.0000 
     18 C1        -22.4420  -18.8440   -5.4300           1 58D402      0.0000 
     19 C2        -23.2120  -19.1090   -4.2980           1 58D402      0.0000 
     20 C3        -24.2410  -20.0530   -4.3700           1 58D402      0.0000 
     21 O5        -25.3280  -19.2880   -2.5460           1 58D402      0.0000 
     22 N6        -25.4440  -21.5090   -2.8300           1 58D402      0.0000 
     23 C23       -26.3520  -21.6470   -1.6460           1 58D402      0.0000 
@<TRIPOS>BOND
     1    1   20 du   
     2    1   21 du   
     3    1   22 du   
     4    2    3 du   
     5    2    6 du   
     6    2   22 du   
     7    3   13 du   
     8    4   11 du   
     9    4   13 du   
    10    5   10 du   
    11    5   12 du   
    12    6   14 du   
    13    6   15 du   
    14    7   17 du   
    15    7   18 du   
    16    8    9 du   
    17    9   10 du   
    18   10   11 du   
    19   12   13 du   
    20   15   16 du   
    21   16   17 du   
    22   16   20 du   
    23   18   19 du   
    24   19   20 du   
    25   22   23 du   
@<TRIPOS>SUBSTRUCTURE
     1 58D402      1 GROUP   
@<TRIPOS>SET

