#    Name: 5vck_1_3TL
#    Modification time : Fri May 22 19:16:15 2020

@<TRIPOS>MOLECULE
5vck_1_3TL
   66    69     1     0     0
SMALL
NO_CHARGES


@<TRIPOS>ATOM
      1 C31        15.4580    4.1220   26.0840 C.2       1 3TL100      0.0000 
      2 O8         14.1940    3.7660   25.8060 O.2       1 3TL100      0.0000 
      3 O9         15.7200    4.4830   27.3400 O.3       1 3TL100      0.0000 
      4 CA         14.7980    4.8850   28.3880 C.3       1 3TL100      0.0000 
      5 C          14.0310    6.1530   28.1330 C.ar      1 3TL100      0.0000 
      6 C13        12.6980    6.1840   28.5600 C.ar      1 3TL100      0.0000 
      7 C14        11.9030    7.3150   28.3650 C.ar      1 3TL100      0.0000 
      8 C15        12.4240    8.4470   27.7290 C.ar      1 3TL100      0.0000 
      9 C16        13.7580    8.4330   27.2920 C.ar      1 3TL100      0.0000 
     10 C17        14.5290    7.2920   27.5010 C.ar      1 3TL100      0.0000 
     11 N4         16.4950    4.1360   25.2990 N.am      1 3TL100      0.0000 
     12 C18        16.7000    4.2030   23.8500 C.3       1 3TL100      0.0000 
     13 C19        17.4060    2.9480   23.3240 C.2       1 3TL100      0.0000 
     14 O4         18.7050    2.7010   23.5060 O.2       1 3TL100      0.0000 
     15 C20        17.4410    5.4920   23.4390 C.3       1 3TL100      0.0000 
     16 N2         16.7570    2.0780   22.6500 N.am      1 3TL100      0.0000 
     17 C10        17.4910    0.8950   22.1570 C.3       1 3TL100      0.0000 
     18 C11        17.3170    0.8100   20.6490 C.2       1 3TL100      0.0000 
     19 O2         16.1410    0.4410   20.1440 O.2       1 3TL100      0.0000 
     20 C12        17.2220   -0.3920   22.9510 C.3       1 3TL100      0.0000 
     21 CG2        18.0130   -1.5520   22.3540 C.3       1 3TL100      0.0000 
     22 CG1        17.7410   -0.2660   24.3920 C.3       1 3TL100      0.0000 
     23 C2         19.5180    0.2040   17.9620 C.3       1 3TL100      0.0000 
     24 O1         20.8710    0.3470   18.4150 O.3       1 3TL100      0.0000 
     25 C1         18.5830    1.2650   18.5530 C.3       1 3TL100      0.0000 
     26 N1         18.3700    1.1100   19.9860 N.am      1 3TL100      0.0000 
     27 C3         18.7700    2.7240   18.1240 C.3       1 3TL100      0.0000 
     28 C4         17.5390    3.5880   18.3210 C.ar      1 3TL100      0.0000 
     29 C5         17.2050    4.1100   19.5740 C.ar      1 3TL100      0.0000 
     30 C9         16.7070    3.8850   17.2390 C.ar      1 3TL100      0.0000 
     31 C6         16.0730    4.9070   19.7440 C.ar      1 3TL100      0.0000 
     32 C8         15.5680    4.6850   17.3980 C.ar      1 3TL100      0.0000 
     33 C7         15.2470    5.1960   18.6530 C.ar      1 3TL100      0.0000 
     34 N51        18.1650   -1.8980   16.1280 N.am      1 3TL100      0.0000 
     35 C51        17.9950   -1.9080   17.5840 C.3       1 3TL100      0.0000 
     36 C52        19.0980   -1.2200   18.3570 C.3       1 3TL100      0.0000 
     37 O51        20.2160   -2.0970   18.3120 O.3       1 3TL100      0.0000 
     38 C53        17.9730   -3.3000   18.2010 C.3       1 3TL100      0.0000 
     39 C54        16.8100   -4.1470   17.8630 C.ar      1 3TL100      0.0000 
     40 C55        16.9560   -5.1220   16.8840 C.ar      1 3TL100      0.0000 
     41 C59        15.6060   -3.9540   18.5480 C.ar      1 3TL100      0.0000 
     42 C56        15.8580   -5.9130   16.5680 C.ar      1 3TL100      0.0000 
     43 C58        14.5130   -4.7560   18.2450 C.ar      1 3TL100      0.0000 
     44 C57        14.6490   -5.7000   17.2340 C.ar      1 3TL100      0.0000 
     45 N52        16.9360   -2.1460   13.1260 N.am      1 3TL100      0.0000 
     46 C60        17.6530   -1.1110   13.8430 C.3       1 3TL100      0.0000 
     47 C61        17.3200   -1.2600   15.3060 C.2       1 3TL100      0.0000 
     48 O52        16.2930   -0.8090   15.7780 O.2       1 3TL100      0.0000 
     49 C62        17.3210    0.2840   13.2880 C.3       1 3TL100      0.0000 
     50 CG6        18.1130    1.3690   14.0240 C.3       1 3TL100      0.0000 
     51 CG5        17.5800    0.4310   11.7810 C.3       1 3TL100      0.0000 
     52 N54        16.7480   -4.5880   10.7000 N.am      1 3TL100      0.0000 
     53 C68        16.5060   -4.2080   12.0850 C.3       1 3TL100      0.0000 
     54 C69        17.4410   -3.0850   12.4150 C.2       1 3TL100      0.0000 
     55 O54        18.6970   -3.0750   11.9640 O.2       1 3TL100      0.0000 
     56 C70        16.7090   -5.3820   13.0510 C.3       1 3TL100      0.0000 
     57 C81        15.7900   -4.3750    9.8760 C.2       1 3TL100      0.0000 
     58 O58        14.6600   -3.8380   10.3040 O.2       1 3TL100      0.0000 
     59 O59        15.8950   -4.7420    8.6040 O.3       1 3TL100      0.0000 
     60 CA5        14.7240   -4.9900    7.7620 C.3       1 3TL100      0.0000 
     61 C50        13.8150   -6.1080    8.2610 C.ar      1 3TL100      0.0000 
     62 C63        12.7440   -6.5020    7.4450 C.ar      1 3TL100      0.0000 
     63 C64        11.8850   -7.5260    7.8670 C.ar      1 3TL100      0.0000 
     64 C65        12.0750   -8.1660    9.1040 C.ar      1 3TL100      0.0000 
     65 C66        13.1360   -7.7880    9.9350 C.ar      1 3TL100      0.0000 
     66 C67        13.9970   -6.7620    9.4990 C.ar      1 3TL100      0.0000 
@<TRIPOS>BOND
     1   61   66 ar   
     2   61   62 ar   
     3   62   63 ar   
     4   63   64 ar   
     5   64   65 ar   
     6   65   66 ar   
     7    1    2 2    
     8    1    3 1    
     9    1   11 am   
    10    3    4 1    
    11    4    5 1    
    12    5    6 ar   
    13    5   10 ar   
    14    6    7 ar   
    15    7    8 ar   
    16    8    9 ar   
    17    9   10 ar   
    18   11   12 1    
    19   12   13 1    
    20   12   15 1    
    21   13   14 2    
    22   13   16 am   
    23   16   17 1    
    24   17   18 1    
    25   17   20 1    
    26   18   19 2    
    27   18   26 am   
    28   20   21 1    
    29   20   22 1    
    30   23   24 1    
    31   23   25 1    
    32   23   36 1    
    33   25   26 1    
    34   25   27 1    
    35   27   28 1    
    36   28   29 ar   
    37   28   30 ar   
    38   29   31 ar   
    39   30   32 ar   
    40   31   33 ar   
    41   32   33 ar   
    42   34   35 1    
    43   34   47 am   
    44   35   36 1    
    45   35   38 1    
    46   36   37 1    
    47   38   39 1    
    48   39   40 ar   
    49   39   41 ar   
    50   40   42 ar   
    51   41   43 ar   
    52   42   44 ar   
    53   43   44 ar   
    54   45   46 1    
    55   45   54 am   
    56   46   47 1    
    57   46   49 1    
    58   47   48 2    
    59   49   50 1    
    60   49   51 1    
    61   52   53 1    
    62   52   57 am   
    63   53   54 1    
    64   53   56 1    
    65   54   55 2    
    66   57   58 2    
    67   57   59 1    
    68   59   60 1    
    69   60   61 1    
@<TRIPOS>SUBSTRUCTURE
     1 3TL100      1 GROUP   
@<TRIPOS>SET

