#    Name: 6hzm_1_ATP_CAVITY_N1_6
#    Modification time : Fri May 22 19:41:49 2020

@<TRIPOS>MOLECULE
6hzm_1_ATP_CAVITY_N1_6
   16     0     5     0     0
SMALL
NO_CHARGES


@<TRIPOS>ATOM
      1 N         105.3100   94.4700  128.3400 N.am      1 ALA2        0.0000 
      2 N         106.0800   95.6800  127.8800 N.am      1 ALA2        0.0000 
      3 OD1       107.4200   89.7700  124.3100 O.co2     2 ASP3        0.0000 
      4 OD1       107.7200   90.1200  125.7400 O.co2     2 ASP3        0.0000 
      5 OD1       106.7600   91.2800  127.2300 O.co2     2 ASP3        0.0000 
      6 OD1       106.2700   93.3100  126.8400 O.co2     2 ASP3        0.0000 
      7 OD1       107.0300   94.5200  126.3900 O.co2     2 ASP3        0.0000 
      8 OD1       106.5700   93.6500  128.2700 O.co2     2 ASP3        0.0000 
      9 OD1       107.3300   94.8600  127.8200 O.co2     2 ASP3        0.0000 
     10 OD1       109.3500   95.2500  127.3000 O.co2     2 ASP3        0.0000 
     11 NZ        105.5100   92.1000  127.3000 N.4       3 LYS4        0.0000 
     12 CA        107.8800   90.6300  122.4300 C.3       4 GLY6        0.0000 
     13 CA        108.2900   93.7000  126.3300 C.3       4 GLY6        0.0000 
     14 CA        109.0500   94.9100  125.8700 C.3       4 GLY6        0.0000 
     15 CA        105.8000   92.4500  128.7300 C.3       4 GLY6        0.0000 
     16 DU        108.1000   96.0700  127.3700 H         5 CUB7        0.0000 
@<TRIPOS>BOND
@<TRIPOS>SUBSTRUCTURE
     1 ALA2        1 GROUP   
     2 ASP3        3 GROUP   
     3 LYS4       11 GROUP   
     4 GLY6       12 GROUP   
     5 CUB7       16 GROUP   
@<TRIPOS>SET

