#    Name: 6hzm_2_ATP
#    Modification time : Fri May 22 19:41:59 2020

@<TRIPOS>MOLECULE
6hzm_2_ATP
   31    33     1     0     1
SMALL
NO_CHARGES


@<TRIPOS>ATOM
      1 PG         97.7560  111.1120  134.6070 P.3       1 ATP1501     0.0000 
      2 O1G        98.6470  111.0860  133.3990 O.co2     1 ATP1501     0.0000 
      3 O2G        96.7620  110.0010  134.6660 O.co2     1 ATP1501     0.0000 
      4 O3G        98.4570  111.3540  135.9050 O.co2     1 ATP1501     0.0000 
      5 PB         97.2840  113.8980  134.2140 P.3       1 ATP1501     0.0000 
      6 O1B        98.6630  113.9220  133.6520 O.co2     1 ATP1501     0.0000 
      7 O2B        96.9970  114.6250  135.4820 O.co2     1 ATP1501     0.0000 
      8 O3B        96.8010  112.3840  134.4170 O.3       1 ATP1501     0.0000 
      9 PA         96.5190  115.3800  131.8750 P.3       1 ATP1501     0.0000 
     10 O1A        97.0180  114.6720  130.6470 O.co2     1 ATP1501     0.0000 
     11 O2A        97.2400  116.5720  132.3860 O.co2     1 ATP1501     0.0000 
     12 O3A        96.2380  114.3740  133.0930 O.3       1 ATP1501     0.0000 
     13 O5'        95.0300  115.8310  131.5390 O.3       1 ATP1501     0.0000 
     14 C5'        94.0700  116.1270  132.5410 C.3       1 ATP1501     0.0000 
     15 C4'        92.6910  115.8640  131.9600 C.3       1 ATP1501     0.0000 
     16 O4'        92.4800  116.7410  130.8690 O.3       1 ATP1501     0.0000 
     17 C3'        92.5740  114.4650  131.4040 C.3       1 ATP1501     0.0000 
     18 O3'        91.3790  113.8820  131.9200 O.3       1 ATP1501     0.0000 
     19 C2'        92.4430  114.5910  129.9080 C.3       1 ATP1501     0.0000 
     20 O2'        91.3880  113.7450  129.4620 O.3       1 ATP1501     0.0000 
     21 C1'        92.1060  116.0480  129.6860 C.3       1 ATP1501     0.0000 
     22 N9         92.8730  116.6080  128.5530 N.pl3     1 ATP1501     0.0000 
     23 C8         94.0070  117.3120  128.6490 C.2       1 ATP1501     0.0000 
     24 N7         94.4530  117.6870  127.4340 N.2       1 ATP1501     0.0000 
     25 C5         93.5800  117.2170  126.5330 C.ar      1 ATP1501     0.0000 
     26 C6         93.4480  117.2520  125.0660 C.ar      1 ATP1501     0.0000 
     27 N6         94.3630  117.8860  124.3030 N.pl3     1 ATP1501     0.0000 
     28 N1         92.3840  116.6410  124.5180 N.ar      1 ATP1501     0.0000 
     29 C2         91.4650  116.0080  125.2660 C.ar      1 ATP1501     0.0000 
     30 N3         91.5230  115.9350  126.6000 N.ar      1 ATP1501     0.0000 
     31 C4         92.5380  116.5140  127.2760 C.ar      1 ATP1501     0.0000 
@<TRIPOS>BOND
     1    1    2 ar   
     2    1    3 ar   
     3    1    4 ar   
     4    1    8 1    
     5    5    6 ar   
     6    5    7 ar   
     7    5    8 1    
     8    5   12 1    
     9    9   10 ar   
    10    9   11 ar   
    11    9   12 1    
    12    9   13 1    
    13   13   14 1    
    14   14   15 1    
    15   15   16 1    
    16   15   17 1    
    17   16   21 1    
    18   17   18 1    
    19   17   19 1    
    20   19   20 1    
    21   19   21 1    
    22   21   22 1    
    23   22   23 1    
    24   22   31 1    
    25   23   24 2    
    26   24   25 1    
    27   25   26 ar   
    28   25   31 ar   
    29   26   27 1    
    30   26   28 ar   
    31   28   29 ar   
    32   29   30 ar   
    33   30   31 ar   
@<TRIPOS>SUBSTRUCTURE
     1 ATP1501     1 GROUP   
@<TRIPOS>SET
ATOM$ORANGE STATIC     ATOMS   COLORGROUP SYSTEM 
20 14 14 15 15 17 17 19 19 21 21 23 23 25 25 26 26 29 \
29 31 31 

