#    Name: 6hzm_1_ATP_CAVITY_N1_8
#    Modification time : Fri May 22 19:41:49 2020

@<TRIPOS>MOLECULE
6hzm_1_ATP_CAVITY_N1_8
   63     0     5     0     0
SMALL
NO_CHARGES


@<TRIPOS>ATOM
      1 N         106.3300   91.1000  121.0700 N.am      1 ALA2        0.0000 
      2 N         107.5800   90.2900  121.0000 N.am      1 ALA2        0.0000 
      3 N         107.0900   92.3100  120.6100 N.am      1 ALA2        0.0000 
      4 N         107.1200   89.4200  122.8800 N.am      1 ALA2        0.0000 
      5 N         108.2600   96.5900  124.0600 N.am      1 ALA2        0.0000 
      6 N         110.2800   96.9800  123.5400 N.am      1 ALA2        0.0000 
      7 O         103.7600   94.9500  126.9700 O.2       1 ALA2        0.0000 
      8 N         109.8200   96.1100  125.4200 N.am      1 ALA2        0.0000 
      9 N         110.5800   97.3200  124.9700 N.am      1 ALA2        0.0000 
     10 N         105.3100   94.4700  128.3400 N.am      1 ALA2        0.0000 
     11 N         106.0800   95.6800  127.8800 N.am      1 ALA2        0.0000 
     12 OD1       106.6500   88.5600  124.7700 O.co2     2 ASP3        0.0000 
     13 OD1       107.4200   89.7700  124.3100 O.co2     2 ASP3        0.0000 
     14 OD1       107.7200   90.1200  125.7400 O.co2     2 ASP3        0.0000 
     15 OD1       106.7600   91.2800  127.2300 O.co2     2 ASP3        0.0000 
     16 OD1       106.2700   93.3100  126.8400 O.co2     2 ASP3        0.0000 
     17 OD1       107.0300   94.5200  126.3900 O.co2     2 ASP3        0.0000 
     18 OD1       108.5600   96.9300  125.4800 O.co2     2 ASP3        0.0000 
     19 OD1       109.3300   98.1400  125.0300 O.co2     2 ASP3        0.0000 
     20 OD1       106.5700   93.6500  128.2700 O.co2     2 ASP3        0.0000 
     21 OD1       107.3300   94.8600  127.8200 O.co2     2 ASP3        0.0000 
     22 OD1       109.3500   95.2500  127.3000 O.co2     2 ASP3        0.0000 
     23 OD1       108.8600   97.2800  126.9100 O.co2     2 ASP3        0.0000 
     24 NZ        105.4000   89.3800  124.8300 N.4       3 LYS4        0.0000 
     25 NZ        105.2100   91.7500  125.8700 N.4       3 LYS4        0.0000 
     26 NZ        106.4600   90.9400  125.8000 N.4       3 LYS4        0.0000 
     27 NZ        103.4900   91.7100  127.8200 N.4       3 LYS4        0.0000 
     28 NZ        104.2500   92.9200  127.3600 N.4       3 LYS4        0.0000 
     29 NZ        105.5100   92.1000  127.3000 N.4       3 LYS4        0.0000 
     30 NZ        106.5400   96.5400  126.0000 N.4       3 LYS4        0.0000 
     31 NZ        107.3100   97.7500  125.5500 N.4       3 LYS4        0.0000 
     32 NZ        103.2900   94.0800  128.8600 N.4       3 LYS4        0.0000 
     33 NZ        104.5500   93.2700  128.7900 N.4       3 LYS4        0.0000 
     34 NZ        106.8400   96.8900  127.4300 N.4       3 LYS4        0.0000 
     35 CA        105.1000   89.0300  123.4000 C.3       4 GLY6        0.0000 
     36 CA        106.3500   88.2200  123.3400 C.3       4 GLY6        0.0000 
     37 CA        105.8600   90.2400  122.9500 C.3       4 GLY6        0.0000 
     38 CA        106.6300   91.4500  122.4900 C.3       4 GLY6        0.0000 
     39 CA        107.8800   90.6300  122.4300 C.3       4 GLY6        0.0000 
     40 CA        107.3900   92.6600  122.0400 C.3       4 GLY6        0.0000 
     41 CA        106.9300   91.8000  123.9200 C.3       4 GLY6        0.0000 
     42 CA        106.4400   93.8200  123.5300 C.3       4 GLY6        0.0000 
     43 CA        107.2300   92.1400  125.3500 C.3       4 GLY6        0.0000 
     44 CA        107.9900   93.3500  124.9000 C.3       4 GLY6        0.0000 
     45 CA        108.7500   94.5600  124.4400 C.3       4 GLY6        0.0000 
     46 CA        109.5200   95.7700  123.9900 C.3       4 GLY6        0.0000 
     47 CA        104.5200   96.1500  126.5200 C.3       4 GLY6        0.0000 
     48 CA        108.2900   93.7000  126.3300 C.3       4 GLY6        0.0000 
     49 CA        109.0500   94.9100  125.8700 C.3       4 GLY6        0.0000 
     50 CA        105.8000   92.4500  128.7300 C.3       4 GLY6        0.0000 
     51 CA        104.0600   95.2900  128.4000 C.3       4 GLY6        0.0000 
     52 CA        104.8200   96.5000  127.9500 C.3       4 GLY6        0.0000 
     53 DU        106.1600   90.5900  124.3800 H         5 CUB7        0.0000 
     54 DU        105.6700   92.6200  123.9900 H         5 CUB7        0.0000 
     55 DU        103.9500   92.5700  125.9300 H         5 CUB7        0.0000 
     56 DU        105.9700   92.9600  125.4200 H         5 CUB7        0.0000 
     57 DU        105.4800   94.9900  125.0300 H         5 CUB7        0.0000 
     58 DU        106.7400   94.1700  124.9600 H         5 CUB7        0.0000 
     59 DU        107.5000   95.3800  124.5100 H         5 CUB7        0.0000 
     60 DU        105.0100   94.1300  126.9100 H         5 CUB7        0.0000 
     61 DU        105.7800   95.3400  126.4600 H         5 CUB7        0.0000 
     62 DU        107.8000   95.7200  125.9400 H         5 CUB7        0.0000 
     63 DU        108.1000   96.0700  127.3700 H         5 CUB7        0.0000 
@<TRIPOS>BOND
@<TRIPOS>SUBSTRUCTURE
     1 ALA2        1 GROUP   
     2 ASP3       12 GROUP   
     3 LYS4       24 GROUP   
     4 GLY6       35 GROUP   
     5 CUB7       53 GROUP   
@<TRIPOS>SET

