#    Name: 6hzm_1_ATP
#    Modification time : Fri May 22 19:41:48 2020

@<TRIPOS>MOLECULE
6hzm_1_ATP
   31    33     1     0     1
SMALL
NO_CHARGES


@<TRIPOS>ATOM
      1 PG        109.6070   96.2480  134.6030 P.3       1 ATP1501     0.0000 
      2 O1G       108.7060   96.2880  133.4040 O.co2     1 ATP1501     0.0000 
      3 O2G       110.6020   97.3570  134.6620 O.co2     1 ATP1501     0.0000 
      4 O3G       108.9150   95.9960  135.9040 O.co2     1 ATP1501     0.0000 
      5 PB        110.0680   93.4630  134.1950 P.3       1 ATP1501     0.0000 
      6 O1B       108.6970   93.4510  133.6110 O.co2     1 ATP1501     0.0000 
      7 O2B       110.3270   92.7370  135.4700 O.co2     1 ATP1501     0.0000 
      8 O3B       110.5580   94.9760  134.3980 O.3       1 ATP1501     0.0000 
      9 PA        110.8420   91.9710  131.8680 P.3       1 ATP1501     0.0000 
     10 O1A       110.3380   92.6840  130.6460 O.co2     1 ATP1501     0.0000 
     11 O2A       110.1260   90.7740  132.3750 O.co2     1 ATP1501     0.0000 
     12 O3A       111.1230   92.9710  133.0900 O.3       1 ATP1501     0.0000 
     13 O5'       112.3330   91.5310  131.5280 O.3       1 ATP1501     0.0000 
     14 C5'       113.2920   91.2280  132.5290 C.3       1 ATP1501     0.0000 
     15 C4'       114.6710   91.5000  131.9530 C.3       1 ATP1501     0.0000 
     16 O4'       114.8930   90.6230  130.8650 O.3       1 ATP1501     0.0000 
     17 C3'       114.7800   92.9000  131.3970 C.3       1 ATP1501     0.0000 
     18 O3'       115.9710   93.4900  131.9140 O.3       1 ATP1501     0.0000 
     19 C2'       114.9120   92.7740  129.9020 C.3       1 ATP1501     0.0000 
     20 O2'       115.9630   93.6250  129.4540 O.3       1 ATP1501     0.0000 
     21 C1'       115.2570   91.3180  129.6810 C.3       1 ATP1501     0.0000 
     22 N9        114.4880   90.7520  128.5530 N.pl3     1 ATP1501     0.0000 
     23 C8        113.3570   90.0440  128.6530 C.2       1 ATP1501     0.0000 
     24 N7        112.9080   89.6660  127.4400 N.2       1 ATP1501     0.0000 
     25 C5        113.7770   90.1380  126.5360 C.ar      1 ATP1501     0.0000 
     26 C6        113.9040   90.1040  125.0690 C.ar      1 ATP1501     0.0000 
     27 N6        112.9910   89.4650  124.3060 N.pl3     1 ATP1501     0.0000 
     28 N1        114.9650   90.7180  124.5180 N.ar      1 ATP1501     0.0000 
     29 C2        115.8830   91.3560  125.2620 C.ar      1 ATP1501     0.0000 
     30 N3        115.8280   91.4300  126.5960 N.ar      1 ATP1501     0.0000 
     31 C4        114.8180   90.8470  127.2740 C.ar      1 ATP1501     0.0000 
@<TRIPOS>BOND
     1    1    2 ar   
     2    1    3 ar   
     3    1    4 ar   
     4    1    8 1    
     5    5    6 ar   
     6    5    7 ar   
     7    5    8 1    
     8    5   12 1    
     9    9   10 ar   
    10    9   11 ar   
    11    9   12 1    
    12    9   13 1    
    13   13   14 1    
    14   14   15 1    
    15   15   16 1    
    16   15   17 1    
    17   16   21 1    
    18   17   18 1    
    19   17   19 1    
    20   19   20 1    
    21   19   21 1    
    22   21   22 1    
    23   22   23 1    
    24   22   31 1    
    25   23   24 2    
    26   24   25 1    
    27   25   26 ar   
    28   25   31 ar   
    29   26   27 1    
    30   26   28 ar   
    31   28   29 ar   
    32   29   30 ar   
    33   30   31 ar   
@<TRIPOS>SUBSTRUCTURE
     1 ATP1501     1 GROUP   
@<TRIPOS>SET
ATOM$ORANGE STATIC     ATOMS   COLORGROUP SYSTEM 
20 14 14 15 15 17 17 19 19 21 21 23 23 25 25 26 26 29 \
29 31 31 

