#    Name: 5w5w_1_3TL
#    Modification time : Fri May 22 19:13:48 2020

@<TRIPOS>MOLECULE
5w5w_1_3TL
   66    69     1     0     0
SMALL
NO_CHARGES


@<TRIPOS>ATOM
      1 C31        20.2960  -11.0700  -12.3000 C.2       1 3TL101      0.0000 
      2 O8         21.3710  -10.1450  -12.0620 O.2       1 3TL101      0.0000 
      3 O9         20.1870  -12.2890  -11.5120 O.3       1 3TL101      0.0000 
      4 CA         21.3670  -13.0550  -11.2230 C.3       1 3TL101      0.0000 
      5 C          21.1300  -13.8360   -9.9430 C.ar      1 3TL101      0.0000 
      6 C13        22.3590  -14.1030   -9.0560 C.ar      1 3TL101      0.0000 
      7 C14        22.2900  -15.1730   -7.9490 C.ar      1 3TL101      0.0000 
      8 C15        21.0310  -16.0280   -7.8000 C.ar      1 3TL101      0.0000 
      9 C16        20.0500  -16.0480   -8.9720 C.ar      1 3TL101      0.0000 
     10 C17        19.9780  -14.8450   -9.9240 C.ar      1 3TL101      0.0000 
     11 N4         19.2250  -10.8130  -13.3050 N.am      1 3TL101      0.0000 
     12 C18        18.9320   -9.4550  -13.8400 C.3       1 3TL101      0.0000 
     13 C19        17.8920   -8.6720  -13.0470 C.2       1 3TL101      0.0000 
     14 O4         18.0440   -7.2590  -12.9640 O.2       1 3TL101      0.0000 
     15 C20        18.4900   -9.5730  -15.3010 C.3       1 3TL101      0.0000 
     16 N2         16.7210   -9.4000  -12.4650 N.am      1 3TL101      0.0000 
     17 C10        15.4770   -8.6180  -12.1510 C.3       1 3TL101      0.0000 
     18 C11        14.9950   -8.9250  -10.7230 C.2       1 3TL101      0.0000 
     19 O2         14.1700  -10.0360  -10.3700 O.2       1 3TL101      0.0000 
     20 C12        14.4280   -8.5140  -13.2890 C.3       1 3TL101      0.0000 
     21 CG2        14.9250   -8.9730  -14.6780 C.3       1 3TL101      0.0000 
     22 CG1        12.9860   -8.9560  -12.9280 C.3       1 3TL101      0.0000 
     23 C2         14.2700   -6.4780   -8.1200 C.3       1 3TL101      0.0000 
     24 O1         15.0930   -5.4940   -8.7830 O.3       1 3TL101      0.0000 
     25 C1         14.9730   -7.8390   -8.3220 C.3       1 3TL101      0.0000 
     26 N1         15.3890   -7.8790   -9.7510 N.am      1 3TL101      0.0000 
     27 C3         16.2020   -7.8840   -7.3930 C.3       1 3TL101      0.0000 
     28 C4         17.5240   -8.1400   -8.1230 C.ar      1 3TL101      0.0000 
     29 C5         17.9580   -9.5820   -8.3700 C.ar      1 3TL101      0.0000 
     30 C9         18.1570   -7.0040   -8.9590 C.ar      1 3TL101      0.0000 
     31 C6         19.2210   -9.8270   -9.2120 C.ar      1 3TL101      0.0000 
     32 C8         19.2820   -7.3250   -9.9650 C.ar      1 3TL101      0.0000 
     33 C7         20.0220   -8.6450   -9.7700 C.ar      1 3TL101      0.0000 
     34 N51        11.6780   -7.1960   -6.7420 N.am      1 3TL101      0.0000 
     35 C51        11.8410   -7.3950   -8.2150 C.3       1 3TL101      0.0000 
     36 C52        12.8620   -6.3680   -8.7410 C.3       1 3TL101      0.0000 
     37 O51        12.3890   -5.0470   -8.4200 O.3       1 3TL101      0.0000 
     38 C53        10.5560   -7.2060   -9.0300 C.3       1 3TL101      0.0000 
     39 C54         9.4090   -8.1890   -8.8030 C.ar      1 3TL101      0.0000 
     40 C55         8.2230   -7.7770   -7.9330 C.ar      1 3TL101      0.0000 
     41 C59         9.3890   -9.5650   -9.4770 C.ar      1 3TL101      0.0000 
     42 C56         6.9360   -8.5970   -8.0430 C.ar      1 3TL101      0.0000 
     43 C58         8.1480  -10.4640   -9.3760 C.ar      1 3TL101      0.0000 
     44 C57         7.0310  -10.0740   -8.4030 C.ar      1 3TL101      0.0000 
     45 N52         9.4620   -8.4960   -4.2630 N.am      1 3TL101      0.0000 
     46 C60        10.7250   -7.7260   -4.4450 C.3       1 3TL101      0.0000 
     47 C61        11.2830   -8.2390   -5.7670 C.2       1 3TL101      0.0000 
     48 O52        11.4480   -9.6160   -6.0670 O.2       1 3TL101      0.0000 
     49 C62        11.6400   -7.8080   -3.2240 C.3       1 3TL101      0.0000 
     50 CG6        12.9800   -7.0580   -3.3310 C.3       1 3TL101      0.0000 
     51 CG5        10.9330   -7.4050   -1.9310 C.3       1 3TL101      0.0000 
     52 N54         6.1560   -8.4640   -2.5800 N.am      1 3TL101      0.0000 
     53 C68         6.9110   -8.7380   -3.8390 C.3       1 3TL101      0.0000 
     54 C69         8.1810   -7.8480   -3.8860 C.2       1 3TL101      0.0000 
     55 O54         8.1700   -6.5210   -3.3930 O.2       1 3TL101      0.0000 
     56 C70         5.9030   -8.5690   -4.9860 C.3       1 3TL101      0.0000 
     57 C81         6.7000   -8.8520   -1.2600 C.2       1 3TL101      0.0000 
     58 O58         7.9500   -9.5070   -1.0820 O.2       1 3TL101      0.0000 
     59 O59         5.8750   -8.6050   -0.1150 O.3       1 3TL101      0.0000 
     60 CA5         5.9240   -9.5120    1.0050 C.3       1 3TL101      0.0000 
     61 C50         5.3280  -10.9330    0.8460 C.ar      1 3TL101      0.0000 
     62 C63         5.2670  -11.6120   -0.5360 C.ar      1 3TL101      0.0000 
     63 C64         3.9770  -12.3080   -0.9590 C.ar      1 3TL101      0.0000 
     64 C65         2.7470  -12.2780   -0.0340 C.ar      1 3TL101      0.0000 
     65 C66         2.9200  -11.7460    1.3990 C.ar      1 3TL101      0.0000 
     66 C67         4.3440  -11.4720    1.8900 C.ar      1 3TL101      0.0000 
@<TRIPOS>BOND
     1   57   58 2    
     2   57   59 1    
     3   59   60 1    
     4   60   61 1    
     5   61   66 ar   
     6   61   62 ar   
     7   62   63 ar   
     8   63   64 ar   
     9   64   65 ar   
    10   65   66 ar   
    11    1    2 2    
    12    1    3 1    
    13    1   11 am   
    14    3    4 1    
    15    4    5 1    
    16    5    6 ar   
    17    5   10 ar   
    18    6    7 ar   
    19    7    8 ar   
    20    8    9 ar   
    21    9   10 ar   
    22   11   12 1    
    23   12   13 1    
    24   12   15 1    
    25   13   14 2    
    26   13   16 am   
    27   16   17 1    
    28   17   18 1    
    29   17   20 1    
    30   18   19 2    
    31   18   26 am   
    32   20   21 1    
    33   20   22 1    
    34   23   24 1    
    35   23   25 1    
    36   23   36 1    
    37   25   26 1    
    38   25   27 1    
    39   27   28 1    
    40   28   29 ar   
    41   28   30 ar   
    42   29   31 ar   
    43   30   32 ar   
    44   31   33 ar   
    45   32   33 ar   
    46   34   35 1    
    47   34   47 am   
    48   35   36 1    
    49   35   38 1    
    50   36   37 1    
    51   38   39 1    
    52   39   40 ar   
    53   39   41 ar   
    54   40   42 ar   
    55   41   43 ar   
    56   42   44 ar   
    57   43   44 ar   
    58   45   46 1    
    59   45   54 am   
    60   46   47 1    
    61   46   49 1    
    62   47   48 2    
    63   49   50 1    
    64   49   51 1    
    65   52   53 1    
    66   52   57 am   
    67   53   54 1    
    68   53   56 1    
    69   54   55 2    
@<TRIPOS>SUBSTRUCTURE
     1 3TL101      1 GROUP   
@<TRIPOS>SET

