#    Name: 6ilt_2_ATP
#    Modification time : Fri May 22 19:25:04 2020

@<TRIPOS>MOLECULE
6ilt_2_ATP
   31    33     1     0     1
SMALL
NO_CHARGES


@<TRIPOS>ATOM
      1 PG         54.8390   20.2420   67.2420 P.3       1 ATP401      0.0000 
      2 O1G        53.7790   19.2380   67.1900 O.co2     1 ATP401      0.0000 
      3 O2G        56.0900   19.7450   67.8380 O.co2     1 ATP401      0.0000 
      4 O3G        54.3970   21.5120   67.8230 O.co2     1 ATP401      0.0000 
      5 PB         55.4080   19.7460   64.4560 P.3       1 ATP401      0.0000 
      6 O1B        54.2170   18.9370   64.1900 O.co2     1 ATP401      0.0000 
      7 O2B        56.7130   19.1090   64.5700 O.co2     1 ATP401      0.0000 
      8 O3B        55.2040   20.6100   65.7610 O.3       1 ATP401      0.0000 
      9 PA         56.7850   21.4490   62.5900 P.3       1 ATP401      0.0000 
     10 O1A        56.8860   20.7590   61.2930 O.co2     1 ATP401      0.0000 
     11 O2A        57.9770   21.4090   63.4480 O.co2     1 ATP401      0.0000 
     12 O3A        55.5310   20.8950   63.3750 O.3       1 ATP401      0.0000 
     13 O5'        56.3620   22.9520   62.3800 O.3       1 ATP401      0.0000 
     14 C5'        55.1410   23.2270   61.7020 C.3       1 ATP401      0.0000 
     15 C4'        55.3060   24.4720   60.8730 C.3       1 ATP401      0.0000 
     16 O4'        55.6570   25.5680   61.7390 O.3       1 ATP401      0.0000 
     17 C3'        56.4340   24.4580   59.8440 C.3       1 ATP401      0.0000 
     18 O3'        56.0250   23.8460   58.6350 O.3       1 ATP401      0.0000 
     19 C2'        56.6500   25.9530   59.6220 C.3       1 ATP401      0.0000 
     20 O2'        55.8140   26.4800   58.6200 O.3       1 ATP401      0.0000 
     21 C1'        56.3840   26.5260   61.0120 C.3       1 ATP401      0.0000 
     22 N9         57.6170   26.7870   61.6930 N.pl3     1 ATP401      0.0000 
     23 C8         58.3030   25.9610   62.5030 C.2       1 ATP401      0.0000 
     24 N7         59.4230   26.4750   62.9320 N.2       1 ATP401      0.0000 
     25 C5         59.4730   27.7220   62.3420 C.ar      1 ATP401      0.0000 
     26 C6         60.4110   28.7600   62.3840 C.ar      1 ATP401      0.0000 
     27 N6         61.5480   28.6930   63.0570 N.pl3     1 ATP401      0.0000 
     28 N1         60.1460   29.8620   61.6580 N.ar      1 ATP401      0.0000 
     29 C2         59.0100   29.9170   60.9630 C.ar      1 ATP401      0.0000 
     30 N3         58.0580   29.0070   60.8510 N.ar      1 ATP401      0.0000 
     31 C4         58.3600   27.9220   61.5710 C.ar      1 ATP401      0.0000 
@<TRIPOS>BOND
     1    1    2 ar   
     2    1    3 ar   
     3    1    4 ar   
     4    1    8 1    
     5    5    6 ar   
     6    5    7 ar   
     7    5    8 1    
     8    5   12 1    
     9    9   10 ar   
    10    9   11 ar   
    11    9   12 1    
    12    9   13 1    
    13   13   14 1    
    14   14   15 1    
    15   15   16 1    
    16   15   17 1    
    17   16   21 1    
    18   17   18 1    
    19   17   19 1    
    20   19   20 1    
    21   19   21 1    
    22   21   22 1    
    23   22   23 1    
    24   22   31 1    
    25   23   24 2    
    26   24   25 1    
    27   25   26 ar   
    28   25   31 ar   
    29   26   27 1    
    30   26   28 ar   
    31   28   29 ar   
    32   29   30 ar   
    33   30   31 ar   
@<TRIPOS>SUBSTRUCTURE
     1 ATP401      1 GROUP   
@<TRIPOS>SET
ATOM$ORANGE STATIC     ATOMS   COLORGROUP SYSTEM 
20 14 14 15 15 17 17 19 19 21 21 23 23 25 25 26 26 29 \
29 31 31 

