#    Name: 6ilt_1_ATP
#    Modification time : Fri May 22 19:24:59 2020

@<TRIPOS>MOLECULE
6ilt_1_ATP
   31    33     1     0     1
SMALL
NO_CHARGES


@<TRIPOS>ATOM
      1 PG         54.0900   14.5370  108.0680 P.3       1 ATP401      0.0000 
      2 O1G        54.9900   13.5720  107.3310 O.co2     1 ATP401      0.0000 
      3 O2G        52.6090   14.3630  107.8120 O.co2     1 ATP401      0.0000 
      4 O3G        54.5480   15.9800  108.0550 O.co2     1 ATP401      0.0000 
      5 PB         55.2620   14.3140  110.7210 P.3       1 ATP401      0.0000 
      6 O1B        56.4240   13.3670  110.4960 O.co2     1 ATP401      0.0000 
      7 O2B        55.4730   15.8070  110.9190 O.co2     1 ATP401      0.0000 
      8 O3B        54.1360   14.0410  109.5980 O.3       1 ATP401      0.0000 
      9 PA         54.3800   12.3350  112.5890 P.3       1 ATP401      0.0000 
     10 O1A        54.8620   11.3610  111.5420 O.co2     1 ATP401      0.0000 
     11 O2A        55.0350   12.4300  113.9460 O.co2     1 ATP401      0.0000 
     12 O3A        54.3820   13.8360  111.9890 O.3       1 ATP401      0.0000 
     13 O5'        52.8220   12.0890  112.8690 O.3       1 ATP401      0.0000 
     14 C5'        52.1760   13.0370  113.7090 C.3       1 ATP401      0.0000 
     15 C4'        51.1330   12.3430  114.5580 C.3       1 ATP401      0.0000 
     16 O4'        50.3200   11.4920  113.7520 O.3       1 ATP401      0.0000 
     17 C3'        51.7660   11.4120  115.5830 C.3       1 ATP401      0.0000 
     18 O3'        52.1610   12.0980  116.7710 O.3       1 ATP401      0.0000 
     19 C2'        50.6460   10.4360  115.8620 C.3       1 ATP401      0.0000 
     20 O2'        49.8220   10.9080  116.9410 O.3       1 ATP401      0.0000 
     21 C1'        49.8560   10.4060  114.5600 C.3       1 ATP401      0.0000 
     22 N9         50.2160    9.1120  113.9590 N.pl3     1 ATP401      0.0000 
     23 C8         51.3250    8.8760  113.2430 C.2       1 ATP401      0.0000 
     24 N7         51.3850    7.5820  112.8580 N.2       1 ATP401      0.0000 
     25 C5         50.2930    6.9660  113.3500 C.ar      1 ATP401      0.0000 
     26 C6         49.7420    5.5920  113.3130 C.ar      1 ATP401      0.0000 
     27 N6         50.3900    4.6030  112.6490 N.pl3     1 ATP401      0.0000 
     28 N1         48.5730    5.3700  113.9570 N.ar      1 ATP401      0.0000 
     29 C2         47.9240    6.3530  114.6160 C.ar      1 ATP401      0.0000 
     30 N3         48.3660    7.6230  114.6880 N.ar      1 ATP401      0.0000 
     31 C4         49.5220    7.9820  114.0770 C.ar      1 ATP401      0.0000 
@<TRIPOS>BOND
     1    1    2 ar   
     2    1    3 ar   
     3    1    4 ar   
     4    1    8 1    
     5    5    6 ar   
     6    5    7 ar   
     7    5    8 1    
     8    5   12 1    
     9    9   10 ar   
    10    9   11 ar   
    11    9   12 1    
    12    9   13 1    
    13   13   14 1    
    14   14   15 1    
    15   15   16 1    
    16   15   17 1    
    17   16   21 1    
    18   17   18 1    
    19   17   19 1    
    20   19   20 1    
    21   19   21 1    
    22   21   22 1    
    23   22   23 1    
    24   22   31 1    
    25   23   24 2    
    26   24   25 1    
    27   25   26 ar   
    28   25   31 ar   
    29   26   27 1    
    30   26   28 ar   
    31   28   29 ar   
    32   29   30 ar   
    33   30   31 ar   
@<TRIPOS>SUBSTRUCTURE
     1 ATP401      1 GROUP   
@<TRIPOS>SET
ATOM$ORANGE STATIC     ATOMS   COLORGROUP SYSTEM 
20 14 14 15 15 17 17 19 19 21 21 23 23 25 25 26 26 29 \
29 31 31 

