#    Name: 6r4v_3_BFQ
#    Modification time : Fri May 22 19:29:25 2020

@<TRIPOS>MOLECULE
6r4v_3_BFQ
   19    18     1     0     0
SMALL
NO_CHARGES


@<TRIPOS>ATOM
      1 P1         83.4980   73.6180   32.8820 P.3       1 BFQ1304     0.0000 
      2 O2         84.7280   72.7540   32.9870 O.co2     1 BFQ1304     0.0000 
      3 O3         82.5370   73.1580   33.9420 O.co2     1 BFQ1304     0.0000 
      4 O5         82.8950   73.4470   31.5100 O.co2     1 BFQ1304     0.0000 
      5 C7         83.9100   75.4200   33.1160 C.3       1 BFQ1304     0.0000 
      6 P8         84.9200   75.5520   34.6670 P.3       1 BFQ1304     0.0000 
      7 O9         86.2130   74.7990   34.4810 O.co2     1 BFQ1304     0.0000 
      8 O10        85.2300   76.9930   34.9770 O.co2     1 BFQ1304     0.0000 
      9 O12        84.1010   74.9440   35.7750 O.co2     1 BFQ1304     0.0000 
     10 O14        82.7370   76.1760   33.2620 O.3       1 BFQ1304     0.0000 
     11 C16        84.7210   75.9220   31.9200 C.3       1 BFQ1304     0.0000 
     12 C19        83.9310   76.9390   31.0920 C.3       1 BFQ1304     0.0000 
     13 N22        84.6590   78.1960   30.9710 N.4       1 BFQ1304     0.0000 
     14 C23        86.0880   77.9410   30.9240 C.3       1 BFQ1304     0.0000 
     15 C26        86.8490   78.9730   30.0940 C.3       1 BFQ1304     0.0000 
     16 C29        88.1570   78.3090   29.6740 C.3       1 BFQ1304     0.0000 
     17 C32        89.1910   79.3080   29.1660 C.3       1 BFQ1304     0.0000 
     18 C35        90.4680   78.5450   28.8220 C.3       1 BFQ1304     0.0000 
     19 C39        84.3440   79.0110   32.1300 C.3       1 BFQ1304     0.0000 
@<TRIPOS>BOND
     1    1    2 ar   
     2    1    3 ar   
     3    1    4 ar   
     4    1    5 1    
     5    5    6 1    
     6    5   10 1    
     7    5   11 1    
     8    6    7 ar   
     9    6    8 ar   
    10    6    9 ar   
    11   11   12 1    
    12   12   13 1    
    13   13   14 1    
    14   13   19 1    
    15   14   15 1    
    16   15   16 1    
    17   16   17 1    
    18   17   18 1    
@<TRIPOS>SUBSTRUCTURE
     1 BFQ1304     1 GROUP   
@<TRIPOS>SET

