#    Name: 6r4v_2_BFQ
#    Modification time : Fri May 22 19:29:20 2020

@<TRIPOS>MOLECULE
6r4v_2_BFQ
   19    18     1     0     0
SMALL
NO_CHARGES


@<TRIPOS>ATOM
      1 P1        123.2730   37.1560   33.7150 P.3       1 BFQ1304     0.0000 
      2 O2        122.0120   37.9880   33.7000 O.co2     1 BFQ1304     0.0000 
      3 O3        124.1680   37.7140   34.7900 O.co2     1 BFQ1304     0.0000 
      4 O5        123.9510   37.2320   32.3710 O.co2     1 BFQ1304     0.0000 
      5 C7        122.9190   35.3720   34.0980 C.3       1 BFQ1304     0.0000 
      6 P8        121.8720   35.3220   35.6260 P.3       1 BFQ1304     0.0000 
      7 O9        120.5360   35.9660   35.3470 O.co2     1 BFQ1304     0.0000 
      8 O10       121.6400   33.8920   36.0420 O.co2     1 BFQ1304     0.0000 
      9 O12       122.6150   36.0620   36.7120 O.co2     1 BFQ1304     0.0000 
     10 O14       124.1340   34.7210   34.3530 O.3       1 BFQ1304     0.0000 
     11 C16       122.1750   34.6940   32.9450 C.3       1 BFQ1304     0.0000 
     12 C19       122.9830   33.5070   32.4120 C.3       1 BFQ1304     0.0000 
     13 N22       122.1900   32.2870   32.3170 N.4       1 BFQ1304     0.0000 
     14 C23       120.7720   32.5860   32.1940 C.3       1 BFQ1304     0.0000 
     15 C26       120.0390   31.5530   31.3370 C.3       1 BFQ1304     0.0000 
     16 C29       118.7240   32.1770   30.8720 C.3       1 BFQ1304     0.0000 
     17 C32       117.7980   31.1350   30.2510 C.3       1 BFQ1304     0.0000 
     18 C35       116.4090   31.7330   30.0200 C.3       1 BFQ1304     0.0000 
     19 C39       122.4280   31.4900   33.5090 C.3       1 BFQ1304     0.0000 
@<TRIPOS>BOND
     1    1    2 ar   
     2    1    3 ar   
     3    1    4 ar   
     4    1    5 1    
     5    5    6 1    
     6    5   10 1    
     7    5   11 1    
     8    6    7 ar   
     9    6    8 ar   
    10    6    9 ar   
    11   11   12 1    
    12   12   13 1    
    13   13   14 1    
    14   13   19 1    
    15   14   15 1    
    16   15   16 1    
    17   16   17 1    
    18   17   18 1    
@<TRIPOS>SUBSTRUCTURE
     1 BFQ1304     1 GROUP   
@<TRIPOS>SET

