#    Name: 6r4v_5_BFQ
#    Modification time : Fri May 22 19:29:30 2020

@<TRIPOS>MOLECULE
6r4v_5_BFQ
   19    18     1     0     0
SMALL
NO_CHARGES


@<TRIPOS>ATOM
      1 P1         90.8310   45.9260   61.5170 P.3       1 BFQ1304     0.0000 
      2 O2         89.9490   46.9520   62.1890 O.co2     1 BFQ1304     0.0000 
      3 O3         89.9620   44.8880   60.8410 O.co2     1 BFQ1304     0.0000 
      4 O5         91.7010   46.6000   60.4800 O.co2     1 BFQ1304     0.0000 
      5 C7         91.8770   45.1260   62.8270 C.3       1 BFQ1304     0.0000 
      6 P8         93.2810   44.1750   62.0660 P.3       1 BFQ1304     0.0000 
      7 O9         94.0840   45.0710   61.1620 O.co2     1 BFQ1304     0.0000 
      8 O10        94.1810   43.6770   63.1610 O.co2     1 BFQ1304     0.0000 
      9 O12        92.7590   43.0050   61.2720 O.co2     1 BFQ1304     0.0000 
     10 O14        91.0740   44.2530   63.5740 O.3       1 BFQ1304     0.0000 
     11 C16        92.4580   46.2220   63.7220 C.3       1 BFQ1304     0.0000 
     12 C19        91.8720   46.1480   65.1310 C.3       1 BFQ1304     0.0000 
     13 N22        92.9110   45.8680   66.1090 N.4       1 BFQ1304     0.0000 
     14 C23        94.1470   46.5550   65.7720 C.3       1 BFQ1304     0.0000 
     15 C26        94.6310   47.3660   66.9710 C.3       1 BFQ1304     0.0000 
     16 C29        96.1430   47.5490   66.8960 C.3       1 BFQ1304     0.0000 
     17 C32        96.4710   48.8210   66.1280 C.3       1 BFQ1304     0.0000 
     18 C35        97.8650   49.3420   66.4760 C.3       1 BFQ1304     0.0000 
     19 C39        93.1410   44.4350   66.1460 C.3       1 BFQ1304     0.0000 
@<TRIPOS>BOND
     1    1    2 ar   
     2    1    3 ar   
     3    1    4 ar   
     4    1    5 1    
     5    5    6 1    
     6    5   10 1    
     7    5   11 1    
     8    6    7 ar   
     9    6    8 ar   
    10    6    9 ar   
    11   11   12 1    
    12   12   13 1    
    13   13   14 1    
    14   13   19 1    
    15   14   15 1    
    16   15   16 1    
    17   16   17 1    
    18   17   18 1    
@<TRIPOS>SUBSTRUCTURE
     1 BFQ1304     1 GROUP   
@<TRIPOS>SET

