#    Name: 6r4v_5_BFQ_CAVITY_N1_4
#    Modification time : Fri May 22 19:29:31 2020

@<TRIPOS>MOLECULE
6r4v_5_BFQ_CAVITY_N1_4
   71     0     7     0     0
SMALL
NO_CHARGES


@<TRIPOS>ATOM
      1 OG         88.9400   46.0600   66.6900 O.3       1 SER1        0.0000 
      2 OG         88.3400   47.2100   65.9300 O.3       1 SER1        0.0000 
      3 OG         90.0800   45.8800   68.4700 O.3       1 SER1        0.0000 
      4 OG         91.3500   46.0100   67.6700 O.3       1 SER1        0.0000 
      5 OG         90.7500   47.1500   66.9100 O.3       1 SER1        0.0000 
      6 OG         93.1500   47.1000   67.8800 O.3       1 SER1        0.0000 
      7 OG         94.4200   47.2200   67.0800 O.3       1 SER1        0.0000 
      8 OG         93.8200   48.3700   66.3200 O.3       1 SER1        0.0000 
      9 OG         93.7000   48.0600   68.9000 O.3       1 SER1        0.0000 
     10 OG         94.9600   48.1800   68.1000 O.3       1 SER1        0.0000 
     11 OG         96.2200   48.3100   67.3000 O.3       1 SER1        0.0000 
     12 N          89.7100   43.1200   64.6300 N.am      2 ALA2        0.0000 
     13 N          90.9700   43.2500   63.8300 N.am      2 ALA2        0.0000 
     14 O          92.2300   43.3800   63.0300 O.2       2 ALA2        0.0000 
     15 N          90.8500   42.9400   66.4000 N.am      2 ALA2        0.0000 
     16 N          90.2500   44.0800   65.6400 N.am      2 ALA2        0.0000 
     17 N          91.5200   44.2100   64.8400 N.am      2 ALA2        0.0000 
     18 N          92.7800   44.3400   64.0400 N.am      2 ALA2        0.0000 
     19 N          92.6600   44.0300   66.6200 N.am      2 ALA2        0.0000 
     20 N          93.8100   43.8500   68.3900 N.am      2 ALA2        0.0000 
     21 N          95.1300   46.3900   65.2700 N.am      2 ALA2        0.0000 
     22 N          93.7500   45.9500   68.6500 N.am      2 ALA2        0.0000 
     23 N          96.2800   46.2100   67.0400 N.am      2 ALA2        0.0000 
     24 N          95.6800   47.3500   66.2800 N.am      2 ALA2        0.0000 
     25 O          97.4900   48.4400   66.5000 O.2       2 ALA2        0.0000 
     26 OD1        90.3700   44.4000   63.0700 O.co2     3 ASP3        0.0000 
     27 OD1        91.6300   44.5200   62.2700 O.co2     3 ASP3        0.0000 
     28 OD1        94.0400   44.4700   63.2400 O.co2     3 ASP3        0.0000 
     29 OD1        89.0600   46.3700   64.1200 O.co2     3 ASP3        0.0000 
     30 OD1        90.3200   46.5000   63.3200 O.co2     3 ASP3        0.0000 
     31 OD1        87.2000   47.3900   64.1600 O.co2     3 ASP3        0.0000 
     32 NZ         89.1100   44.2700   63.8700 N.4       4 LYS4        0.0000 
     33 NZ         88.9900   43.9600   66.4400 N.4       4 LYS4        0.0000 
     34 NZ         88.3900   45.1000   65.6800 N.4       4 LYS4        0.0000 
     35 NZ         92.1800   45.4800   63.2800 N.4       4 LYS4        0.0000 
     36 NZ         93.4400   45.6100   62.4800 N.4       4 LYS4        0.0000 
     37 NZ         87.7900   46.2500   64.9200 N.4       4 LYS4        0.0000 
     38 NZ         91.5800   46.6300   62.5200 N.4       4 LYS4        0.0000 
     39 NZ         94.5900   45.4300   64.2500 N.4       4 LYS4        0.0000 
     40 NZ         92.7300   46.4500   64.2900 N.4       4 LYS4        0.0000 
     41 NZ         94.5300   47.5300   64.5100 N.4       4 LYS4        0.0000 
     42 CZ         91.8900   46.9700   68.6800 C.ar      5 PHE5        0.0000 
     43 CA         90.1400   43.7700   68.2200 C.3       6 GLY6        0.0000 
     44 CA         91.4000   43.9000   67.4200 C.3       6 GLY6        0.0000 
     45 CA         93.9200   44.1600   65.8200 C.3       6 GLY6        0.0000 
     46 CA         90.2000   46.1900   65.8900 C.3       6 GLY6        0.0000 
     47 CA         91.4600   46.3200   65.0900 C.3       6 GLY6        0.0000 
     48 CA         89.6000   47.3300   65.1300 C.3       6 GLY6        0.0000 
     49 CA         90.8600   47.4600   64.3300 C.3       6 GLY6        0.0000 
     50 CA         92.1300   47.5900   63.5300 C.3       6 GLY6        0.0000 
     51 CA         87.7400   48.3500   65.1700 C.3       6 GLY6        0.0000 
     52 CA         92.5500   43.7200   69.1900 C.3       6 GLY6        0.0000 
     53 CA         91.9500   44.8600   68.4300 C.3       6 GLY6        0.0000 
     54 CA         93.2100   44.9900   67.6300 C.3       6 GLY6        0.0000 
     55 CA         94.4700   45.1200   66.8300 C.3       6 GLY6        0.0000 
     56 CA         92.0100   47.2800   66.1100 C.3       6 GLY6        0.0000 
     57 CA         93.2700   47.4100   65.3100 C.3       6 GLY6        0.0000 
     58 CA         92.4900   45.8200   69.4500 C.3       6 GLY6        0.0000 
     59 CA         95.0200   46.0800   67.8500 C.3       6 GLY6        0.0000 
     60 CA         92.5600   48.2400   67.1200 C.3       6 GLY6        0.0000 
     61 CA         95.0800   48.5000   65.5200 C.3       6 GLY6        0.0000 
     62 CA         94.3000   46.9100   69.6600 C.3       6 GLY6        0.0000 
     63 DU         89.6600   45.2300   64.8800 H         7 CUB7        0.0000 
     64 DU         90.9200   45.3600   64.0800 H         7 CUB7        0.0000 
     65 DU         89.5400   44.9200   67.4600 H         7 CUB7        0.0000 
     66 DU         90.8000   45.0500   66.6600 H         7 CUB7        0.0000 
     67 DU         92.0600   45.1700   65.8600 H         7 CUB7        0.0000 
     68 DU         93.3300   45.3000   65.0600 H         7 CUB7        0.0000 
     69 DU         90.6800   44.7400   69.2300 H         7 CUB7        0.0000 
     70 DU         92.6100   46.1300   66.8700 H         7 CUB7        0.0000 
     71 DU         93.8700   46.2600   66.0700 H         7 CUB7        0.0000 
@<TRIPOS>BOND
@<TRIPOS>SUBSTRUCTURE
     1 SER1        1 GROUP   
     2 ALA2       12 GROUP   
     3 ASP3       26 GROUP   
     4 LYS4       32 GROUP   
     5 PHE5       42 GROUP   
     6 GLY6       43 GROUP   
     7 CUB7       63 GROUP   
@<TRIPOS>SET

