#    Name: 6r4v_2_BFQ_CAVITY_N1_4
#    Modification time : Fri May 22 19:29:21 2020

@<TRIPOS>MOLECULE
6r4v_2_BFQ_CAVITY_N1_4
   79     0     7     0     0
SMALL
NO_CHARGES


@<TRIPOS>ATOM
      1 OG        124.1400   30.0000   29.6800 O.3       1 SER1        0.0000 
      2 OG        122.2700   31.0200   29.7200 O.3       1 SER1        0.0000 
      3 OG        119.1500   31.9100   30.5600 O.3       1 SER1        0.0000 
      4 OG        120.4100   32.0400   29.7600 O.3       1 SER1        0.0000 
      5 N         123.4700   28.7300   31.2500 N.am      2 ALA2        0.0000 
      6 N         121.6100   29.7500   31.2800 N.am      2 ALA2        0.0000 
      7 N         122.8700   29.8800   30.4800 N.am      2 ALA2        0.0000 
      8 N         122.1600   30.7100   32.3000 N.am      2 ALA2        0.0000 
      9 N         123.4200   30.8400   31.5000 N.am      2 ALA2        0.0000 
     10 N         120.3000   31.7300   32.3400 N.am      2 ALA2        0.0000 
     11 N         122.7000   31.6700   33.3100 N.am      2 ALA2        0.0000 
     12 N         120.8400   32.6900   33.3500 N.am      2 ALA2        0.0000 
     13 N         126.3700   31.7400   33.4900 N.am      2 ALA2        0.0000 
     14 N         123.2500   32.6300   34.3300 N.am      2 ALA2        0.0000 
     15 N         124.5100   32.7600   33.5200 N.am      2 ALA2        0.0000 
     16 N         126.9200   32.7000   34.5000 N.am      2 ALA2        0.0000 
     17 N         125.0600   33.7200   34.5400 N.am      2 ALA2        0.0000 
     18 OD1       121.3900   33.6500   34.3600 O.co2     3 ASP3        0.0000 
     19 OD1       121.9300   34.6100   35.3800 O.co2     3 ASP3        0.0000 
     20 OD1       122.6000   35.8800   33.8100 O.co2     3 ASP3        0.0000 
     21 OD1       123.8600   36.0100   33.0100 O.co2     3 ASP3        0.0000 
     22 OD1       125.1200   36.1400   32.2100 O.co2     3 ASP3        0.0000 
     23 OD1       126.3800   36.2700   31.4100 O.co2     3 ASP3        0.0000 
     24 OD1       123.2600   37.1500   32.2500 O.co2     3 ASP3        0.0000 
     25 OD1       124.4000   36.9700   34.0300 O.co2     3 ASP3        0.0000 
     26 OD1       123.8000   38.1200   33.2600 O.co2     3 ASP3        0.0000 
     27 OD1       125.0700   38.2400   32.4600 O.co2     3 ASP3        0.0000 
     28 OD1       126.3300   38.3700   31.6600 O.co2     3 ASP3        0.0000 
     29 NZ        119.7000   32.8700   31.5700 N.4       4 LYS4        0.0000 
     30 NZ        120.2400   33.8300   32.5900 N.4       4 LYS4        0.0000 
     31 NZ        120.7900   34.7900   33.6000 N.4       4 LYS4        0.0000 
     32 NZ        122.0500   34.9200   32.8000 N.4       4 LYS4        0.0000 
     33 NZ        126.3200   33.8500   33.7400 N.4       4 LYS4        0.0000 
     34 NZ        123.2000   34.7400   34.5800 N.4       4 LYS4        0.0000 
     35 NZ        124.4600   34.8700   33.7800 N.4       4 LYS4        0.0000 
     36 NZ        125.7200   34.9900   32.9800 N.4       4 LYS4        0.0000 
     37 NZ        127.5300   36.0800   33.1900 N.4       4 LYS4        0.0000 
     38 NZ        125.6700   37.1000   33.2300 N.4       4 LYS4        0.0000 
     39 NZ        125.6100   39.2000   33.4800 N.4       4 LYS4        0.0000 
     40 CZ        124.6800   30.9600   30.7000 C.ar      5 PHE5        0.0000 
     41 CZ        124.0800   32.1100   29.9300 C.ar      5 PHE5        0.0000 
     42 CZ        124.6300   33.0700   30.9500 C.ar      5 PHE5        0.0000 
     43 CZ        125.8900   33.2000   30.1500 C.ar      5 PHE5        0.0000 
     44 CA        122.3300   28.9100   29.4700 C.3       6 GLY6        0.0000 
     45 CA        120.4700   29.9300   29.5100 C.3       6 GLY6        0.0000 
     46 CA        121.7300   30.0600   28.7100 C.3       6 GLY6        0.0000 
     47 CA        119.7500   30.7700   31.3200 C.3       6 GLY6        0.0000 
     48 CA        121.0100   30.8900   30.5200 C.3       6 GLY6        0.0000 
     49 CA        124.0200   29.6900   32.2600 C.3       6 GLY6        0.0000 
     50 CA        125.2800   29.8200   31.4600 C.3       6 GLY6        0.0000 
     51 CA        120.8900   30.5800   33.1000 C.3       6 GLY6        0.0000 
     52 CA        122.8200   31.9800   30.7300 C.3       6 GLY6        0.0000 
     53 CA        120.9600   33.0000   30.7700 C.3       6 GLY6        0.0000 
     54 CA        122.2200   33.1300   29.9700 C.3       6 GLY6        0.0000 
     55 CA        120.3600   34.1400   30.0100 C.3       6 GLY6        0.0000 
     56 CA        123.3000   30.5300   34.0700 C.3       6 GLY6        0.0000 
     57 CA        124.5600   30.6500   33.2700 C.3       6 GLY6        0.0000 
     58 CA        125.8300   30.7800   32.4700 C.3       6 GLY6        0.0000 
     59 CA        121.4400   31.5400   34.1100 C.3       6 GLY6        0.0000 
     60 CA        123.3700   32.9400   31.7500 C.3       6 GLY6        0.0000 
     61 CA        121.5000   33.9600   31.7900 C.3       6 GLY6        0.0000 
     62 CA        122.7700   34.0900   30.9900 C.3       6 GLY6        0.0000 
     63 CA        120.9000   35.1000   31.0200 C.3       6 GLY6        0.0000 
     64 CA        121.9900   32.5000   35.1300 C.3       6 GLY6        0.0000 
     65 CA        123.3100   35.0500   32.0000 C.3       6 GLY6        0.0000 
     66 CA        124.5700   35.1800   31.2000 C.3       6 GLY6        0.0000 
     67 CA        122.7100   36.1900   31.2400 C.3       6 GLY6        0.0000 
     68 DU        121.5600   31.8500   31.5300 H         7 CUB7        0.0000 
     69 DU        123.9600   31.8000   32.5100 H         7 CUB7        0.0000 
     70 DU        125.2300   31.9300   31.7100 H         7 CUB7        0.0000 
     71 DU        122.1000   32.8200   32.5500 H         7 CUB7        0.0000 
     72 DU        125.7700   32.8900   32.7200 H         7 CUB7        0.0000 
     73 DU        122.6500   33.7800   33.5600 H         7 CUB7        0.0000 
     74 DU        123.9100   33.9000   32.7600 H         7 CUB7        0.0000 
     75 DU        125.1700   34.0300   31.9600 H         7 CUB7        0.0000 
     76 DU        126.4400   34.1600   31.1600 H         7 CUB7        0.0000 
     77 DU        127.5800   33.9800   32.9400 H         7 CUB7        0.0000 
     78 DU        126.9800   35.1200   32.1700 H         7 CUB7        0.0000 
     79 DU        126.9300   37.2300   32.4300 H         7 CUB7        0.0000 
@<TRIPOS>BOND
@<TRIPOS>SUBSTRUCTURE
     1 SER1        1 GROUP   
     2 ALA2        5 GROUP   
     3 ASP3       18 GROUP   
     4 LYS4       29 GROUP   
     5 PHE5       40 GROUP   
     6 GLY6       44 GROUP   
     7 CUB7       68 GROUP   
@<TRIPOS>SET

