#    Name: 6r4v_3_BFQ_CAVITY_N1_4
#    Modification time : Fri May 22 19:29:26 2020

@<TRIPOS>MOLECULE
6r4v_3_BFQ_CAVITY_N1_4
   74     0     7     0     0
SMALL
NO_CHARGES


@<TRIPOS>ATOM
      1 OG         85.1900   78.2100   29.3600 O.3       1 SER1        0.0000 
      2 OG         84.5900   79.3500   28.6000 O.3       1 SER1        0.0000 
      3 OG         82.7300   80.3700   28.6400 O.3       1 SER1        0.0000 
      4 OG         86.9900   79.3000   29.5700 O.3       1 SER1        0.0000 
      5 N          80.1400   77.7000   32.5600 N.am      2 ALA2        0.0000 
      6 N          83.1400   76.5000   34.3000 N.am      2 ALA2        0.0000 
      7 N          84.4100   76.6200   33.5000 N.am      2 ALA2        0.0000 
      8 N          83.8100   77.7700   32.7400 N.am      2 ALA2        0.0000 
      9 N          86.3300   78.0200   31.1400 N.am      2 ALA2        0.0000 
     10 O          87.5900   78.1500   30.3400 O.2       2 ALA2        0.0000 
     11 O          88.8600   78.2800   29.5300 O.2       2 ALA2        0.0000 
     12 N          81.9500   78.7900   32.7700 N.am      2 ALA2        0.0000 
     13 N          83.2100   78.9100   31.9700 N.am      2 ALA2        0.0000 
     14 N          83.8700   80.1900   30.4100 N.am      2 ALA2        0.0000 
     15 N          85.1300   80.3100   29.6100 N.am      2 ALA2        0.0000 
     16 N          84.3500   78.7300   33.7500 N.am      2 ALA2        0.0000 
     17 OD1        80.3000   71.3800   31.8100 O.co2     3 ASP3        0.0000 
     18 OD1        79.7000   72.5200   31.0400 O.co2     3 ASP3        0.0000 
     19 OD1        82.1100   72.4700   32.0200 O.co2     3 ASP3        0.0000 
     20 OD1        81.5100   73.6100   31.2600 O.co2     3 ASP3        0.0000 
     21 OD1        80.9100   74.7600   30.5000 O.co2     3 ASP3        0.0000 
     22 OD1        82.6500   73.4300   33.0300 O.co2     3 ASP3        0.0000 
     23 OD1        83.9100   73.5600   32.2300 O.co2     3 ASP3        0.0000 
     24 OD1        83.3100   74.7000   31.4700 O.co2     3 ASP3        0.0000 
     25 OD1        84.4600   74.5200   33.2500 O.co2     3 ASP3        0.0000 
     26 OD1        85.0100   75.4800   34.2600 O.co2     3 ASP3        0.0000 
     27 NZ         80.8400   72.3400   32.8200 N.4       4 LYS4        0.0000 
     28 NZ         78.9800   73.3600   32.8600 N.4       4 LYS4        0.0000 
     29 NZ         80.2400   73.4900   32.0600 N.4       4 LYS4        0.0000 
     30 NZ         82.0500   74.5700   32.2700 N.4       4 LYS4        0.0000 
     31 NZ         78.9300   75.4600   33.1100 N.4       4 LYS4        0.0000 
     32 NZ         80.1900   75.5900   32.3100 N.4       4 LYS4        0.0000 
     33 NZ         82.6000   75.5400   33.2900 N.4       4 LYS4        0.0000 
     34 NZ         85.1200   75.7900   31.6800 N.4       4 LYS4        0.0000 
     35 NZ         80.7400   76.5500   33.3200 N.4       4 LYS4        0.0000 
     36 NZ         82.0000   76.6800   32.5200 N.4       4 LYS4        0.0000 
     37 NZ         85.6700   76.7500   32.7000 N.4       4 LYS4        0.0000 
     38 CZ         80.3100   75.9000   29.7300 C.ar      5 PHE5        0.0000 
     39 CZ         81.5700   76.0300   28.9300 C.ar      5 PHE5        0.0000 
     40 CZ         82.1200   76.9900   29.9500 C.ar      5 PHE5        0.0000 
     41 CZ         80.2500   78.0100   29.9800 C.ar      5 PHE5        0.0000 
     42 CZ         81.5200   78.1300   29.1800 C.ar      5 PHE5        0.0000 
     43 CZ         82.0600   79.1000   30.2000 C.ar      5 PHE5        0.0000 
     44 CZ         83.3200   79.2200   29.4000 C.ar      5 PHE5        0.0000 
     45 CA         82.1700   74.8800   29.7000 C.3       6 GLY6        0.0000 
     46 CA         84.5800   74.8300   30.6700 C.3       6 GLY6        0.0000 
     47 CA         82.7100   75.8500   30.7100 C.3       6 GLY6        0.0000 
     48 CA         83.3800   77.1200   29.1500 C.3       6 GLY6        0.0000 
     49 CA         84.5200   76.9400   30.9200 C.3       6 GLY6        0.0000 
     50 CA         85.7800   77.0600   30.1200 C.3       6 GLY6        0.0000 
     51 CA         83.9200   78.0800   30.1600 C.3       6 GLY6        0.0000 
     52 CA         88.2600   79.4200   28.7700 C.3       6 GLY6        0.0000 
     53 CA         81.3500   79.9300   32.0100 C.3       6 GLY6        0.0000 
     54 CA         82.6100   80.0600   31.2100 C.3       6 GLY6        0.0000 
     55 CA         86.3900   80.4400   28.8100 C.3       6 GLY6        0.0000 
     56 CA         82.0100   81.2000   30.4500 C.3       6 GLY6        0.0000 
     57 CA         85.6100   78.8600   32.9500 C.3       6 GLY6        0.0000 
     58 CA         83.7500   79.8700   32.9900 C.3       6 GLY6        0.0000 
     59 CA         85.0200   80.0000   32.1900 C.3       6 GLY6        0.0000 
     60 CA         86.2800   80.1300   31.3900 C.3       6 GLY6        0.0000 
     61 CA         87.5400   80.2600   30.5900 C.3       6 GLY6        0.0000 
     62 CA         83.1500   81.0200   32.2300 C.3       6 GLY6        0.0000 
     63 DU         79.6400   74.6300   31.3000 H         7 CUB7        0.0000 
     64 DU         81.4500   75.7200   31.5100 H         7 CUB7        0.0000 
     65 DU         79.5900   76.7400   31.5500 H         7 CUB7        0.0000 
     66 DU         80.8500   76.8600   30.7500 H         7 CUB7        0.0000 
     67 DU         83.8600   75.6600   32.4900 H         7 CUB7        0.0000 
     68 DU         83.2600   76.8100   31.7200 H         7 CUB7        0.0000 
     69 DU         81.4000   77.8200   31.7600 H         7 CUB7        0.0000 
     70 DU         82.6600   77.9500   30.9600 H         7 CUB7        0.0000 
     71 DU         80.8000   78.9700   31.0000 H         7 CUB7        0.0000 
     72 DU         85.0700   77.9000   31.9400 H         7 CUB7        0.0000 
     73 DU         84.4700   79.0400   31.1700 H         7 CUB7        0.0000 
     74 DU         85.7300   79.1700   30.3700 H         7 CUB7        0.0000 
@<TRIPOS>BOND
@<TRIPOS>SUBSTRUCTURE
     1 SER1        1 GROUP   
     2 ALA2        5 GROUP   
     3 ASP3       17 GROUP   
     4 LYS4       27 GROUP   
     5 PHE5       38 GROUP   
     6 GLY6       45 GROUP   
     7 CUB7       63 GROUP   
@<TRIPOS>SET

