#    Name: 6r4v_5_BFQ_CAVITY_N1_6
#    Modification time : Fri May 22 19:29:31 2020

@<TRIPOS>MOLECULE
6r4v_5_BFQ_CAVITY_N1_6
  103     0     7     0     0
SMALL
NO_CHARGES


@<TRIPOS>ATOM
      1 OG         87.6800   45.9300   67.4900 O.3       1 SER1        0.0000 
      2 OG         88.9400   46.0600   66.6900 O.3       1 SER1        0.0000 
      3 OG         88.3400   47.2100   65.9300 O.3       1 SER1        0.0000 
      4 OG         88.8200   45.7500   69.2700 O.3       1 SER1        0.0000 
      5 OG         90.0800   45.8800   68.4700 O.3       1 SER1        0.0000 
      6 OG         91.3500   46.0100   67.6700 O.3       1 SER1        0.0000 
      7 OG         90.7500   47.1500   66.9100 O.3       1 SER1        0.0000 
      8 OG         89.3700   46.7100   70.2800 O.3       1 SER1        0.0000 
      9 OG         90.6300   46.8400   69.4800 O.3       1 SER1        0.0000 
     10 OG         93.1500   47.1000   67.8800 O.3       1 SER1        0.0000 
     11 OG         94.4200   47.2200   67.0800 O.3       1 SER1        0.0000 
     12 OG         93.8200   48.3700   66.3200 O.3       1 SER1        0.0000 
     13 OG         93.7000   48.0600   68.9000 O.3       1 SER1        0.0000 
     14 OG         94.9600   48.1800   68.1000 O.3       1 SER1        0.0000 
     15 OG         96.2200   48.3100   67.3000 O.3       1 SER1        0.0000 
     16 N          89.7100   43.1200   64.6300 N.am      2 ALA2        0.0000 
     17 N          90.9700   43.2500   63.8300 N.am      2 ALA2        0.0000 
     18 O          92.2300   43.3800   63.0300 O.2       2 ALA2        0.0000 
     19 N          90.8500   42.9400   66.4000 N.am      2 ALA2        0.0000 
     20 N          90.2500   44.0800   65.6400 N.am      2 ALA2        0.0000 
     21 N          91.5200   44.2100   64.8400 N.am      2 ALA2        0.0000 
     22 N          92.7800   44.3400   64.0400 N.am      2 ALA2        0.0000 
     23 N          92.6600   44.0300   66.6200 N.am      2 ALA2        0.0000 
     24 N          93.8100   43.8500   68.3900 N.am      2 ALA2        0.0000 
     25 N          95.1300   46.3900   65.2700 N.am      2 ALA2        0.0000 
     26 N          91.8300   44.5500   71.0100 N.am      2 ALA2        0.0000 
     27 N          93.0900   44.6800   70.2100 N.am      2 ALA2        0.0000 
     28 N          93.7500   45.9500   68.6500 N.am      2 ALA2        0.0000 
     29 N          96.2800   46.2100   67.0400 N.am      2 ALA2        0.0000 
     30 N          95.6800   47.3500   66.2800 N.am      2 ALA2        0.0000 
     31 O          97.4900   48.4400   66.5000 O.2       2 ALA2        0.0000 
     32 OD1        90.3700   44.4000   63.0700 O.co2     3 ASP3        0.0000 
     33 OD1        91.6300   44.5200   62.2700 O.co2     3 ASP3        0.0000 
     34 OD1        94.0400   44.4700   63.2400 O.co2     3 ASP3        0.0000 
     35 OD1        89.0600   46.3700   64.1200 O.co2     3 ASP3        0.0000 
     36 OD1        90.3200   46.5000   63.3200 O.co2     3 ASP3        0.0000 
     37 OD1        87.2000   47.3900   64.1600 O.co2     3 ASP3        0.0000 
     38 OD1        86.0000   49.6800   62.6300 O.co2     3 ASP3        0.0000 
     39 OD1        87.1400   49.5000   64.4100 O.co2     3 ASP3        0.0000 
     40 NZ         89.1100   44.2700   63.8700 N.4       4 LYS4        0.0000 
     41 NZ         85.9900   45.1600   64.7000 N.4       4 LYS4        0.0000 
     42 NZ         85.3900   46.3000   63.9400 N.4       4 LYS4        0.0000 
     43 NZ         88.9900   43.9600   66.4400 N.4       4 LYS4        0.0000 
     44 NZ         87.1300   44.9700   66.4800 N.4       4 LYS4        0.0000 
     45 NZ         88.3900   45.1000   65.6800 N.4       4 LYS4        0.0000 
     46 NZ         92.1800   45.4800   63.2800 N.4       4 LYS4        0.0000 
     47 NZ         93.4400   45.6100   62.4800 N.4       4 LYS4        0.0000 
     48 NZ         86.5300   46.1200   65.7200 N.4       4 LYS4        0.0000 
     49 NZ         87.7900   46.2500   64.9200 N.4       4 LYS4        0.0000 
     50 NZ         91.5800   46.6300   62.5200 N.4       4 LYS4        0.0000 
     51 NZ         94.5900   45.4300   64.2500 N.4       4 LYS4        0.0000 
     52 NZ         92.7300   46.4500   64.2900 N.4       4 LYS4        0.0000 
     53 NZ         94.5300   47.5300   64.5100 N.4       4 LYS4        0.0000 
     54 CZ         87.7300   43.8300   67.2400 C.ar      5 PHE5        0.0000 
     55 CZ         88.8800   43.6500   69.0200 C.ar      5 PHE5        0.0000 
     56 CZ         87.0800   47.0800   66.7300 C.ar      5 PHE5        0.0000 
     57 CZ         86.4800   48.2200   65.9700 C.ar      5 PHE5        0.0000 
     58 CZ         90.0200   43.4600   70.8000 C.ar      5 PHE5        0.0000 
     59 CZ         91.8900   46.9700   68.6800 C.ar      5 PHE5        0.0000 
     60 CA         84.1900   48.5900   62.4200 C.3       6 GLY6        0.0000 
     61 CA         85.4500   48.7200   61.6200 C.3       6 GLY6        0.0000 
     62 CA         89.5900   42.8100   67.2100 C.3       6 GLY6        0.0000 
     63 CA         84.7300   49.5500   63.4300 C.3       6 GLY6        0.0000 
     64 CA         85.4000   50.8200   61.8700 C.3       6 GLY6        0.0000 
     65 CA         90.1400   43.7700   68.2200 C.3       6 GLY6        0.0000 
     66 CA         91.4000   43.9000   67.4200 C.3       6 GLY6        0.0000 
     67 CA         93.9200   44.1600   65.8200 C.3       6 GLY6        0.0000 
     68 CA         90.2000   46.1900   65.8900 C.3       6 GLY6        0.0000 
     69 CA         91.4600   46.3200   65.0900 C.3       6 GLY6        0.0000 
     70 CA         89.6000   47.3300   65.1300 C.3       6 GLY6        0.0000 
     71 CA         90.8600   47.4600   64.3300 C.3       6 GLY6        0.0000 
     72 CA         92.1300   47.5900   63.5300 C.3       6 GLY6        0.0000 
     73 CA         87.7400   48.3500   65.1700 C.3       6 GLY6        0.0000 
     74 CA         85.8800   49.3700   65.2100 C.3       6 GLY6        0.0000 
     75 CA         86.5400   50.6400   63.6400 C.3       6 GLY6        0.0000 
     76 CA         91.2800   43.5900   70.0000 C.3       6 GLY6        0.0000 
     77 CA         92.5500   43.7200   69.1900 C.3       6 GLY6        0.0000 
     78 CA         91.9500   44.8600   68.4300 C.3       6 GLY6        0.0000 
     79 CA         93.2100   44.9900   67.6300 C.3       6 GLY6        0.0000 
     80 CA         94.4700   45.1200   66.8300 C.3       6 GLY6        0.0000 
     81 CA         92.0100   47.2800   66.1100 C.3       6 GLY6        0.0000 
     82 CA         93.2700   47.4100   65.3100 C.3       6 GLY6        0.0000 
     83 CA         91.2300   45.7000   70.2500 C.3       6 GLY6        0.0000 
     84 CA         92.4900   45.8200   69.4500 C.3       6 GLY6        0.0000 
     85 CA         95.0200   46.0800   67.8500 C.3       6 GLY6        0.0000 
     86 CA         92.5600   48.2400   67.1200 C.3       6 GLY6        0.0000 
     87 CA         95.0800   48.5000   65.5200 C.3       6 GLY6        0.0000 
     88 CA         94.3000   46.9100   69.6600 C.3       6 GLY6        0.0000 
     89 DU         84.7900   47.4500   63.1800 H         7 CUB7        0.0000 
     90 DU         89.6600   45.2300   64.8800 H         7 CUB7        0.0000 
     91 DU         90.9200   45.3600   64.0800 H         7 CUB7        0.0000 
     92 DU         85.9300   47.2600   64.9600 H         7 CUB7        0.0000 
     93 DU         85.3300   48.4100   64.1900 H         7 CUB7        0.0000 
     94 DU         88.2800   44.7900   68.2600 H         7 CUB7        0.0000 
     95 DU         89.5400   44.9200   67.4600 H         7 CUB7        0.0000 
     96 DU         90.8000   45.0500   66.6600 H         7 CUB7        0.0000 
     97 DU         92.0600   45.1700   65.8600 H         7 CUB7        0.0000 
     98 DU         93.3300   45.3000   65.0600 H         7 CUB7        0.0000 
     99 DU         89.4200   44.6100   70.0300 H         7 CUB7        0.0000 
    100 DU         90.6800   44.7400   69.2300 H         7 CUB7        0.0000 
    101 DU         92.6100   46.1300   66.8700 H         7 CUB7        0.0000 
    102 DU         93.8700   46.2600   66.0700 H         7 CUB7        0.0000 
    103 DU         89.9700   45.5700   71.0500 H         7 CUB7        0.0000 
@<TRIPOS>BOND
@<TRIPOS>SUBSTRUCTURE
     1 SER1        1 GROUP   
     2 ALA2       16 GROUP   
     3 ASP3       32 GROUP   
     4 LYS4       40 GROUP   
     5 PHE5       54 GROUP   
     6 GLY6       60 GROUP   
     7 CUB7       89 GROUP   
@<TRIPOS>SET

