#    Name: 5onv_4_ADP_CAVITY_N1_ALL
#    Modification time : Fri May 22 19:16:56 2020

@<TRIPOS>MOLECULE
5onv_4_ADP_CAVITY_N1_ALL
   79     0     6     0     0
SMALL
NO_CHARGES


@<TRIPOS>ATOM
      1 OG        129.5700  150.6700  178.1600 O.3       1 SER1        0.0000 
      2 OG        128.0300  152.1200  178.2700 O.3       1 SER1        0.0000 
      3 O         129.0300  144.2100  174.3900 O.2       2 ALA2        0.0000 
      4 O         127.4900  145.6600  174.5000 O.2       2 ALA2        0.0000 
      5 O         129.2900  144.3700  175.8600 O.2       2 ALA2        0.0000 
      6 N         127.8800  142.8500  176.2800 N.am      2 ALA2        0.0000 
      7 O         130.9100  147.5500  176.7400 O.2       2 ALA2        0.0000 
      8 O         129.4300  147.5200  177.0100 O.2       2 ALA2        0.0000 
      9 N         129.3000  150.5000  176.6900 N.am      2 ALA2        0.0000 
     10 O         128.1500  143.0200  177.7500 O.2       2 ALA2        0.0000 
     11 N         127.8900  148.9800  177.1200 N.am      2 ALA2        0.0000 
     12 N         126.3500  150.4300  177.2300 N.am      2 ALA2        0.0000 
     13 N         126.2900  151.9200  177.0700 N.am      2 ALA2        0.0000 
     14 O         128.4100  143.1800  179.2200 O.2       2 ALA2        0.0000 
     15 N         126.4900  153.5800  178.3800 N.am      2 ALA2        0.0000 
     16 N         125.0200  153.5500  178.6500 N.am      2 ALA2        0.0000 
     17 N         124.9500  155.0400  178.4900 N.am      2 ALA2        0.0000 
     18 N         123.5400  153.5100  178.9200 N.am      2 ALA2        0.0000 
     19 N         123.4800  155.0000  178.7600 N.am      2 ALA2        0.0000 
     20 N         123.8100  153.6800  180.3900 N.am      2 ALA2        0.0000 
     21 OD1       127.2900  144.0100  173.1900 O.co2     3 ASP3        0.0000 
     22 OD1       127.6200  142.6800  174.8200 O.co2     3 ASP3        0.0000 
     23 OD1       127.5500  144.1700  174.6600 O.co2     3 ASP3        0.0000 
     24 OD1       126.0800  144.1400  174.9300 O.co2     3 ASP3        0.0000 
     25 OD1       124.8800  150.4000  177.5000 O.co2     3 ASP3        0.0000 
     26 OD1       131.1700  147.7200  178.2000 O.co2     3 ASP3        0.0000 
     27 OD1       131.1100  149.2100  178.0500 O.co2     3 ASP3        0.0000 
     28 OD1       129.6300  149.1800  178.3200 O.co2     3 ASP3        0.0000 
     29 OD1       125.2100  149.0800  179.1200 O.co2     3 ASP3        0.0000 
     30 OD1       125.1400  150.5700  178.9700 O.co2     3 ASP3        0.0000 
     31 OD1       123.6700  150.5300  179.2400 O.co2     3 ASP3        0.0000 
     32 OD1       131.4300  147.8900  179.6700 O.co2     3 ASP3        0.0000 
     33 OD1       129.9000  149.3400  179.7800 O.co2     3 ASP3        0.0000 
     34 OD1       127.0700  146.3000  180.6400 O.co2     3 ASP3        0.0000 
     35 OD1       125.6000  146.2600  180.9100 O.co2     3 ASP3        0.0000 
     36 OD1       124.0600  147.7200  181.0200 O.co2     3 ASP3        0.0000 
     37 OD1       128.9400  143.5200  182.1500 O.co2     3 ASP3        0.0000 
     38 NZ        129.7600  146.2000  178.6300 N.4       4 LYS4        0.0000 
     39 NZ        128.2800  146.1600  178.9000 N.4       4 LYS4        0.0000 
     40 NZ        128.2200  147.6500  178.7400 N.4       4 LYS4        0.0000 
     41 NZ        128.1600  149.1400  178.5800 N.4       4 LYS4        0.0000 
     42 NZ        126.7400  147.6200  179.0100 N.4       4 LYS4        0.0000 
     43 NZ        126.6800  149.1100  178.8500 N.4       4 LYS4        0.0000 
     44 NZ        130.0900  144.8700  180.2600 N.4       4 LYS4        0.0000 
     45 NZ        129.9600  147.8500  179.9400 N.4       4 LYS4        0.0000 
     46 NZ        123.9900  149.2100  180.8600 N.4       4 LYS4        0.0000 
     47 NZ        123.9300  150.7000  180.7000 N.4       4 LYS4        0.0000 
     48 CA        127.8200  144.3400  176.1300 C.3       5 GLY6        0.0000 
     49 CA        127.7500  145.8300  175.9700 C.3       5 GLY6        0.0000 
     50 CA        126.4100  142.8100  176.5500 C.3       5 GLY6        0.0000 
     51 CA        126.3400  144.3100  176.3900 C.3       5 GLY6        0.0000 
     52 CA        126.2800  145.8000  176.2400 C.3       5 GLY6        0.0000 
     53 CA        126.2200  147.2900  176.0800 C.3       5 GLY6        0.0000 
     54 CA        129.4900  146.0300  177.1600 C.3       5 GLY6        0.0000 
     55 CA        129.3700  149.0100  176.8500 C.3       5 GLY6        0.0000 
     56 CA        128.0800  144.5100  177.5900 C.3       5 GLY6        0.0000 
     57 CA        127.9600  147.4900  177.2800 C.3       5 GLY6        0.0000 
     58 CA        126.5400  145.9600  177.7000 C.3       5 GLY6        0.0000 
     59 CA        126.4800  147.4500  177.5500 C.3       5 GLY6        0.0000 
     60 CA        126.4200  148.9400  177.3900 C.3       5 GLY6        0.0000 
     61 CA        124.8200  151.8900  177.3400 C.3       5 GLY6        0.0000 
     62 CA        123.2800  153.3500  177.4500 C.3       5 GLY6        0.0000 
     63 CA        129.8200  144.7100  178.7900 C.3       5 GLY6        0.0000 
     64 CA        128.3500  144.6700  179.0600 C.3       5 GLY6        0.0000 
     65 CA        126.8100  146.1300  179.1700 C.3       5 GLY6        0.0000 
     66 CA        126.6200  150.6000  178.7000 C.3       5 GLY6        0.0000 
     67 CA        126.5500  152.0900  178.5400 C.3       5 GLY6        0.0000 
     68 CA        125.3300  146.1000  179.4400 C.3       5 GLY6        0.0000 
     69 CA        125.0800  152.0600  178.8100 C.3       5 GLY6        0.0000 
     70 CA        130.1500  143.3800  180.4100 C.3       5 GLY6        0.0000 
     71 CA        130.0200  146.3600  180.1000 C.3       5 GLY6        0.0000 
     72 CA        128.6700  143.3500  180.6800 C.3       5 GLY6        0.0000 
     73 CA        128.6100  144.8400  180.5300 C.3       5 GLY6        0.0000 
     74 CA        128.5500  146.3300  180.3700 C.3       5 GLY6        0.0000 
     75 CA        127.1400  144.8100  180.8000 C.3       5 GLY6        0.0000 
     76 CA        123.8700  152.1900  180.5400 C.3       5 GLY6        0.0000 
     77 DU        128.0200  146.0000  177.4300 H         6 CUB7        0.0000 
     78 DU        129.6900  147.6900  178.4700 H         6 CUB7        0.0000 
     79 DU        123.6000  152.0200  179.0800 H         6 CUB7        0.0000 
@<TRIPOS>BOND
@<TRIPOS>SUBSTRUCTURE
     1 SER1        1 GROUP   
     2 ALA2        3 GROUP   
     3 ASP3       21 GROUP   
     4 LYS4       38 GROUP   
     5 GLY6       48 GROUP   
     6 CUB7       77 GROUP   
@<TRIPOS>SET

