#    Name: 5onv_3_ADP
#    Modification time : Fri May 22 19:16:50 2020

@<TRIPOS>MOLECULE
5onv_3_ADP
   27    29     1     0     1
SMALL
NO_CHARGES


@<TRIPOS>ATOM
      1 PB        161.8260  146.6680  146.7010 P.3       1 ADP401      0.0000 
      2 O1B       162.3510  146.4160  145.3030 O.co2     1 ADP401      0.0000 
      3 O2B       162.9030  147.2500  147.5760 O.co2     1 ADP401      0.0000 
      4 O3B       160.4180  147.2750  146.6480 O.co2     1 ADP401      0.0000 
      5 PA        162.8870  144.2460  147.2990 P.3       1 ADP401      0.0000 
      6 O1A       162.9320  143.7790  145.8540 O.co2     1 ADP401      0.0000 
      7 O2A       164.1400  144.8440  147.9170 O.co2     1 ADP401      0.0000 
      8 O3A       161.6770  145.2560  147.3640 O.3       1 ADP401      0.0000 
      9 O5'       162.3350  143.0380  148.1610 O.3       1 ADP401      0.0000 
     10 C5'       161.8370  143.1960  149.4780 C.3       1 ADP401      0.0000 
     11 C4'       160.4840  142.4790  149.6040 C.3       1 ADP401      0.0000 
     12 O4'       160.5720  141.1100  149.2220 O.3       1 ADP401      0.0000 
     13 C3'       159.9370  142.4990  151.0190 C.3       1 ADP401      0.0000 
     14 O3'       158.5090  142.6350  151.0740 O.3       1 ADP401      0.0000 
     15 C2'       160.4100  141.1840  151.5270 C.3       1 ADP401      0.0000 
     16 O2'       159.6180  140.6790  152.5760 O.3       1 ADP401      0.0000 
     17 C1'       160.4010  140.2670  150.3470 C.3       1 ADP401      0.0000 
     18 N9        161.5690  139.4250  150.4820 N.pl3     1 ADP401      0.0000 
     19 C8        162.8170  139.8810  150.4890 C.2       1 ADP401      0.0000 
     20 N7        163.7010  138.8780  150.6420 N.2       1 ADP401      0.0000 
     21 C5        162.9900  137.7600  150.7340 C.ar      1 ADP401      0.0000 
     22 C6        163.3180  136.3480  150.9130 C.ar      1 ADP401      0.0000 
     23 N6        164.5950  135.9280  151.0310 N.pl3     1 ADP401      0.0000 
     24 N1        162.2950  135.4850  150.9590 N.ar      1 ADP401      0.0000 
     25 C2        161.0180  135.8810  150.8460 C.ar      1 ADP401      0.0000 
     26 N3        160.6070  137.1630  150.6780 N.ar      1 ADP401      0.0000 
     27 C4        161.5650  138.1230  150.6180 C.ar      1 ADP401      0.0000 
@<TRIPOS>BOND
     1    1    2 ar   
     2    1    3 ar   
     3    1    4 ar   
     4    1    8 1    
     5    5    6 ar   
     6    5    7 ar   
     7    5    8 1    
     8    5    9 1    
     9    9   10 1    
    10   10   11 1    
    11   11   12 1    
    12   11   13 1    
    13   12   17 1    
    14   13   14 1    
    15   13   15 1    
    16   15   16 1    
    17   15   17 1    
    18   17   18 1    
    19   18   19 1    
    20   18   27 1    
    21   19   20 2    
    22   20   21 1    
    23   21   22 ar   
    24   21   27 ar   
    25   22   23 1    
    26   22   24 ar   
    27   24   25 ar   
    28   25   26 ar   
    29   26   27 ar   
@<TRIPOS>SUBSTRUCTURE
     1 ADP401      1 GROUP   
@<TRIPOS>SET
ATOM$ORANGE STATIC     ATOMS   COLORGROUP SYSTEM 
20 10 10 11 11 13 13 15 15 17 17 19 19 21 21 22 22 25 \
25 27 27 

