#    Name: 5onv_4_ADP
#    Modification time : Fri May 22 19:16:55 2020

@<TRIPOS>MOLECULE
5onv_4_ADP
   27    29     1     0     1
SMALL
NO_CHARGES


@<TRIPOS>ATOM
      1 PB        128.9990  142.3970  174.1570 P.3       1 ADP401      0.0000 
      2 O1B       128.4250  142.5220  172.7620 O.co2     1 ADP401      0.0000 
      3 O2B       128.0890  141.5810  175.0350 O.co2     1 ADP401      0.0000 
      4 O3B       130.5090  142.1330  174.1000 O.co2     1 ADP401      0.0000 
      5 PA        127.4080  144.5080  174.7630 P.3       1 ADP401      0.0000 
      6 O1A       127.2510  144.9520  173.3190 O.co2     1 ADP401      0.0000 
      7 O2A       126.3310  143.6350  175.3840 O.co2     1 ADP401      0.0000 
      8 O3A       128.8190  143.8050  174.8220 O.3       1 ADP401      0.0000 
      9 O5'       127.6690  145.8100  175.6240 O.3       1 ADP401      0.0000 
     10 C5'       128.1940  145.7710  176.9390 C.3       1 ADP401      0.0000 
     11 C4'       129.3450  146.7820  177.0610 C.3       1 ADP401      0.0000 
     12 O4'       128.9410  148.0930  176.6820 O.3       1 ADP401      0.0000 
     13 C3'       129.8880  146.8880  178.4750 C.3       1 ADP401      0.0000 
     14 O3'       131.3080  147.0860  178.5250 O.3       1 ADP401      0.0000 
     15 C2'       129.1240  148.0580  178.9860 C.3       1 ADP401      0.0000 
     16 O2'       129.7820  148.7320  180.0330 O.3       1 ADP401      0.0000 
     17 C1'       128.9170  148.9520  177.8080 C.3       1 ADP401      0.0000 
     18 N9        127.5860  149.5010  177.9480 N.pl3     1 ADP401      0.0000 
     19 C8        126.4770  148.7680  177.9580 C.2       1 ADP401      0.0000 
     20 N7        125.3860  149.5400  178.1160 N.2       1 ADP401      0.0000 
     21 C5        125.8190  150.7920  178.2070 C.ar      1 ADP401      0.0000 
     22 C6        125.1730  152.0890  178.3890 C.ar      1 ADP401      0.0000 
     23 N6        123.8340  152.2020  178.5120 N.pl3     1 ADP401      0.0000 
     24 N1        125.9690  153.1650  178.4330 N.ar      1 ADP401      0.0000 
     25 C2        127.3020  153.0760  178.3150 C.ar      1 ADP401      0.0000 
     26 N3        127.9990  151.9240  178.1430 N.ar      1 ADP401      0.0000 
     27 C4        127.2880  150.7680  178.0850 C.ar      1 ADP401      0.0000 
@<TRIPOS>BOND
     1    1    2 ar   
     2    1    3 ar   
     3    1    4 ar   
     4    1    8 1    
     5    5    6 ar   
     6    5    7 ar   
     7    5    8 1    
     8    5    9 1    
     9    9   10 1    
    10   10   11 1    
    11   11   12 1    
    12   11   13 1    
    13   12   17 1    
    14   13   14 1    
    15   13   15 1    
    16   15   16 1    
    17   15   17 1    
    18   17   18 1    
    19   18   19 1    
    20   18   27 1    
    21   19   20 2    
    22   20   21 1    
    23   21   22 ar   
    24   21   27 ar   
    25   22   23 1    
    26   22   24 ar   
    27   24   25 ar   
    28   25   26 ar   
    29   26   27 ar   
@<TRIPOS>SUBSTRUCTURE
     1 ADP401      1 GROUP   
@<TRIPOS>SET
ATOM$ORANGE STATIC     ATOMS   COLORGROUP SYSTEM 
20 10 10 11 11 13 13 15 15 17 17 19 19 21 21 22 22 25 \
25 27 27 

