#    Name: 5onv_1_ADP
#    Modification time : Fri May 22 19:16:38 2020

@<TRIPOS>MOLECULE
5onv_1_ADP
   27    29     1     0     1
SMALL
NO_CHARGES


@<TRIPOS>ATOM
      1 PB        160.0290  139.1550   91.9000 P.3       1 ADP401      0.0000 
      2 O1B       160.3830  138.6920   90.5020 O.co2     1 ADP401      0.0000 
      3 O2B       161.2530  139.1890   92.7740 O.co2     1 ADP401      0.0000 
      4 O3B       159.0450  140.3300   91.8470 O.co2     1 ADP401      0.0000 
      5 PA        159.8840  136.5150   92.5010 P.3       1 ADP401      0.0000 
      6 O1A       159.7140  136.0770   91.0560 O.co2     1 ADP401      0.0000 
      7 O2A       161.2720  136.4850   93.1180 O.co2     1 ADP401      0.0000 
      8 O3A       159.2590  137.9620   92.5650 O.3       1 ADP401      0.0000 
      9 O5'       158.8480  135.6860   93.3630 O.3       1 ADP401      0.0000 
     10 C5'       158.4750  136.0520   94.6800 C.3       1 ADP401      0.0000 
     11 C4'       156.9440  136.0220   94.8060 C.3       1 ADP401      0.0000 
     12 O4'       156.4060  134.7600   94.4260 O.3       1 ADP401      0.0000 
     13 C3'       156.4650  136.2870   96.2210 C.3       1 ADP401      0.0000 
     14 O3'       155.2520  137.0520   96.2770 O.3       1 ADP401      0.0000 
     15 C2'       156.2960  134.9000   96.7310 C.3       1 ADP401      0.0000 
     16 O2'       155.3610  134.8070   97.7800 O.3       1 ADP401      0.0000 
     17 C1'       155.8730  134.0850   95.5520 C.3       1 ADP401      0.0000 
     18 N9        156.5370  132.8070   95.6870 N.pl3     1 ADP401      0.0000 
     19 C8        157.8570  132.6520   95.6940 C.2       1 ADP401      0.0000 
     20 N7        158.1940  131.3580   95.8480 N.2       1 ADP401      0.0000 
     21 C5        157.0560  130.6800   95.9400 C.ar      1 ADP401      0.0000 
     22 C6        156.7130  129.2720   96.1210 C.ar      1 ADP401      0.0000 
     23 N6        157.6640  128.3220   96.2390 N.pl3     1 ADP401      0.0000 
     24 N1        155.4110  128.9630   96.1680 N.ar      1 ADP401      0.0000 
     25 C2        154.4480  129.8920   96.0540 C.ar      1 ADP401      0.0000 
     26 N3        154.6590  131.2210   95.8850 N.ar      1 ADP401      0.0000 
     27 C4        155.9470  131.6460   95.8240 C.ar      1 ADP401      0.0000 
@<TRIPOS>BOND
     1    1    2 ar   
     2    1    3 ar   
     3    1    4 ar   
     4    1    8 1    
     5    5    6 ar   
     6    5    7 ar   
     7    5    8 1    
     8    5    9 1    
     9    9   10 1    
    10   10   11 1    
    11   11   12 1    
    12   11   13 1    
    13   12   17 1    
    14   13   14 1    
    15   13   15 1    
    16   15   16 1    
    17   15   17 1    
    18   17   18 1    
    19   18   19 1    
    20   18   27 1    
    21   19   20 2    
    22   20   21 1    
    23   21   22 ar   
    24   21   27 ar   
    25   22   23 1    
    26   22   24 ar   
    27   24   25 ar   
    28   25   26 ar   
    29   26   27 ar   
@<TRIPOS>SUBSTRUCTURE
     1 ADP401      1 GROUP   
@<TRIPOS>SET
ATOM$ORANGE STATIC     ATOMS   COLORGROUP SYSTEM 
20 10 10 11 11 13 13 15 15 17 17 19 19 21 21 22 22 25 \
25 27 27 

