#    Name: 5onv_2_ADP
#    Modification time : Fri May 22 19:16:44 2020

@<TRIPOS>MOLECULE
5onv_2_ADP
   27    29     1     0     1
SMALL
NO_CHARGES


@<TRIPOS>ATOM
      1 PB        128.8090  150.1530  119.3610 P.3       1 ADP401      0.0000 
      2 O1B       128.3520  150.5220  117.9650 O.co2     1 ADP401      0.0000 
      3 O2B       127.6290  149.8350  120.2400 O.co2     1 ADP401      0.0000 
      4 O3B       130.0380  149.2370  119.3030 O.co2     1 ADP401      0.0000 
      5 PA        128.3400  152.7540  119.9650 P.3       1 ADP401      0.0000 
      6 O1A       128.3990  153.2200  118.5210 O.co2     1 ADP401      0.0000 
      7 O2A       126.9850  152.4610  120.5870 O.co2     1 ADP401      0.0000 
      8 O3A       129.2830  151.4910  120.0250 O.3       1 ADP401      0.0000 
      9 O5'       129.1590  153.8000  120.8250 O.3       1 ADP401      0.0000 
     10 C5'       129.6120  153.5300  122.1400 C.3       1 ADP401      0.0000 
     11 C4'       131.0950  153.9130  122.2610 C.3       1 ADP401      0.0000 
     12 O4'       131.3240  155.2660  121.8810 O.3       1 ADP401      0.0000 
     13 C3'       131.6270  153.7650  123.6740 C.3       1 ADP401      0.0000 
     14 O3'       132.9840  153.3020  123.7250 O.3       1 ADP401      0.0000 
     15 C2'       131.4730  155.1530  124.1850 C.3       1 ADP401      0.0000 
     16 O2'       132.3640  155.4600  125.2310 O.3       1 ADP401      0.0000 
     17 C1'       131.6900  156.0450  123.0060 C.3       1 ADP401      0.0000 
     18 N9        130.7490  157.1340  123.1450 N.pl3     1 ADP401      0.0000 
     19 C8        129.4300  156.9790  123.1570 C.2       1 ADP401      0.0000 
     20 N7        128.8030  158.1600  123.3140 N.2       1 ADP401      0.0000 
     21 C5        129.7530  159.0830  123.4030 C.ar      1 ADP401      0.0000 
     22 C6        129.7610  160.5320  123.5840 C.ar      1 ADP401      0.0000 
     23 N6        128.6170  161.2360  123.7070 N.pl3     1 ADP401      0.0000 
     24 N1        130.9570  161.1340  123.6270 N.ar      1 ADP401      0.0000 
     25 C2        132.1070  160.4540  123.5090 C.ar      1 ADP401      0.0000 
     26 N3        132.2100  159.1120  123.3390 N.ar      1 ADP401      0.0000 
     27 C4        131.0550  158.4000  123.2820 C.ar      1 ADP401      0.0000 
@<TRIPOS>BOND
     1    1    2 ar   
     2    1    3 ar   
     3    1    4 ar   
     4    1    8 1    
     5    5    6 ar   
     6    5    7 ar   
     7    5    8 1    
     8    5    9 1    
     9    9   10 1    
    10   10   11 1    
    11   11   12 1    
    12   11   13 1    
    13   12   17 1    
    14   13   14 1    
    15   13   15 1    
    16   15   16 1    
    17   15   17 1    
    18   17   18 1    
    19   18   19 1    
    20   18   27 1    
    21   19   20 2    
    22   20   21 1    
    23   21   22 ar   
    24   21   27 ar   
    25   22   23 1    
    26   22   24 ar   
    27   24   25 ar   
    28   25   26 ar   
    29   26   27 ar   
@<TRIPOS>SUBSTRUCTURE
     1 ADP401      1 GROUP   
@<TRIPOS>SET
ATOM$ORANGE STATIC     ATOMS   COLORGROUP SYSTEM 
20 10 10 11 11 13 13 15 15 17 17 19 19 21 21 22 22 25 \
25 27 27 

