#    Name: 5onv_3_ADP_CAVITY_N1_12
#    Modification time : Fri May 22 19:16:51 2020

@<TRIPOS>MOLECULE
5onv_3_ADP_CAVITY_N1_12
   70     0     5     0     0
SMALL
NO_CHARGES


@<TRIPOS>ATOM
      1 N         165.1000  144.2800  146.4100 N.am      1 ALA2        0.0000 
      2 O         163.6800  142.7600  146.8400 O.2       1 ALA2        0.0000 
      3 O         162.2100  142.7200  147.1100 O.2       1 ALA2        0.0000 
      4 O         162.1500  144.2100  146.9500 O.2       1 ALA2        0.0000 
      5 O         162.0800  145.7000  146.7900 O.2       1 ALA2        0.0000 
      6 O         162.4100  144.3800  148.4200 O.2       1 ALA2        0.0000 
      7 N         162.3500  145.8700  148.2600 N.am      1 ALA2        0.0000 
      8 O         161.0000  142.8600  148.8500 O.2       1 ALA2        0.0000 
      9 O         160.9300  144.3500  148.6900 O.2       1 ALA2        0.0000 
     10 O         159.5200  142.8200  149.1200 O.2       1 ALA2        0.0000 
     11 N         162.9300  138.5900  150.5200 N.am      1 ALA2        0.0000 
     12 O         162.6100  146.0400  149.7300 O.2       1 ALA2        0.0000 
     13 OD1       163.6200  144.2500  146.6800 O.co2     2 ASP3        0.0000 
     14 OD1       163.5600  145.7400  146.5200 O.co2     2 ASP3        0.0000 
     15 OD1       165.3600  144.4500  147.8800 O.co2     2 ASP3        0.0000 
     16 OD1       163.8900  144.4100  148.1500 O.co2     2 ASP3        0.0000 
     17 OD1       164.4700  137.1300  150.4100 O.co2     2 ASP3        0.0000 
     18 OD1       162.8600  140.0800  150.3600 O.co2     2 ASP3        0.0000 
     19 OD1       159.9100  140.0100  150.9000 O.co2     2 ASP3        0.0000 
     20 OD1       159.8500  141.5000  150.7400 O.co2     2 ASP3        0.0000 
     21 OD1       158.3800  141.4600  151.0100 O.co2     2 ASP3        0.0000 
     22 OD1       166.2100  137.3300  151.6000 O.co2     2 ASP3        0.0000 
     23 OD1       164.7300  137.3000  151.8700 O.co2     2 ASP3        0.0000 
     24 OD1       158.6400  141.6300  152.4800 O.co2     2 ASP3        0.0000 
     25 OD1       164.8700  140.4400  153.0200 O.co2     2 ASP3        0.0000 
     26 OD1       161.7900  143.3600  153.2500 O.co2     2 ASP3        0.0000 
     27 NZ        161.3900  140.0400  150.6300 N.4       3 LYS4        0.0000 
     28 NZ        158.3100  142.9500  150.8500 N.4       3 LYS4        0.0000 
     29 NZ        163.1900  138.7500  151.9900 N.4       3 LYS4        0.0000 
     30 NZ        163.1300  140.2400  151.8300 N.4       3 LYS4        0.0000 
     31 NZ        163.0700  141.7300  151.6700 N.4       3 LYS4        0.0000 
     32 NZ        161.5900  141.7000  151.9400 N.4       3 LYS4        0.0000 
     33 NZ        161.5300  143.1900  151.7800 N.4       3 LYS4        0.0000 
     34 NZ        160.1100  141.6600  152.2100 N.4       3 LYS4        0.0000 
     35 NZ        160.0500  143.1600  152.0500 N.4       3 LYS4        0.0000 
     36 NZ        158.5800  143.1200  152.3200 N.4       3 LYS4        0.0000 
     37 NZ        164.9900  137.4600  153.3400 N.4       3 LYS4        0.0000 
     38 NZ        164.9300  138.9500  153.1800 N.4       3 LYS4        0.0000 
     39 NZ        163.3300  141.9000  153.1400 N.4       3 LYS4        0.0000 
     40 CA        165.4200  142.9600  148.0400 C.3       4 GLY6        0.0000 
     41 CA        164.0100  141.4300  148.4700 C.3       4 GLY6        0.0000 
     42 CA        163.9500  142.9200  148.3100 C.3       4 GLY6        0.0000 
     43 CA        162.5400  141.4000  148.7400 C.3       4 GLY6        0.0000 
     44 CA        162.4700  142.8900  148.5800 C.3       4 GLY6        0.0000 
     45 CA        161.1200  139.8700  149.1600 C.3       4 GLY6        0.0000 
     46 CA        161.0600  141.3700  149.0000 C.3       4 GLY6        0.0000 
     47 CA        159.5900  141.3300  149.2700 C.3       4 GLY6        0.0000 
     48 CA        158.1100  141.3000  149.5400 C.3       4 GLY6        0.0000 
     49 CA        164.5300  135.6400  150.5600 C.3       4 GLY6        0.0000 
     50 CA        164.2100  143.0900  149.7700 C.3       4 GLY6        0.0000 
     51 CA        164.1500  144.5800  149.6200 C.3       4 GLY6        0.0000 
     52 CA        162.9900  137.1000  150.6800 C.3       4 GLY6        0.0000 
     53 CA        162.8000  141.5700  150.2000 C.3       4 GLY6        0.0000 
     54 CA        162.7400  143.0600  150.0400 C.3       4 GLY6        0.0000 
     55 CA        162.6700  144.5500  149.8900 C.3       4 GLY6        0.0000 
     56 CA        161.4500  138.5500  150.7900 C.3       4 GLY6        0.0000 
     57 CA        161.2600  143.0200  150.3100 C.3       4 GLY6        0.0000 
     58 CA        161.2000  144.5100  150.1600 C.3       4 GLY6        0.0000 
     59 CA        159.7900  142.9900  150.5800 C.3       4 GLY6        0.0000 
     60 CA        163.2600  137.2600  152.1400 C.3       4 GLY6        0.0000 
     61 CA        163.0000  143.2200  151.5100 C.3       4 GLY6        0.0000 
     62 CA        162.9400  144.7100  151.3500 C.3       4 GLY6        0.0000 
     63 CA        161.4600  144.6800  151.6200 C.3       4 GLY6        0.0000 
     64 CA        165.0600  135.9700  153.5000 C.3       4 GLY6        0.0000 
     65 CA        164.8000  141.9300  152.8700 C.3       4 GLY6        0.0000 
     66 CA        163.2700  143.3900  152.9800 C.3       4 GLY6        0.0000 
     67 CA        161.7300  144.8500  153.0900 C.3       4 GLY6        0.0000 
     68 DU        161.3300  141.5300  150.4700 H         5 CUB7        0.0000 
     69 DU        166.2700  135.8400  151.7600 H         5 CUB7        0.0000 
     70 DU        164.7900  135.8100  152.0300 H         5 CUB7        0.0000 
@<TRIPOS>BOND
@<TRIPOS>SUBSTRUCTURE
     1 ALA2        1 GROUP   
     2 ASP3       13 GROUP   
     3 LYS4       27 GROUP   
     4 GLY6       40 GROUP   
     5 CUB7       68 GROUP   
@<TRIPOS>SET

