#    Name: 5onv_5_ADP
#    Modification time : Fri May 22 19:17:00 2020

@<TRIPOS>MOLECULE
5onv_5_ADP
   27    29     1     0     1
SMALL
NO_CHARGES


@<TRIPOS>ATOM
      1 PB        160.0450  154.1390  201.5080 P.3       1 ADP401      0.0000 
      2 O1B       160.6270  154.1510  200.1100 O.co2     1 ADP401      0.0000 
      3 O2B       160.7440  155.1430  202.3840 O.co2     1 ADP401      0.0000 
      4 O3B       158.5140  154.0460  201.4560 O.co2     1 ADP401      0.0000 
      5 PA        162.0830  152.4540  202.1050 P.3       1 ADP401      0.0000 
      6 O1A       162.3330  152.0590  200.6600 O.co2     1 ADP401      0.0000 
      7 O2A       162.9320  153.5520  202.7240 O.co2     1 ADP401      0.0000 
      8 O3A       160.5480  152.8100  202.1700 O.3       1 ADP401      0.0000 
      9 O5'       162.1340  151.1260  202.9650 O.3       1 ADP401      0.0000 
     10 C5'       161.6190  151.0410  204.2820 C.3       1 ADP401      0.0000 
     11 C4'       160.7340  149.7920  204.4070 C.3       1 ADP401      0.0000 
     12 O4'       161.4290  148.6100  204.0250 O.3       1 ADP401      0.0000 
     13 C3'       160.2360  149.5620  205.8220 C.3       1 ADP401      0.0000 
     14 O3'       158.9000  149.0400  205.8770 O.3       1 ADP401      0.0000 
     15 C2'       161.2510  148.6010  206.3290 C.3       1 ADP401      0.0000 
     16 O2'       160.7720  147.7920  207.3780 O.3       1 ADP401      0.0000 
     17 C1'       161.6560  147.7790  205.1490 C.3       1 ADP401      0.0000 
     18 N9        163.0780  147.5530  205.2830 N.pl3     1 ADP401      0.0000 
     19 C8        163.9870  148.5230  205.2910 C.2       1 ADP401      0.0000 
     20 N7        165.2280  148.0250  205.4450 N.2       1 ADP401      0.0000 
     21 C5        165.0970  146.7070  205.5350 C.ar      1 ADP401      0.0000 
     22 C6        166.0260  145.5940  205.7130 C.ar      1 ADP401      0.0000 
     23 N6        167.3550  145.7950  205.8310 N.pl3     1 ADP401      0.0000 
     24 N1        165.5010  144.3630  205.7580 N.ar      1 ADP401      0.0000 
     25 C2        164.1830  144.1410  205.6450 C.ar      1 ADP401      0.0000 
     26 N3        163.2380  145.1000  205.4770 N.ar      1 ADP401      0.0000 
     27 C4        163.6620  146.3890  205.4180 C.ar      1 ADP401      0.0000 
@<TRIPOS>BOND
     1    1    2 ar   
     2    1    3 ar   
     3    1    4 ar   
     4    1    8 1    
     5    5    6 ar   
     6    5    7 ar   
     7    5    8 1    
     8    5    9 1    
     9    9   10 1    
    10   10   11 1    
    11   11   12 1    
    12   11   13 1    
    13   12   17 1    
    14   13   14 1    
    15   13   15 1    
    16   15   16 1    
    17   15   17 1    
    18   17   18 1    
    19   18   19 1    
    20   18   27 1    
    21   19   20 2    
    22   20   21 1    
    23   21   22 ar   
    24   21   27 ar   
    25   22   23 1    
    26   22   24 ar   
    27   24   25 ar   
    28   25   26 ar   
    29   26   27 ar   
@<TRIPOS>SUBSTRUCTURE
     1 ADP401      1 GROUP   
@<TRIPOS>SET
ATOM$ORANGE STATIC     ATOMS   COLORGROUP SYSTEM 
20 10 10 11 11 13 13 15 15 17 17 19 19 21 21 22 22 25 \
25 27 27 

