#    Name: 6ioi_1_COA_CAVITY_N1_4
#    Modification time : Fri May 22 19:27:22 2020

@<TRIPOS>MOLECULE
6ioi_1_COA_CAVITY_N1_4
   56     0     6     0     0
SMALL
NO_CHARGES


@<TRIPOS>ATOM
      1 OG         56.2300   60.0100   34.6300 O.3       1 SER1        0.0000 
      2 N          58.6900   62.6800   31.2300 N.am      2 ALA2        0.0000 
      3 N          59.2700   64.5900   30.5100 N.am      2 ALA2        0.0000 
      4 N          59.2700   63.0100   32.5700 N.am      2 ALA2        0.0000 
      5 N          59.9100   61.6500   32.6200 N.am      2 ALA2        0.0000 
      6 N          60.5000   63.5600   31.9000 N.am      2 ALA2        0.0000 
      7 O          61.0800   65.4700   31.1800 O.2       2 ALA2        0.0000 
      8 N          55.5900   59.7800   36.6400 N.am      2 ALA2        0.0000 
      9 N          55.5000   66.3100   35.0900 N.am      2 ALA2        0.0000 
     10 N          56.0800   66.6400   36.4300 N.am      2 ALA2        0.0000 
     11 OD1        57.4600   62.1300   31.9000 O.co2     3 ASP3        0.0000 
     12 OD1        57.4600   60.5500   33.9600 O.co2     3 ASP3        0.0000 
     13 OD1        58.6800   61.1000   33.2900 O.co2     3 ASP3        0.0000 
     14 OD1        56.8200   60.3300   35.9700 O.co2     3 ASP3        0.0000 
     15 OD1        58.0400   60.8800   35.3000 O.co2     3 ASP3        0.0000 
     16 OD1        59.8600   63.3400   33.9100 O.co2     3 ASP3        0.0000 
     17 OD1        60.4400   63.6600   35.2500 O.co2     3 ASP3        0.0000 
     18 NZ         55.6000   64.5200   30.4500 N.4       4 LYS4        0.0000 
     19 NZ         56.2400   63.1700   30.5000 N.4       4 LYS4        0.0000 
     20 NZ         56.8300   65.0700   29.7800 N.4       4 LYS4        0.0000 
     21 NZ         57.4600   63.7100   29.8300 N.4       4 LYS4        0.0000 
     22 NZ         57.4100   65.4000   31.1200 N.4       4 LYS4        0.0000 
     23 NZ         58.0500   64.0400   31.1700 N.4       4 LYS4        0.0000 
     24 CA         56.1900   66.4300   29.7300 C.3       5 GLY6        0.0000 
     25 CA         56.2400   61.5900   32.5600 C.3       5 GLY6        0.0000 
     26 CA         55.5500   66.2100   31.7400 C.3       5 GLY6        0.0000 
     27 CA         56.1900   64.8500   31.7900 C.3       5 GLY6        0.0000 
     28 CA         56.8200   63.4900   31.8400 C.3       5 GLY6        0.0000 
     29 CA         56.7700   66.7600   31.0700 C.3       5 GLY6        0.0000 
     30 CA         58.0000   67.3000   30.4000 C.3       5 GLY6        0.0000 
     31 CA         54.9600   62.7200   34.5200 C.3       5 GLY6        0.0000 
     32 CA         55.6000   61.3600   34.5800 C.3       5 GLY6        0.0000 
     33 CA         54.9100   65.9800   33.7500 C.3       5 GLY6        0.0000 
     34 CA         55.5500   64.6300   33.8000 C.3       5 GLY6        0.0000 
     35 CA         56.1800   63.2700   33.8500 C.3       5 GLY6        0.0000 
     36 CA         55.5000   67.8900   33.0300 C.3       5 GLY6        0.0000 
     37 CA         56.1400   66.5300   33.0800 C.3       5 GLY6        0.0000 
     38 CA         54.9600   61.1400   36.5900 C.3       5 GLY6        0.0000 
     39 CA         55.5500   63.0500   35.8600 C.3       5 GLY6        0.0000 
     40 DU         58.6400   65.9500   30.4500 H         6 CUB7        0.0000 
     41 DU         56.8200   61.9100   33.9100 H         6 CUB7        0.0000 
     42 DU         56.7700   65.1800   33.1300 H         6 CUB7        0.0000 
     43 DU         57.4100   63.8200   33.1900 H         6 CUB7        0.0000 
     44 DU         58.0500   62.4600   33.2400 H         6 CUB7        0.0000 
     45 DU         58.6300   64.3700   32.5200 H         6 CUB7        0.0000 
     46 DU         56.1800   61.6900   35.9200 H         6 CUB7        0.0000 
     47 DU         56.1300   64.9500   35.1400 H         6 CUB7        0.0000 
     48 DU         56.7700   63.6000   35.2000 H         6 CUB7        0.0000 
     49 DU         57.4100   62.2400   35.2500 H         6 CUB7        0.0000 
     50 DU         56.7200   66.8600   34.4200 H         6 CUB7        0.0000 
     51 DU         58.6300   62.7900   34.5800 H         6 CUB7        0.0000 
     52 DU         59.2200   64.6900   33.8600 H         6 CUB7        0.0000 
     53 DU         56.7200   65.2800   36.4900 H         6 CUB7        0.0000 
     54 DU         57.3600   63.9200   36.5400 H         6 CUB7        0.0000 
     55 DU         58.5800   64.4700   35.8700 H         6 CUB7        0.0000 
     56 DU         59.2200   63.1100   35.9200 H         6 CUB7        0.0000 
@<TRIPOS>BOND
@<TRIPOS>SUBSTRUCTURE
     1 SER1        1 GROUP   
     2 ALA2        2 GROUP   
     3 ASP3       11 GROUP   
     4 LYS4       18 GROUP   
     5 GLY6       24 GROUP   
     6 CUB7       40 GROUP   
@<TRIPOS>SET

