#    Name: 6ioi_1_COA_CAVITY_N1_6
#    Modification time : Fri May 22 19:27:22 2020

@<TRIPOS>MOLECULE
6ioi_1_COA_CAVITY_N1_6
   73     0     6     0     0
SMALL
NO_CHARGES


@<TRIPOS>ATOM
      1 OG         56.2300   60.0100   34.6300 O.3       1 SER1        0.0000 
      2 OG         57.3500   62.3400   38.6000 O.3       1 SER1        0.0000 
      3 OG         57.9900   60.9900   38.6500 O.3       1 SER1        0.0000 
      4 OG         58.5800   62.8900   37.9300 O.3       1 SER1        0.0000 
      5 OG         59.2200   61.5300   37.9800 O.3       1 SER1        0.0000 
      6 N          58.6900   62.6800   31.2300 N.am      2 ALA2        0.0000 
      7 N          59.2700   64.5900   30.5100 N.am      2 ALA2        0.0000 
      8 N          59.2700   63.0100   32.5700 N.am      2 ALA2        0.0000 
      9 N          59.9100   61.6500   32.6200 N.am      2 ALA2        0.0000 
     10 N          60.5000   63.5600   31.9000 N.am      2 ALA2        0.0000 
     11 O          61.0800   65.4700   31.1800 O.2       2 ALA2        0.0000 
     12 N          55.5900   59.7800   36.6400 N.am      2 ALA2        0.0000 
     13 N          54.9100   64.4000   35.8100 N.am      2 ALA2        0.0000 
     14 N          55.5000   66.3100   35.0900 N.am      2 ALA2        0.0000 
     15 N          56.1800   60.1100   37.9800 N.am      2 ALA2        0.0000 
     16 N          56.0800   66.6400   36.4300 N.am      2 ALA2        0.0000 
     17 N          57.9400   64.2500   37.8800 N.am      2 ALA2        0.0000 
     18 OD1        57.4600   62.1300   31.9000 O.co2     3 ASP3        0.0000 
     19 OD1        57.4600   60.5500   33.9600 O.co2     3 ASP3        0.0000 
     20 OD1        58.6800   61.1000   33.2900 O.co2     3 ASP3        0.0000 
     21 OD1        56.8200   60.3300   35.9700 O.co2     3 ASP3        0.0000 
     22 OD1        58.0400   60.8800   35.3000 O.co2     3 ASP3        0.0000 
     23 OD1        59.8600   63.3400   33.9100 O.co2     3 ASP3        0.0000 
     24 OD1        57.4100   60.6600   37.3100 O.co2     3 ASP3        0.0000 
     25 OD1        58.6300   61.2100   36.6400 O.co2     3 ASP3        0.0000 
     26 OD1        60.4400   63.6600   35.2500 O.co2     3 ASP3        0.0000 
     27 OD1        61.0300   63.9900   36.5900 O.co2     3 ASP3        0.0000 
     28 NZ         55.6000   64.5200   30.4500 N.4       4 LYS4        0.0000 
     29 NZ         56.2400   63.1700   30.5000 N.4       4 LYS4        0.0000 
     30 NZ         56.8300   65.0700   29.7800 N.4       4 LYS4        0.0000 
     31 NZ         57.4600   63.7100   29.8300 N.4       4 LYS4        0.0000 
     32 NZ         57.4100   65.4000   31.1200 N.4       4 LYS4        0.0000 
     33 NZ         58.0500   64.0400   31.1700 N.4       4 LYS4        0.0000 
     34 CA         56.1900   66.4300   29.7300 C.3       5 GLY6        0.0000 
     35 CA         56.2400   61.5900   32.5600 C.3       5 GLY6        0.0000 
     36 CA         55.5500   66.2100   31.7400 C.3       5 GLY6        0.0000 
     37 CA         56.1900   64.8500   31.7900 C.3       5 GLY6        0.0000 
     38 CA         56.8200   63.4900   31.8400 C.3       5 GLY6        0.0000 
     39 CA         56.7700   66.7600   31.0700 C.3       5 GLY6        0.0000 
     40 CA         58.0000   67.3000   30.4000 C.3       5 GLY6        0.0000 
     41 CA         54.9600   62.7200   34.5200 C.3       5 GLY6        0.0000 
     42 CA         55.6000   61.3600   34.5800 C.3       5 GLY6        0.0000 
     43 CA         54.9100   65.9800   33.7500 C.3       5 GLY6        0.0000 
     44 CA         55.5500   64.6300   33.8000 C.3       5 GLY6        0.0000 
     45 CA         56.1800   63.2700   33.8500 C.3       5 GLY6        0.0000 
     46 CA         55.5000   67.8900   33.0300 C.3       5 GLY6        0.0000 
     47 CA         56.1400   66.5300   33.0800 C.3       5 GLY6        0.0000 
     48 CA         54.9600   61.1400   36.5900 C.3       5 GLY6        0.0000 
     49 CA         55.5500   63.0500   35.8600 C.3       5 GLY6        0.0000 
     50 CA         55.5400   61.4700   37.9300 C.3       5 GLY6        0.0000 
     51 CA         55.4900   64.7300   37.1500 C.3       5 GLY6        0.0000 
     52 CA         56.1300   63.3700   37.2100 C.3       5 GLY6        0.0000 
     53 CA         56.7700   62.0200   37.2600 C.3       5 GLY6        0.0000 
     54 CA         59.8000   63.4400   37.2600 C.3       5 GLY6        0.0000 
     55 CA         60.4400   62.0800   37.3100 C.3       5 GLY6        0.0000 
     56 DU         58.6400   65.9500   30.4500 H         6 CUB7        0.0000 
     57 DU         56.8200   61.9100   33.9100 H         6 CUB7        0.0000 
     58 DU         56.7700   65.1800   33.1300 H         6 CUB7        0.0000 
     59 DU         57.4100   63.8200   33.1900 H         6 CUB7        0.0000 
     60 DU         58.0500   62.4600   33.2400 H         6 CUB7        0.0000 
     61 DU         58.6300   64.3700   32.5200 H         6 CUB7        0.0000 
     62 DU         56.1800   61.6900   35.9200 H         6 CUB7        0.0000 
     63 DU         56.1300   64.9500   35.1400 H         6 CUB7        0.0000 
     64 DU         56.7700   63.6000   35.2000 H         6 CUB7        0.0000 
     65 DU         57.4100   62.2400   35.2500 H         6 CUB7        0.0000 
     66 DU         56.7200   66.8600   34.4200 H         6 CUB7        0.0000 
     67 DU         58.6300   62.7900   34.5800 H         6 CUB7        0.0000 
     68 DU         59.2200   64.6900   33.8600 H         6 CUB7        0.0000 
     69 DU         56.7200   65.2800   36.4900 H         6 CUB7        0.0000 
     70 DU         57.3600   63.9200   36.5400 H         6 CUB7        0.0000 
     71 DU         57.9900   62.5700   36.5900 H         6 CUB7        0.0000 
     72 DU         58.5800   64.4700   35.8700 H         6 CUB7        0.0000 
     73 DU         59.2200   63.1100   35.9200 H         6 CUB7        0.0000 
@<TRIPOS>BOND
@<TRIPOS>SUBSTRUCTURE
     1 SER1        1 GROUP   
     2 ALA2        6 GROUP   
     3 ASP3       18 GROUP   
     4 LYS4       28 GROUP   
     5 GLY6       34 GROUP   
     6 CUB7       56 GROUP   
@<TRIPOS>SET

