#    Name: 6ioi_2_COA
#    Modification time : Fri May 22 19:27:25 2020

@<TRIPOS>MOLECULE
6ioi_2_COA
   48    50     1     0     1
SMALL
NO_CHARGES


@<TRIPOS>ATOM
      1 N1A        48.3220   38.1020   12.1080 N.ar      1 COA401      0.0000 
      2 C2A        49.3320   37.7790   11.2790 C.ar      1 COA401      0.0000 
      3 N3A        49.5170   38.1270   10.0030 N.ar      1 COA401      0.0000 
      4 C4A        48.5150   38.9180    9.5720 C.ar      1 COA401      0.0000 
      5 C5A        47.4160   39.3370   10.3070 C.ar      1 COA401      0.0000 
      6 C6A        47.3240   38.8950   11.6430 C.ar      1 COA401      0.0000 
      7 N6A        46.3400   39.2560   12.4740 N.pl3     1 COA401      0.0000 
      8 N7A        46.5930   40.1510    9.5290 N.2       1 COA401      0.0000 
      9 C8A        47.1920   40.2120    8.3550 C.2       1 COA401      0.0000 
     10 N9A        48.3810   39.4860    8.3250 N.pl3     1 COA401      0.0000 
     11 C1B        49.3300   39.3440    7.1880 C.3       1 COA401      0.0000 
     12 C2B        48.7190   38.7290    5.9310 C.3       1 COA401      0.0000 
     13 O2B        48.7190   37.3230    6.0640 O.3       1 COA401      0.0000 
     14 C3B        49.6790   39.2510    4.8560 C.3       1 COA401      0.0000 
     15 O3B        50.8170   38.3860    4.8610 O.3       1 COA401      0.0000 
     16 P3B        51.6600   38.3010    3.4830 P.3       1 COA401      0.0000 
     17 O7A        52.1120   39.7220    3.1600 O.co2     1 COA401      0.0000 
     18 O8A        52.8270   37.3770    3.7590 O.co2     1 COA401      0.0000 
     19 O9A        50.7030   37.7290    2.4520 O.co2     1 COA401      0.0000 
     20 C4B        50.0440   40.6490    5.3580 C.3       1 COA401      0.0000 
     21 O4B        49.7790   40.6240    6.7900 O.3       1 COA401      0.0000 
     22 C5B        49.3010   41.8110    4.7450 C.3       1 COA401      0.0000 
     23 O5B        50.0190   43.0280    5.0910 O.3       1 COA401      0.0000 
     24 P1A        49.2770   44.4510    4.9410 P.3       1 COA401      0.0000 
     25 O1A        50.0970   45.5590    5.5620 O.co2     1 COA401      0.0000 
     26 O2A        47.8250   44.2550    5.2610 O.co2     1 COA401      0.0000 
     27 O3A        49.4190   44.6500    3.3530 O.3       1 COA401      0.0000 
     28 P2A        49.4260   46.0180    2.4970 P.3       1 COA401      0.0000 
     29 O4A        49.1910   45.6020    1.0680 O.co2     1 COA401      0.0000 
     30 O5A        48.5320   47.0590    3.1360 O.co2     1 COA401      0.0000 
     31 O6A        50.9710   46.4490    2.6620 O.3       1 COA401      0.0000 
     32 CBP        53.2280   46.6560    1.8180 C.3       1 COA401      0.0000 
     33 CCP        51.8070   46.2470    1.4810 C.3       1 COA401      0.0000 
     34 CDP        54.0810   46.6010    0.5390 C.3       1 COA401      0.0000 
     35 CEP        53.2120   48.0820    2.3780 C.3       1 COA401      0.0000 
     36 CAP        53.7010   45.6470    2.8720 C.3       1 COA401      0.0000 
     37 OAP        53.9980   44.4220    2.2030 O.3       1 COA401      0.0000 
     38 C9P        54.8980   46.1240    3.6770 C.2       1 COA401      0.0000 
     39 O9P        54.7200   46.7890    4.6990 O.2       1 COA401      0.0000 
     40 N8P        56.0930   45.7500    3.2350 N.am      1 COA401      0.0000 
     41 C7P        56.9260   46.6220    2.4210 C.3       1 COA401      0.0000 
     42 C6P        58.1200   47.2000    3.1660 C.3       1 COA401      0.0000 
     43 C5P        57.8930   48.4180    4.0660 C.2       1 COA401      0.0000 
     44 O5P        56.7570   48.8310    4.4990 O.2       1 COA401      0.0000 
     45 N4P        59.0670   49.0150    4.3740 N.am      1 COA401      0.0000 
     46 C3P        60.3400   48.8040    3.6900 C.3       1 COA401      0.0000 
     47 C2P        60.8690   50.0340    3.1360 C.3       1 COA401      0.0000 
     48 S1P        59.7320   51.3170    3.7920 S.3       1 COA401      0.0000 
@<TRIPOS>BOND
     1    1    2 ar   
     2    1    6 ar   
     3    2    3 ar   
     4    3    4 ar   
     5    4    5 ar   
     6    4   10 1    
     7    5    6 ar   
     8    5    8 1    
     9    6    7 1    
    10    8    9 2    
    11    9   10 1    
    12   10   11 1    
    13   11   12 1    
    14   11   21 1    
    15   12   13 1    
    16   12   14 1    
    17   14   15 1    
    18   14   20 1    
    19   15   16 1    
    20   16   17 ar   
    21   16   18 ar   
    22   16   19 ar   
    23   20   21 1    
    24   20   22 1    
    25   22   23 1    
    26   23   24 1    
    27   24   25 ar   
    28   24   26 ar   
    29   24   27 1    
    30   27   28 1    
    31   28   29 ar   
    32   28   30 ar   
    33   28   31 1    
    34   31   33 1    
    35   32   33 1    
    36   32   34 1    
    37   32   35 1    
    38   32   36 1    
    39   36   37 1    
    40   36   38 1    
    41   38   39 2    
    42   38   40 am   
    43   40   41 1    
    44   41   42 1    
    45   42   43 1    
    46   43   44 2    
    47   43   45 am   
    48   45   46 1    
    49   46   47 1    
    50   47   48 1    
@<TRIPOS>SUBSTRUCTURE
     1 COA401      1 GROUP   
@<TRIPOS>SET
ATOM$ORANGE STATIC     ATOMS   COLORGROUP SYSTEM 
42 2 2 4 4 5 5 6 6 9 9 11 11 12 12 14 14 20 \
20 22 22 32 32 33 33 34 34 35 35 36 36 38 38 41 41 42 \
42 43 43 46 46 47 47 

