#    Name: 6ioi_1_COA
#    Modification time : Fri May 22 19:27:20 2020

@<TRIPOS>MOLECULE
6ioi_1_COA
   48    50     1     0     1
SMALL
NO_CHARGES


@<TRIPOS>ATOM
      1 N1A        70.1470   65.4720   26.1010 N.ar      1 COA401      0.0000 
      2 C2A        70.0130   64.9820   27.3400 C.ar      1 COA401      0.0000 
      3 N3A        69.2470   65.4140   28.3420 N.ar      1 COA401      0.0000 
      4 C4A        68.5360   66.4890   27.9620 C.ar      1 COA401      0.0000 
      5 C5A        68.5600   67.1020   26.7190 C.ar      1 COA401      0.0000 
      6 C6A        69.4130   66.5590   25.7420 C.ar      1 COA401      0.0000 
      7 N6A        69.5100   67.0490   24.4930 N.pl3     1 COA401      0.0000 
      8 N7A        67.6880   68.1890   26.7020 N.2       1 COA401      0.0000 
      9 C8A        67.1560   68.2100   27.9040 C.2       1 COA401      0.0000 
     10 N9A        67.6550   67.2180   28.7210 N.pl3     1 COA401      0.0000 
     11 C1B        67.2330   66.9220   30.0870 C.3       1 COA401      0.0000 
     12 C2B        67.2890   68.0790   31.0770 C.3       1 COA401      0.0000 
     13 O2B        68.5960   68.1140   31.6050 O.3       1 COA401      0.0000 
     14 C3B        66.2270   67.6750   32.1130 C.3       1 COA401      0.0000 
     15 O3B        66.8150   66.9540   33.1960 O.3       1 COA401      0.0000 
     16 P3B        65.8760   66.6210   34.4870 P.3       1 COA401      0.0000 
     17 O7A        66.5840   65.4600   35.1850 O.co2     1 COA401      0.0000 
     18 O8A        64.4360   66.2650   34.1240 O.co2     1 COA401      0.0000 
     19 O9A        65.9540   67.9220   35.2500 O.co2     1 COA401      0.0000 
     20 C4B        65.2990   66.7220   31.3570 C.3       1 COA401      0.0000 
     21 O4B        65.8760   66.5530   30.0350 O.3       1 COA401      0.0000 
     22 C5B        63.8710   67.1870   31.2430 C.3       1 COA401      0.0000 
     23 O5B        63.7040   67.8230   29.9660 O.3       1 COA401      0.0000 
     24 P1A        62.9240   69.2080   29.8390 P.3       1 COA401      0.0000 
     25 O1A        63.7150   70.1110   28.9450 O.co2     1 COA401      0.0000 
     26 O2A        62.5490   69.6990   31.2010 O.co2     1 COA401      0.0000 
     27 O3A        61.5900   68.7090   29.0860 O.3       1 COA401      0.0000 
     28 P2A        60.5120   67.5310   29.3190 P.3       1 COA401      0.0000 
     29 O4A        59.7900   67.2400   28.0420 O.co2     1 COA401      0.0000 
     30 O5A        61.1640   66.3950   30.0360 O.co2     1 COA401      0.0000 
     31 O6A        59.4710   68.2030   30.3450 O.3       1 COA401      0.0000 
     32 CBP        58.3450   66.7550   31.9850 C.3       1 COA401      0.0000 
     33 CCP        58.2310   67.5030   30.6480 C.3       1 COA401      0.0000 
     34 CDP        59.7090   67.0360   32.6410 C.3       1 COA401      0.0000 
     35 CEP        57.2480   67.2630   32.9360 C.3       1 COA401      0.0000 
     36 CAP        58.1930   65.2310   31.7610 C.3       1 COA401      0.0000 
     37 OAP        58.2690   64.5630   33.0150 O.3       1 COA401      0.0000 
     38 C9P        56.9190   64.8040   31.0290 C.2       1 COA401      0.0000 
     39 O9P        55.9950   65.6100   30.9170 O.2       1 COA401      0.0000 
     40 N8P        56.8420   63.5610   30.5480 N.am      1 COA401      0.0000 
     41 C7P        56.8400   62.3450   31.3630 C.3       1 COA401      0.0000 
     42 C6P        55.7900   61.2810   30.9210 C.3       1 COA401      0.0000 
     43 C5P        55.6310   60.2420   32.0330 C.2       1 COA401      0.0000 
     44 O5P        56.1420   60.3830   33.1710 O.2       1 COA401      0.0000 
     45 N4P        54.9570   59.1230   31.7020 N.am      1 COA401      0.0000 
     46 C3P        54.7330   58.0300   32.6190 C.3       1 COA401      0.0000 
     47 C2P        53.3440   57.9680   32.9510 C.3       1 COA401      0.0000 
     48 S1P        52.7250   58.4860   31.3150 S.3       1 COA401      0.0000 
@<TRIPOS>BOND
     1    1    2 ar   
     2    1    6 ar   
     3    2    3 ar   
     4    3    4 ar   
     5    4    5 ar   
     6    4   10 1    
     7    5    6 ar   
     8    5    8 1    
     9    6    7 1    
    10    8    9 2    
    11    9   10 1    
    12   10   11 1    
    13   11   12 1    
    14   11   21 1    
    15   12   13 1    
    16   12   14 1    
    17   14   15 1    
    18   14   20 1    
    19   15   16 1    
    20   16   17 ar   
    21   16   18 ar   
    22   16   19 ar   
    23   20   21 1    
    24   20   22 1    
    25   22   23 1    
    26   23   24 1    
    27   24   25 ar   
    28   24   26 ar   
    29   24   27 1    
    30   27   28 1    
    31   28   29 ar   
    32   28   30 ar   
    33   28   31 1    
    34   31   33 1    
    35   32   33 1    
    36   32   34 1    
    37   32   35 1    
    38   32   36 1    
    39   36   37 1    
    40   36   38 1    
    41   38   39 2    
    42   38   40 am   
    43   40   41 1    
    44   41   42 1    
    45   42   43 1    
    46   43   44 2    
    47   43   45 am   
    48   45   46 1    
    49   46   47 1    
    50   47   48 1    
@<TRIPOS>SUBSTRUCTURE
     1 COA401      1 GROUP   
@<TRIPOS>SET
ATOM$ORANGE STATIC     ATOMS   COLORGROUP SYSTEM 
42 2 2 4 4 5 5 6 6 9 9 11 11 12 12 14 14 20 \
20 22 22 32 32 33 33 34 34 35 35 36 36 38 38 41 41 42 \
42 43 43 46 46 47 47 

