#    Name: 6iuc_4_ATP
#    Modification time : Fri May 22 19:28:42 2020

@<TRIPOS>MOLECULE
6iuc_4_ATP
   31    33     1     0     1
SMALL
NO_CHARGES


@<TRIPOS>ATOM
      1 PG         35.7820  -28.9330  -93.5180 P.3       1 ATP500      0.0000 
      2 O1G        35.2450  -28.2640  -94.8450 O.co2     1 ATP500      0.0000 
      3 O2G        35.7050  -28.1130  -92.2480 O.co2     1 ATP500      0.0000 
      4 O3G        37.1150  -29.7010  -93.5600 O.co2     1 ATP500      0.0000 
      5 PB         33.1870  -29.4990  -93.3620 P.3       1 ATP500      0.0000 
      6 O1B        33.0440  -29.9320  -94.8050 O.co2     1 ATP500      0.0000 
      7 O2B        33.0290  -28.0590  -92.8680 O.co2     1 ATP500      0.0000 
      8 O3B        34.6610  -30.0000  -93.0410 O.3       1 ATP500      0.0000 
      9 PA         31.7310  -31.6890  -93.5630 P.3       1 ATP500      0.0000 
     10 O1A        32.9850  -32.1380  -94.3640 O.co2     1 ATP500      0.0000 
     11 O2A        30.4110  -31.2390  -94.1960 O.co2     1 ATP500      0.0000 
     12 O3A        32.0900  -30.4020  -92.6890 O.3       1 ATP500      0.0000 
     13 O5'        31.5330  -32.7840  -92.3670 O.3       1 ATP500      0.0000 
     14 C5'        32.4960  -33.7870  -91.9740 C.3       1 ATP500      0.0000 
     15 C4'        31.7000  -35.0750  -92.0450 C.3       1 ATP500      0.0000 
     16 O4'        30.5120  -34.8200  -91.3090 O.3       1 ATP500      0.0000 
     17 C3'        31.2320  -35.4300  -93.4730 C.3       1 ATP500      0.0000 
     18 O3'        31.2050  -36.8420  -93.7940 O.3       1 ATP500      0.0000 
     19 C2'        29.8010  -34.9580  -93.5630 C.3       1 ATP500      0.0000 
     20 O2'        29.0860  -35.8170  -94.4520 O.3       1 ATP500      0.0000 
     21 C1'        29.3380  -35.0800  -92.1120 C.3       1 ATP500      0.0000 
     22 N9         28.1310  -34.2400  -91.7980 N.pl3     1 ATP500      0.0000 
     23 C8         27.9960  -32.9260  -92.0360 C.2       1 ATP500      0.0000 
     24 N7         26.8010  -32.4680  -91.6240 N.2       1 ATP500      0.0000 
     25 C5         26.1480  -33.5000  -91.1100 C.ar      1 ATP500      0.0000 
     26 C6         24.8290  -33.6630  -90.5210 C.ar      1 ATP500      0.0000 
     27 N6         23.9770  -32.6100  -90.4060 N.pl3     1 ATP500      0.0000 
     28 N1         24.5360  -34.9020  -90.1210 N.ar      1 ATP500      0.0000 
     29 C2         25.3800  -35.9340  -90.2300 C.ar      1 ATP500      0.0000 
     30 N3         26.5910  -35.8520  -90.7590 N.ar      1 ATP500      0.0000 
     31 C4         27.0150  -34.6680  -91.2170 C.ar      1 ATP500      0.0000 
@<TRIPOS>BOND
     1    1    2 ar   
     2    1    3 ar   
     3    1    4 ar   
     4    1    8 1    
     5    5    6 ar   
     6    5    7 ar   
     7    5    8 1    
     8    5   12 1    
     9    9   10 ar   
    10    9   11 ar   
    11    9   12 1    
    12    9   13 1    
    13   13   14 1    
    14   14   15 1    
    15   15   16 1    
    16   15   17 1    
    17   16   21 1    
    18   17   18 1    
    19   17   19 1    
    20   19   20 1    
    21   19   21 1    
    22   21   22 1    
    23   22   23 1    
    24   22   31 1    
    25   23   24 2    
    26   24   25 1    
    27   25   26 ar   
    28   25   31 ar   
    29   26   27 1    
    30   26   28 ar   
    31   28   29 ar   
    32   29   30 ar   
    33   30   31 ar   
@<TRIPOS>SUBSTRUCTURE
     1 ATP500      1 GROUP   
@<TRIPOS>SET
ATOM$ORANGE STATIC     ATOMS   COLORGROUP SYSTEM 
20 14 14 15 15 17 17 19 19 21 21 23 23 25 25 26 26 29 \
29 31 31 

