#    Name: 6iuc_1_ATP
#    Modification time : Fri May 22 19:28:13 2020

@<TRIPOS>MOLECULE
6iuc_1_ATP
   31    33     1     0     1
SMALL
NO_CHARGES


@<TRIPOS>ATOM
      1 PG         -2.8620  -59.9030  -55.3980 P.3       1 ATP500      0.0000 
      2 O1G        -3.1660  -61.1530  -56.2620 O.co2     1 ATP500      0.0000 
      3 O2G        -3.8940  -58.7700  -55.3860 O.co2     1 ATP500      0.0000 
      4 O3G        -2.2180  -60.2660  -54.0640 O.co2     1 ATP500      0.0000 
      5 PB         -0.6940  -60.3260  -56.8250 P.3       1 ATP500      0.0000 
      6 O1B        -1.3950  -60.8830  -58.0580 O.co2     1 ATP500      0.0000 
      7 O2B        -0.2550  -61.1790  -55.6480 O.co2     1 ATP500      0.0000 
      8 O3B        -1.6220  -59.2070  -56.1790 O.3       1 ATP500      0.0000 
      9 PA          0.2890  -59.1270  -58.8700 P.3       1 ATP500      0.0000 
     10 O1A         0.7160  -60.2230  -59.8450 O.co2     1 ATP500      0.0000 
     11 O2A        -1.1280  -58.5220  -58.9070 O.co2     1 ATP500      0.0000 
     12 O3A         0.5950  -59.6600  -57.4150 O.3       1 ATP500      0.0000 
     13 O5'         1.2480  -57.8450  -58.7450 O.3       1 ATP500      0.0000 
     14 C5'         0.6290  -56.5530  -58.5480 C.3       1 ATP500      0.0000 
     15 C4'         1.2380  -55.5160  -59.4970 C.3       1 ATP500      0.0000 
     16 O4'         2.6950  -55.5310  -59.5200 O.3       1 ATP500      0.0000 
     17 C3'         0.7580  -55.8500  -60.9080 C.3       1 ATP500      0.0000 
     18 O3'         0.6290  -54.7270  -61.7840 O.3       1 ATP500      0.0000 
     19 C2'         1.9070  -56.7330  -61.3310 C.3       1 ATP500      0.0000 
     20 O2'         1.9310  -57.0700  -62.7210 O.3       1 ATP500      0.0000 
     21 C1'         3.1170  -55.9600  -60.8250 C.3       1 ATP500      0.0000 
     22 N9          4.3000  -56.8490  -60.8720 N.pl3     1 ATP500      0.0000 
     23 C8          4.2570  -58.1570  -60.6200 C.2       1 ATP500      0.0000 
     24 N7          5.4640  -58.7310  -60.7380 N.2       1 ATP500      0.0000 
     25 C5          6.3040  -57.7530  -61.0790 C.ar      1 ATP500      0.0000 
     26 C6          7.7330  -57.7010  -61.3460 C.ar      1 ATP500      0.0000 
     27 N6          8.4810  -58.8190  -61.2580 N.pl3     1 ATP500      0.0000 
     28 N1          8.2320  -56.5120  -61.6750 N.ar      1 ATP500      0.0000 
     29 C2          7.4710  -55.4020  -61.7500 C.ar      1 ATP500      0.0000 
     30 N3          6.1640  -55.3580  -61.5150 N.ar      1 ATP500      0.0000 
     31 C4          5.5430  -56.5070  -61.1840 C.ar      1 ATP500      0.0000 
@<TRIPOS>BOND
     1    1    2 ar   
     2    1    3 ar   
     3    1    4 ar   
     4    1    8 1    
     5    5    6 ar   
     6    5    7 ar   
     7    5    8 1    
     8    5   12 1    
     9    9   10 ar   
    10    9   11 ar   
    11    9   12 1    
    12    9   13 1    
    13   13   14 1    
    14   14   15 1    
    15   15   16 1    
    16   15   17 1    
    17   16   21 1    
    18   17   18 1    
    19   17   19 1    
    20   19   20 1    
    21   19   21 1    
    22   21   22 1    
    23   22   23 1    
    24   22   31 1    
    25   23   24 2    
    26   24   25 1    
    27   25   26 ar   
    28   25   31 ar   
    29   26   27 1    
    30   26   28 ar   
    31   28   29 ar   
    32   29   30 ar   
    33   30   31 ar   
@<TRIPOS>SUBSTRUCTURE
     1 ATP500      1 GROUP   
@<TRIPOS>SET
ATOM$ORANGE STATIC     ATOMS   COLORGROUP SYSTEM 
20 14 14 15 15 17 17 19 19 21 21 23 23 25 25 26 26 29 \
29 31 31 

