#    Name: 6iuc_2_ATP
#    Modification time : Fri May 22 19:28:23 2020

@<TRIPOS>MOLECULE
6iuc_2_ATP
   31    33     1     0     1
SMALL
NO_CHARGES


@<TRIPOS>ATOM
      1 PG         -2.2310  -54.7360  -48.0970 P.3       1 ATP500      0.0000 
      2 O1G        -3.0240  -54.5790  -49.3930 O.co2     1 ATP500      0.0000 
      3 O2G        -1.7480  -56.1970  -47.9640 O.co2     1 ATP500      0.0000 
      4 O3G        -2.7470  -54.0090  -46.8000 O.co2     1 ATP500      0.0000 
      5 PB         -1.0160  -52.3150  -48.3020 P.3       1 ATP500      0.0000 
      6 O1B        -2.2930  -51.7690  -48.9230 O.co2     1 ATP500      0.0000 
      7 O2B        -0.7880  -52.3560  -46.8130 O.co2     1 ATP500      0.0000 
      8 O3B        -0.9240  -53.8870  -48.5680 O.3       1 ATP500      0.0000 
      9 PA          1.5870  -51.7260  -48.0160 P.3       1 ATP500      0.0000 
     10 O1A         1.5930  -53.1190  -47.4140 O.co2     1 ATP500      0.0000 
     11 O2A         1.7390  -50.4550  -47.2350 O.co2     1 ATP500      0.0000 
     12 O3A         0.2660  -51.5670  -48.8890 O.3       1 ATP500      0.0000 
     13 O5'         2.7350  -51.7970  -49.1000 O.3       1 ATP500      0.0000 
     14 C5'         3.3730  -53.0660  -49.2290 C.3       1 ATP500      0.0000 
     15 C4'         4.8710  -52.8120  -49.2370 C.3       1 ATP500      0.0000 
     16 O4'         5.1980  -51.7030  -50.0910 O.3       1 ATP500      0.0000 
     17 C3'         5.3750  -52.4820  -47.8140 C.3       1 ATP500      0.0000 
     18 O3'         6.6130  -53.0800  -47.3100 O.3       1 ATP500      0.0000 
     19 C2'         5.4720  -50.9670  -47.8750 C.3       1 ATP500      0.0000 
     20 O2'         6.4760  -50.5620  -46.9580 O.3       1 ATP500      0.0000 
     21 C1'         5.8490  -50.6740  -49.3240 C.3       1 ATP500      0.0000 
     22 N9          5.5110  -49.2940  -49.7790 N.pl3     1 ATP500      0.0000 
     23 C8          4.3150  -48.6850  -49.7530 C.2       1 ATP500      0.0000 
     24 N7          4.3460  -47.4380  -50.2760 N.2       1 ATP500      0.0000 
     25 C5          5.5980  -47.2470  -50.6550 C.ar      1 ATP500      0.0000 
     26 C6          6.2870  -46.1360  -51.2700 C.ar      1 ATP500      0.0000 
     27 N6          5.5870  -45.0210  -51.5500 N.pl3     1 ATP500      0.0000 
     28 N1          7.5850  -46.2910  -51.5120 N.ar      1 ATP500      0.0000 
     29 C2          8.2150  -47.4330  -51.2080 C.ar      1 ATP500      0.0000 
     30 N3          7.6570  -48.4980  -50.6340 N.ar      1 ATP500      0.0000 
     31 C4          6.3580  -48.4520  -50.3340 C.ar      1 ATP500      0.0000 
@<TRIPOS>BOND
     1    1    2 ar   
     2    1    3 ar   
     3    1    4 ar   
     4    1    8 1    
     5    5    6 ar   
     6    5    7 ar   
     7    5    8 1    
     8    5   12 1    
     9    9   10 ar   
    10    9   11 ar   
    11    9   12 1    
    12    9   13 1    
    13   13   14 1    
    14   14   15 1    
    15   15   16 1    
    16   15   17 1    
    17   16   21 1    
    18   17   18 1    
    19   17   19 1    
    20   19   20 1    
    21   19   21 1    
    22   21   22 1    
    23   22   23 1    
    24   22   31 1    
    25   23   24 2    
    26   24   25 1    
    27   25   26 ar   
    28   25   31 ar   
    29   26   27 1    
    30   26   28 ar   
    31   28   29 ar   
    32   29   30 ar   
    33   30   31 ar   
@<TRIPOS>SUBSTRUCTURE
     1 ATP500      1 GROUP   
@<TRIPOS>SET
ATOM$ORANGE STATIC     ATOMS   COLORGROUP SYSTEM 
20 14 14 15 15 17 17 19 19 21 21 23 23 25 25 26 26 29 \
29 31 31 

