#    Name: 6iuc_3_ATP
#    Modification time : Fri May 22 19:28:33 2020

@<TRIPOS>MOLECULE
6iuc_3_ATP
   31    33     1     0     1
SMALL
NO_CHARGES


@<TRIPOS>ATOM
      1 PG         40.6940  -29.9140  -85.9980 P.3       1 ATP500      0.0000 
      2 O1G        41.3350  -30.5490  -87.2300 O.co2     1 ATP500      0.0000 
      3 O2G        41.7190  -29.5450  -84.9290 O.co2     1 ATP500      0.0000 
      4 O3G        39.5800  -28.8890  -86.2140 O.co2     1 ATP500      0.0000 
      5 PB         40.6440  -32.5460  -85.0550 P.3       1 ATP500      0.0000 
      6 O1B        40.9680  -33.0340  -86.4780 O.co2     1 ATP500      0.0000 
      7 O2B        41.7450  -32.3500  -84.0070 O.co2     1 ATP500      0.0000 
      8 O3B        39.9030  -31.1350  -85.2580 O.3       1 ATP500      0.0000 
      9 PA         39.2440  -33.2120  -82.8600 P.3       1 ATP500      0.0000 
     10 O1A        39.4030  -31.7140  -82.6460 O.co2     1 ATP500      0.0000 
     11 O2A        39.9410  -34.1110  -81.8660 O.co2     1 ATP500      0.0000 
     12 O3A        39.6440  -33.5590  -84.3640 O.3       1 ATP500      0.0000 
     13 O5'        37.6990  -33.6190  -83.0310 O.3       1 ATP500      0.0000 
     14 C5'        36.7050  -32.5950  -83.0790 C.3       1 ATP500      0.0000 
     15 C4'        35.4800  -33.0030  -82.2700 C.3       1 ATP500      0.0000 
     16 O4'        35.2430  -34.4210  -82.2830 O.3       1 ATP500      0.0000 
     17 C3'        35.6780  -32.7130  -80.7880 C.3       1 ATP500      0.0000 
     18 O3'        34.3990  -32.5030  -80.1980 O.3       1 ATP500      0.0000 
     19 C2'        36.2760  -34.0060  -80.2810 C.3       1 ATP500      0.0000 
     20 O2'        36.1680  -34.1960  -78.8840 O.3       1 ATP500      0.0000 
     21 C1'        35.3020  -34.9330  -80.9220 C.3       1 ATP500      0.0000 
     22 N9         35.7440  -36.3360  -80.9190 N.pl3     1 ATP500      0.0000 
     23 C8         36.9360  -36.7850  -81.3460 C.2       1 ATP500      0.0000 
     24 N7         36.9890  -38.1340  -81.2990 N.2       1 ATP500      0.0000 
     25 C5         35.8010  -38.5320  -80.8510 C.ar      1 ATP500      0.0000 
     26 C6         35.2210  -39.8310  -80.5950 C.ar      1 ATP500      0.0000 
     27 N6         35.9540  -40.9480  -80.8290 N.pl3     1 ATP500      0.0000 
     28 N1         33.9700  -39.8270  -80.1380 N.ar      1 ATP500      0.0000 
     29 C2         33.2790  -38.7030  -79.9520 C.ar      1 ATP500      0.0000 
     30 N3         33.7380  -37.4890  -80.1720 N.ar      1 ATP500      0.0000 
     31 C4         34.9820  -37.3580  -80.6050 C.ar      1 ATP500      0.0000 
@<TRIPOS>BOND
     1    1    2 ar   
     2    1    3 ar   
     3    1    4 ar   
     4    1    8 1    
     5    5    6 ar   
     6    5    7 ar   
     7    5    8 1    
     8    5   12 1    
     9    9   10 ar   
    10    9   11 ar   
    11    9   12 1    
    12    9   13 1    
    13   13   14 1    
    14   14   15 1    
    15   15   16 1    
    16   15   17 1    
    17   16   21 1    
    18   17   18 1    
    19   17   19 1    
    20   19   20 1    
    21   19   21 1    
    22   21   22 1    
    23   22   23 1    
    24   22   31 1    
    25   23   24 2    
    26   24   25 1    
    27   25   26 ar   
    28   25   31 ar   
    29   26   27 1    
    30   26   28 ar   
    31   28   29 ar   
    32   29   30 ar   
    33   30   31 ar   
@<TRIPOS>SUBSTRUCTURE
     1 ATP500      1 GROUP   
@<TRIPOS>SET
ATOM$ORANGE STATIC     ATOMS   COLORGROUP SYSTEM 
20 14 14 15 15 17 17 19 19 21 21 23 23 25 25 26 26 29 \
29 31 31 

