#    Name: 6hq5_3_CMP
#    Modification time : Fri May 22 19:28:06 2020

@<TRIPOS>MOLECULE
6hq5_3_CMP
   22    25     1     0     1
SMALL
NO_CHARGES


@<TRIPOS>ATOM
      1 P         101.0330  -41.1320   -6.2690 P.3       1 CMP802      0.0000 
      2 O1P        99.8060  -40.8930   -7.0510 O.co2     1 CMP802      0.0000 
      3 O2P       102.2180  -41.6440   -6.9850 O.co2     1 CMP802      0.0000 
      4 O5'       100.6840  -42.1710   -5.0570 O.3       1 CMP802      0.0000 
      5 C5'       101.7310  -42.3630   -4.1100 C.3       1 CMP802      0.0000 
      6 C4'       101.8560  -40.9850   -3.4800 C.3       1 CMP802      0.0000 
      7 O4'       102.8400  -40.9380   -2.4100 O.3       1 CMP802      0.0000 
      8 C3'       102.4160  -40.0630   -4.5190 C.3       1 CMP802      0.0000 
      9 O3'       101.3880  -39.7590   -5.4530 O.3       1 CMP802      0.0000 
     10 C2'       102.8380  -38.8980   -3.6700 C.3       1 CMP802      0.0000 
     11 O2'       101.7110  -38.1060   -3.3230 O.3       1 CMP802      0.0000 
     12 C1'       103.4100  -39.5930   -2.4230 C.3       1 CMP802      0.0000 
     13 N9        104.8980  -39.6830   -2.4920 N.pl3     1 CMP802      0.0000 
     14 C8        105.5830  -40.3230   -3.4380 C.2       1 CMP802      0.0000 
     15 N7        106.8810  -40.1930   -3.1810 N.2       1 CMP802      0.0000 
     16 C5        107.0090  -39.4720   -2.0730 C.ar      1 CMP802      0.0000 
     17 C6        108.0960  -39.0690   -1.4060 C.ar      1 CMP802      0.0000 
     18 N6        109.2660  -39.4330   -1.9130 N.pl3     1 CMP802      0.0000 
     19 N1        108.0190  -38.3350   -0.2870 N.ar      1 CMP802      0.0000 
     20 C2        106.7450  -37.9900    0.1830 C.ar      1 CMP802      0.0000 
     21 N3        105.6220  -38.4260   -0.5370 N.ar      1 CMP802      0.0000 
     22 C4        105.7810  -39.1550   -1.6480 C.ar      1 CMP802      0.0000 
@<TRIPOS>BOND
     1    1    2 ar   
     2    1    3 ar   
     3    1    4 1    
     4    1    9 1    
     5    4    5 1    
     6    5    6 1    
     7    6    7 1    
     8    6    8 1    
     9    7   12 1    
    10    8    9 1    
    11    8   10 1    
    12   10   11 1    
    13   10   12 1    
    14   12   13 1    
    15   13   14 1    
    16   13   22 1    
    17   14   15 2    
    18   15   16 1    
    19   16   17 ar   
    20   16   22 ar   
    21   17   18 1    
    22   17   19 ar   
    23   19   20 ar   
    24   20   21 ar   
    25   21   22 ar   
@<TRIPOS>SUBSTRUCTURE
     1 CMP802      1 GROUP   
@<TRIPOS>SET
ATOM$ORANGE STATIC     ATOMS   COLORGROUP SYSTEM 
20 5 5 6 6 8 8 10 10 12 12 14 14 16 16 17 17 20 \
20 22 22 

