#    Name: 6hq5_4_CMP
#    Modification time : Fri May 22 19:28:16 2020

@<TRIPOS>MOLECULE
6hq5_4_CMP
   22    25     1     0     1
SMALL
NO_CHARGES


@<TRIPOS>ATOM
      1 P         119.6350  -26.6810   -8.5440 P.3       1 CMP802      0.0000 
      2 O1P       119.4260  -25.2360   -8.7370 O.co2     1 CMP802      0.0000 
      3 O2P       119.4820  -27.2530   -7.1890 O.co2     1 CMP802      0.0000 
      4 O5'       121.1370  -27.0560   -9.0790 O.3       1 CMP802      0.0000 
      5 C5'       121.4190  -28.4480   -9.1560 C.3       1 CMP802      0.0000 
      6 C4'       120.4130  -28.9370  -10.1850 C.3       1 CMP802      0.0000 
      7 O4'       120.5290  -30.3480  -10.4490 O.3       1 CMP802      0.0000 
      8 C3'       119.0280  -28.7990   -9.6080 C.3       1 CMP802      0.0000 
      9 O3'       118.6590  -27.4290   -9.5920 O.3       1 CMP802      0.0000 
     10 C2'       118.2370  -29.6260  -10.5770 C.3       1 CMP802      0.0000 
     11 O2'       118.0330  -28.9190  -11.8050 O.3       1 CMP802      0.0000 
     12 C1'       119.1850  -30.8110  -10.7840 C.3       1 CMP802      0.0000 
     13 N9        118.8290  -31.9370   -9.8830 N.pl3     1 CMP802      0.0000 
     14 C8        118.8710  -31.9270   -8.5540 C.2       1 CMP802      0.0000 
     15 N7        118.4780  -33.1180   -8.1220 N.2       1 CMP802      0.0000 
     16 C5        118.1900  -33.8760   -9.1750 C.ar      1 CMP802      0.0000 
     17 C6        117.7550  -35.1400   -9.2650 C.ar      1 CMP802      0.0000 
     18 N6        117.5670  -35.7970   -8.1180 N.pl3     1 CMP802      0.0000 
     19 N1        117.5210  -35.7230  -10.4490 N.ar      1 CMP802      0.0000 
     20 C2        117.7460  -34.9760  -11.6120 C.ar      1 CMP802      0.0000 
     21 N3        118.1970  -33.6540  -11.4910 N.ar      1 CMP802      0.0000 
     22 C4        118.4090  -33.1390  -10.2700 C.ar      1 CMP802      0.0000 
@<TRIPOS>BOND
     1    1    2 ar   
     2    1    3 ar   
     3    1    4 1    
     4    1    9 1    
     5    4    5 1    
     6    5    6 1    
     7    6    7 1    
     8    6    8 1    
     9    7   12 1    
    10    8    9 1    
    11    8   10 1    
    12   10   11 1    
    13   10   12 1    
    14   12   13 1    
    15   13   14 1    
    16   13   22 1    
    17   14   15 2    
    18   15   16 1    
    19   16   17 ar   
    20   16   22 ar   
    21   17   18 1    
    22   17   19 ar   
    23   19   20 ar   
    24   20   21 ar   
    25   21   22 ar   
@<TRIPOS>SUBSTRUCTURE
     1 CMP802      1 GROUP   
@<TRIPOS>SET
ATOM$ORANGE STATIC     ATOMS   COLORGROUP SYSTEM 
20 5 5 6 6 8 8 10 10 12 12 14 14 16 16 17 17 20 \
20 22 22 

