#    Name: 6hq5_1_C2E
#    Modification time : Fri May 22 19:27:49 2020

@<TRIPOS>MOLECULE
6hq5_1_C2E
   46    52     1     0     0
SMALL
NO_CHARGES


@<TRIPOS>ATOM
      1 P1        102.6820    3.3960  -33.1870 P.3       1 C2E801      0.0000 
      2 O2P       102.8520    2.2400  -34.0970 O.co2     1 C2E801      0.0000 
      3 O1P       103.7240    4.4450  -33.1260 O.co2     1 C2E801      0.0000 
      4 O5'       102.4740    2.8850  -31.6770 O.3       1 C2E801      0.0000 
      5 C5'       101.5100    1.8760  -31.4070 C.3       1 C2E801      0.0000 
      6 C4'       101.3100    1.7400  -29.9110 C.3       1 C2E801      0.0000 
      7 O4'       102.5730    1.4520  -29.2900 O.3       1 C2E801      0.0000 
      8 C3'       100.9040    3.0580  -29.2850 C.3       1 C2E801      0.0000 
      9 O3'        99.5050    3.3700  -29.5610 O.3       1 C2E801      0.0000 
     10 C2'       101.1970    2.7310  -27.8270 C.3       1 C2E801      0.0000 
     11 O2'       100.2020    1.8800  -27.2690 O.3       1 C2E801      0.0000 
     12 C1'       102.5100    1.9540  -27.9250 C.3       1 C2E801      0.0000 
     13 N9        103.6740    2.8410  -27.6210 N.pl3     1 C2E801      0.0000 
     14 C8        104.2950    3.6670  -28.4640 C.2       1 C2E801      0.0000 
     15 N7        105.2740    4.2720  -27.7960 N.2       1 C2E801      0.0000 
     16 C5        105.2570    3.8300  -26.5410 C.2       1 C2E801      0.0000 
     17 C6        106.0180    4.1230  -25.4860 C.2       1 C2E801      0.0000 
     18 O6        106.9320    4.9380  -25.5690 O.2       1 C2E801      0.0000 
     19 N1        105.7840    3.4990  -24.2590 N.am      1 C2E801      0.0000 
     20 C2        104.7490    2.5760  -24.1780 C.2       1 C2E801      0.0000 
     21 N2        104.5000    1.9660  -23.0310 N.pl3     1 C2E801      0.0000 
     22 N3        104.0110    2.3160  -25.2660 N.2       1 C2E801      0.0000 
     23 C4        104.2630    2.9400  -26.4310 C.2       1 C2E801      0.0000 
     24 P11        98.7520    4.7240  -29.0210 P.3       1 C2E801      0.0000 
     25 O21        97.3840    4.3570  -28.5680 O.co2     1 C2E801      0.0000 
     26 O11        99.6210    5.4980  -28.1100 O.co2     1 C2E801      0.0000 
     27 O5A        98.4900    5.5740  -30.3880 O.3       1 C2E801      0.0000 
     28 C5A        99.5070    6.0910  -31.2420 C.3       1 C2E801      0.0000 
     29 C4A        99.5120    5.2930  -32.5520 C.3       1 C2E801      0.0000 
     30 O4A        98.5640    5.8350  -33.5270 O.3       1 C2E801      0.0000 
     31 C3A       100.8930    5.3750  -33.1980 C.3       1 C2E801      0.0000 
     32 O3A       101.2780    4.0520  -33.6110 O.3       1 C2E801      0.0000 
     33 C2A       100.6830    6.2750  -34.3940 C.3       1 C2E801      0.0000 
     34 O2A       101.6240    5.9540  -35.4470 O.3       1 C2E801      0.0000 
     35 C1A        99.2570    5.9180  -34.7980 C.3       1 C2E801      0.0000 
     36 N91        98.6320    6.9510  -35.6890 N.pl3     1 C2E801      0.0000 
     37 C81        98.6790    8.2580  -35.4670 C.2       1 C2E801      0.0000 
     38 N71        98.0220    8.8770  -36.4390 N.2       1 C2E801      0.0000 
     39 C51        97.5560    7.9580  -37.2750 C.2       1 C2E801      0.0000 
     40 C61        96.8360    8.0700  -38.3980 C.2       1 C2E801      0.0000 
     41 O61        96.4840    9.1680  -38.8340 O.2       1 C2E801      0.0000 
     42 N11        96.4750    6.9140  -39.0940 N.am      1 C2E801      0.0000 
     43 C21        96.8790    5.6780  -38.5870 C.2       1 C2E801      0.0000 
     44 N21        96.5480    4.5630  -39.2240 N.pl3     1 C2E801      0.0000 
     45 N31        97.6000    5.6320  -37.4560 N.2       1 C2E801      0.0000 
     46 C41        97.9350    6.7600  -36.8090 C.2       1 C2E801      0.0000 
@<TRIPOS>BOND
     1    1    2 ar   
     2    1    3 ar   
     3    1    4 1    
     4    1   32 1    
     5    4    5 1    
     6    5    6 1    
     7    6    7 1    
     8    6    8 1    
     9    7   12 1    
    10    8    9 1    
    11    8   10 1    
    12    9   24 1    
    13   10   11 1    
    14   10   12 1    
    15   12   13 1    
    16   13   14 1    
    17   13   23 1    
    18   14   15 2    
    19   15   16 1    
    20   16   17 1    
    21   16   23 2    
    22   17   18 2    
    23   17   19 am   
    24   19   20 1    
    25   20   21 1    
    26   20   22 2    
    27   22   23 1    
    28   24   25 ar   
    29   24   26 ar   
    30   24   27 1    
    31   27   28 1    
    32   28   29 1    
    33   29   30 1    
    34   29   31 1    
    35   30   35 1    
    36   31   32 1    
    37   31   33 1    
    38   33   34 1    
    39   33   35 1    
    40   35   36 1    
    41   36   37 1    
    42   36   46 1    
    43   37   38 2    
    44   38   39 1    
    45   39   40 1    
    46   39   46 2    
    47   40   41 2    
    48   40   42 am   
    49   42   43 1    
    50   43   44 1    
    51   43   45 2    
    52   45   46 1    
@<TRIPOS>SUBSTRUCTURE
     1 C2E801      1 GROUP   
@<TRIPOS>SET

