#    Name: 6hq5_2_C2E
#    Modification time : Fri May 22 19:27:56 2020

@<TRIPOS>MOLECULE
6hq5_2_C2E
   46    52     1     0     0
SMALL
NO_CHARGES


@<TRIPOS>ATOM
      1 P1         71.5380  -12.2980   -7.1080 P.3       1 C2E801      0.0000 
      2 O2P        72.2920  -12.5400   -5.8570 O.co2     1 C2E801      0.0000 
      3 O1P        70.2840  -13.0580   -7.3650 O.co2     1 C2E801      0.0000 
      4 O5'        72.5220  -12.5670   -8.3330 O.3       1 C2E801      0.0000 
      5 C5'        73.7980  -11.9420   -8.3440 C.3       1 C2E801      0.0000 
      6 C4'        74.5170  -12.2770   -9.6350 C.3       1 C2E801      0.0000 
      7 O4'        74.6220  -13.7000   -9.7740 O.3       1 C2E801      0.0000 
      8 C3'        73.6910  -11.8650  -10.8210 C.3       1 C2E801      0.0000 
      9 O3'        73.7510  -10.4180  -10.9830 O.3       1 C2E801      0.0000 
     10 C2'        74.3970  -12.6520  -11.9050 C.3       1 C2E801      0.0000 
     11 O2'        75.5960  -11.9970  -12.2850 O.3       1 C2E801      0.0000 
     12 C1'        74.7300  -13.9660  -11.1930 C.3       1 C2E801      0.0000 
     13 N9         73.7500  -15.0210  -11.4900 N.pl3     1 C2E801      0.0000 
     14 C8         72.6560  -15.2730  -10.7700 C.2       1 C2E801      0.0000 
     15 N7         72.0090  -16.2870  -11.3370 N.2       1 C2E801      0.0000 
     16 C5         72.7020  -16.6620  -12.4070 C.2       1 C2E801      0.0000 
     17 C6         72.4680  -17.6240  -13.2990 C.2       1 C2E801      0.0000 
     18 O6         71.4760  -18.3390  -13.2010 O.2       1 C2E801      0.0000 
     19 N1         73.3650  -17.8270  -14.3540 N.am      1 C2E801      0.0000 
     20 C2         74.4870  -17.0010  -14.4320 C.2       1 C2E801      0.0000 
     21 N2         75.3550  -17.1750  -15.4230 N.pl3     1 C2E801      0.0000 
     22 N3         74.6710  -16.0390  -13.5050 N.2       1 C2E801      0.0000 
     23 C4         73.7860  -15.8770  -12.5060 C.2       1 C2E801      0.0000 
     24 P11        72.9550   -9.5920  -12.1580 P.3       1 C2E801      0.0000 
     25 O21        73.8200   -8.4560  -12.5640 O.co2     1 C2E801      0.0000 
     26 O11        72.4000  -10.4960  -13.2040 O.co2     1 C2E801      0.0000 
     27 O5A        71.7580   -8.9050  -11.3320 O.3       1 C2E801      0.0000 
     28 C5A        70.8540   -9.6330  -10.5160 C.3       1 C2E801      0.0000 
     29 C4A        71.0680   -9.2230   -9.0710 C.3       1 C2E801      0.0000 
     30 O4A        70.5170   -7.9000   -8.8130 O.3       1 C2E801      0.0000 
     31 C3A        70.3190  -10.1850   -8.1720 C.3       1 C2E801      0.0000 
     32 O3A        71.2390  -10.7140   -7.1890 O.3       1 C2E801      0.0000 
     33 C2A        69.2440   -9.3290   -7.5270 C.3       1 C2E801      0.0000 
     34 O2A        68.9620   -9.7850   -6.1860 O.3       1 C2E801      0.0000 
     35 C1A        69.9010   -7.9660   -7.5100 C.3       1 C2E801      0.0000 
     36 N91        68.9070   -6.8600   -7.3060 N.pl3     1 C2E801      0.0000 
     37 C81        67.9010   -6.5570   -8.1190 C.2       1 C2E801      0.0000 
     38 N71        67.2510   -5.5210   -7.6040 N.2       1 C2E801      0.0000 
     39 C51        67.8460   -5.1720   -6.4680 C.2       1 C2E801      0.0000 
     40 C61        67.5810   -4.2000   -5.5820 C.2       1 C2E801      0.0000 
     41 O61        66.6390   -3.4210   -5.7340 O.2       1 C2E801      0.0000 
     42 N11        68.3960   -4.0650   -4.4530 N.am      1 C2E801      0.0000 
     43 C21        69.4650   -4.9540   -4.2940 C.2       1 C2E801      0.0000 
     44 N21        70.2590   -4.8650   -3.2370 N.pl3     1 C2E801      0.0000 
     45 N31        69.6800   -5.9000   -5.2160 N.2       1 C2E801      0.0000 
     46 C41        68.8770   -6.0070   -6.2860 C.2       1 C2E801      0.0000 
@<TRIPOS>BOND
     1    1    2 ar   
     2    1    3 ar   
     3    1    4 1    
     4    1   32 1    
     5    4    5 1    
     6    5    6 1    
     7    6    7 1    
     8    6    8 1    
     9    7   12 1    
    10    8    9 1    
    11    8   10 1    
    12    9   24 1    
    13   10   11 1    
    14   10   12 1    
    15   12   13 1    
    16   13   14 1    
    17   13   23 1    
    18   14   15 2    
    19   15   16 1    
    20   16   17 1    
    21   16   23 2    
    22   17   18 2    
    23   17   19 am   
    24   19   20 1    
    25   20   21 1    
    26   20   22 2    
    27   22   23 1    
    28   24   25 ar   
    29   24   26 ar   
    30   24   27 1    
    31   27   28 1    
    32   28   29 1    
    33   29   30 1    
    34   29   31 1    
    35   30   35 1    
    36   31   32 1    
    37   31   33 1    
    38   33   34 1    
    39   33   35 1    
    40   35   36 1    
    41   36   37 1    
    42   36   46 1    
    43   37   38 2    
    44   38   39 1    
    45   39   40 1    
    46   39   46 2    
    47   40   41 2    
    48   40   42 am   
    49   42   43 1    
    50   43   44 1    
    51   43   45 2    
    52   45   46 1    
@<TRIPOS>SUBSTRUCTURE
     1 C2E801      1 GROUP   
@<TRIPOS>SET

