#    Name: 6n9w_4_TTP
#    Modification time : Fri May 22 19:37:46 2020

@<TRIPOS>MOLECULE
6n9w_4_TTP
   29    30     1     0     0
SMALL
NO_CHARGES


@<TRIPOS>ATOM
      1 PA        153.6540  169.3310  233.0930 P.3       1 TTP700      0.0000 
      2 O1A       152.5600  170.2780  233.5170 O.co2     1 TTP700      0.0000 
      3 O2A       153.0510  168.1670  232.3450 O.co2     1 TTP700      0.0000 
      4 O3A       154.7010  170.1290  232.1060 O.3       1 TTP700      0.0000 
      5 PB        154.4800  170.8720  230.6550 P.3       1 TTP700      0.0000 
      6 O1B       154.9780  172.2950  230.7380 O.co2     1 TTP700      0.0000 
      7 O2B       153.0100  170.8570  230.3120 O.co2     1 TTP700      0.0000 
      8 O3B       155.3170  170.0510  229.5010 O.3       1 TTP700      0.0000 
      9 PG        155.4570  168.4860  229.2050 P.3       1 TTP700      0.0000 
     10 O1G       155.7410  168.2700  227.7390 O.co2     1 TTP700      0.0000 
     11 O2G       154.1680  167.7940  229.5790 O.co2     1 TTP700      0.0000 
     12 O3G       156.5910  167.9260  230.0270 O.co2     1 TTP700      0.0000 
     13 O5'       154.4520  168.7890  234.4270 O.3       1 TTP700      0.0000 
     14 C5'       155.7440  169.2680  234.6720 C.3       1 TTP700      0.0000 
     15 C4'       156.4520  168.3400  235.6830 C.3       1 TTP700      0.0000 
     16 O4'       157.4270  169.0960  236.4500 O.3       1 TTP700      0.0000 
     17 C3'       155.4380  167.8020  236.6950 C.3       1 TTP700      0.0000 
     18 O3'       155.8480  166.4810  237.1550 O.3       1 TTP700      0.0000 
     19 C2'       155.5460  168.7960  237.8360 C.3       1 TTP700      0.0000 
     20 C1'       157.0160  169.1700  237.8080 C.3       1 TTP700      0.0000 
     21 N1        157.2080  170.5520  238.2740 N.am      1 TTP700      0.0000 
     22 C2        158.2670  170.9030  239.2580 C.2       1 TTP700      0.0000 
     23 O2        158.9560  170.0250  239.6550 O.2       1 TTP700      0.0000 
     24 N3        158.5140  172.1860  239.7510 N.am      1 TTP700      0.0000 
     25 C4        157.6900  173.1300  239.2530 C.2       1 TTP700      0.0000 
     26 O4        157.8600  174.2910  239.6530 O.2       1 TTP700      0.0000 
     27 C5        156.5930  172.9110  238.2660 C.2       1 TTP700      0.0000 
     28 C5M       155.7260  174.0690  237.7780 C.3       1 TTP700      0.0000 
     29 C6        156.3900  171.6230  237.8090 C.2       1 TTP700      0.0000 
@<TRIPOS>BOND
     1    1    2 ar   
     2    1    3 ar   
     3    1    4 1    
     4    1   13 1    
     5    4    5 1    
     6    5    6 ar   
     7    5    7 ar   
     8    5    8 1    
     9    8    9 1    
    10    9   10 ar   
    11    9   11 ar   
    12    9   12 ar   
    13   13   14 1    
    14   14   15 1    
    15   15   16 1    
    16   15   17 1    
    17   16   20 1    
    18   17   18 1    
    19   17   19 1    
    20   19   20 1    
    21   20   21 1    
    22   21   22 1    
    23   21   29 1    
    24   22   23 2    
    25   22   24 1    
    26   24   25 1    
    27   25   26 2    
    28   25   27 1    
    29   27   28 1    
    30   27   29 2    
@<TRIPOS>SUBSTRUCTURE
     1 TTP700      1 GROUP   
@<TRIPOS>SET

