#    Name: 6n9w_3_TTP
#    Modification time : Fri May 22 19:37:40 2020

@<TRIPOS>MOLECULE
6n9w_3_TTP
   29    30     1     0     0
SMALL
NO_CHARGES


@<TRIPOS>ATOM
      1 PA        179.8180  152.7680  222.6440 P.3       1 TTP700      0.0000 
      2 O1A       178.6710  151.8170  222.8800 O.co2     1 TTP700      0.0000 
      3 O2A       180.4890  152.4420  221.3350 O.co2     1 TTP700      0.0000 
      4 O3A       179.2470  154.3090  222.5910 O.3       1 TTP700      0.0000 
      5 PB        177.8770  154.9630  221.9560 P.3       1 TTP700      0.0000 
      6 O1B       177.3650  156.0300  222.8880 O.co2     1 TTP700      0.0000 
      7 O2B       176.8360  153.8850  221.7650 O.co2     1 TTP700      0.0000 
      8 O3B       178.2220  155.6370  220.4980 O.3       1 TTP700      0.0000 
      9 PG        178.5090  154.9770  219.0750 P.3       1 TTP700      0.0000 
     10 O1G       178.3680  156.0230  217.9970 O.co2     1 TTP700      0.0000 
     11 O2G       177.5200  153.8630  218.8340 O.co2     1 TTP700      0.0000 
     12 O3G       179.9110  154.4190  219.0650 O.co2     1 TTP700      0.0000 
     13 O5'       180.9050  152.6260  223.8700 O.3       1 TTP700      0.0000 
     14 C5'       181.4770  151.3730  224.1040 C.3       1 TTP700      0.0000 
     15 C4'       182.9920  151.4610  223.8250 C.3       1 TTP700      0.0000 
     16 O4'       183.5630  152.5570  224.5800 O.3       1 TTP700      0.0000 
     17 C3'       183.6920  150.1940  224.3140 C.3       1 TTP700      0.0000 
     18 O3'       184.8510  149.9120  223.4770 O.3       1 TTP700      0.0000 
     19 C2'       184.1330  150.5710  225.7190 C.3       1 TTP700      0.0000 
     20 C1'       184.4110  152.0600  225.6020 C.3       1 TTP700      0.0000 
     21 N1        184.0360  152.7330  226.8550 N.am      1 TTP700      0.0000 
     22 C2        185.0530  153.3470  227.7480 C.2       1 TTP700      0.0000 
     23 O2        186.1860  153.2770  227.4130 O.2       1 TTP700      0.0000 
     24 N3        184.7810  154.0030  228.9510 N.am      1 TTP700      0.0000 
     25 C4        183.4720  154.0440  229.2650 C.2       1 TTP700      0.0000 
     26 O4        183.1620  154.6120  230.3220 O.2       1 TTP700      0.0000 
     27 C5        182.3570  153.4700  228.4610 C.2       1 TTP700      0.0000 
     28 C5M       180.9140  153.5870  228.9390 C.3       1 TTP700      0.0000 
     29 C6        182.6780  152.8310  227.2800 C.2       1 TTP700      0.0000 
@<TRIPOS>BOND
     1    1    2 ar   
     2    1    3 ar   
     3    1    4 1    
     4    1   13 1    
     5    4    5 1    
     6    5    6 ar   
     7    5    7 ar   
     8    5    8 1    
     9    8    9 1    
    10    9   10 ar   
    11    9   11 ar   
    12    9   12 ar   
    13   13   14 1    
    14   14   15 1    
    15   15   16 1    
    16   15   17 1    
    17   16   20 1    
    18   17   18 1    
    19   17   19 1    
    20   19   20 1    
    21   20   21 1    
    22   21   22 1    
    23   21   29 1    
    24   22   23 2    
    25   22   24 1    
    26   24   25 1    
    27   25   26 2    
    28   25   27 1    
    29   27   28 1    
    30   27   29 2    
@<TRIPOS>SUBSTRUCTURE
     1 TTP700      1 GROUP   
@<TRIPOS>SET

