#    Name: 6n9w_4_TTP_CAVITY_N1_6
#    Modification time : Fri May 22 19:37:48 2020

@<TRIPOS>MOLECULE
6n9w_4_TTP_CAVITY_N1_6
   77     0     6     0     0
SMALL
NO_CHARGES


@<TRIPOS>ATOM
      1 OG        155.0300  169.5800  234.6700 O.3       1 SER1        0.0000 
      2 OG        155.3100  170.0200  236.0700 O.3       1 SER1        0.0000 
      3 OG        154.8600  168.0700  236.7800 O.3       1 SER1        0.0000 
      4 OG        153.6100  167.3800  237.2500 O.3       1 SER1        0.0000 
      5 OG        155.1400  168.5100  238.1800 O.3       1 SER1        0.0000 
      6 OG        154.6900  166.5600  238.8800 O.3       1 SER1        0.0000 
      7 N         154.2800  167.1900  233.9700 N.am      2 ALA2        0.0000 
      8 N         157.0600  169.0200  234.4300 N.am      2 ALA2        0.0000 
      9 N         155.8200  168.3200  234.9000 N.am      2 ALA2        0.0000 
     10 N         154.5700  167.6300  235.3700 N.am      2 ALA2        0.0000 
     11 N         153.3300  166.9400  235.8400 N.am      2 ALA2        0.0000 
     12 N         159.0900  168.4500  234.1900 N.am      2 ALA2        0.0000 
     13 N         157.8500  167.7600  234.6600 N.am      2 ALA2        0.0000 
     14 N         156.5600  170.7100  235.6100 N.am      2 ALA2        0.0000 
     15 N         157.3500  169.4600  235.8400 N.am      2 ALA2        0.0000 
     16 N         159.3800  168.8900  235.6000 N.am      2 ALA2        0.0000 
     17 N         158.1300  168.2000  236.0700 N.am      2 ALA2        0.0000 
     18 N         156.8900  167.5100  236.5400 N.am      2 ALA2        0.0000 
     19 N         155.6400  166.8100  237.0100 N.am      2 ALA2        0.0000 
     20 N         154.4000  166.1200  237.4800 N.am      2 ALA2        0.0000 
     21 N         152.4500  175.4800  236.5500 N.am      2 ALA2        0.0000 
     22 N         154.4800  174.9200  236.3100 N.am      2 ALA2        0.0000 
     23 N         153.2400  174.2200  236.7800 N.am      2 ALA2        0.0000 
     24 N         157.3000  173.1000  236.3100 N.am      2 ALA2        0.0000 
     25 N         158.0900  171.8400  236.5400 N.am      2 ALA2        0.0000 
     26 N         156.8400  171.1500  237.0100 N.am      2 ALA2        0.0000 
     27 N         155.9300  167.2500  238.4100 N.am      2 ALA2        0.0000 
     28 N         156.8000  174.7900  237.4800 N.am      2 ALA2        0.0000 
     29 N         155.5600  174.1000  237.9500 N.am      2 ALA2        0.0000 
     30 N         159.9500  169.7700  238.4100 N.am      2 ALA2        0.0000 
     31 N         157.4600  168.3800  239.3500 N.am      2 ALA2        0.0000 
     32 N         156.2200  167.6900  239.8200 N.am      2 ALA2        0.0000 
     33 N         157.8700  173.9800  239.1200 N.am      2 ALA2        0.0000 
     34 N         158.6600  172.7200  239.3500 N.am      2 ALA2        0.0000 
     35 N         160.6900  172.1600  239.1100 N.am      2 ALA2        0.0000 
     36 O         159.4500  171.4700  239.5800 O.2       2 ALA2        0.0000 
     37 O         158.2000  170.7700  240.0500 O.2       2 ALA2        0.0000 
     38 N         161.4800  170.9000  239.3500 N.am      2 ALA2        0.0000 
     39 N         160.2400  170.2100  239.8200 N.am      2 ALA2        0.0000 
     40 N         157.7500  168.8200  240.7600 N.am      2 ALA2        0.0000 
     41 O         160.5200  170.6500  241.2200 O.2       2 ALA2        0.0000 
     42 OD1       158.8800  170.5900  236.7700 O.co2     3 ASP3        0.0000 
     43 OD1       157.5900  173.5400  237.7100 O.co2     3 ASP3        0.0000 
     44 OD1       158.3800  172.2800  237.9500 O.co2     3 ASP3        0.0000 
     45 OD1       160.4100  171.7200  237.7100 O.co2     3 ASP3        0.0000 
     46 OD1       159.1600  171.0300  238.1800 O.co2     3 ASP3        0.0000 
     47 OD1       159.2800  169.9600  241.6900 O.co2     3 ASP3        0.0000 
     48 CZ        155.6000  170.4600  237.4800 C.ar      4 PHE5        0.0000 
     49 CZ        154.3600  169.7600  237.9500 C.ar      4 PHE5        0.0000 
     50 CZ        154.3100  173.4100  238.4200 C.ar      4 PHE5        0.0000 
     51 CZ        156.3400  172.8400  238.1800 C.ar      4 PHE5        0.0000 
     52 CZ        155.1000  172.1500  238.6500 C.ar      4 PHE5        0.0000 
     53 CZ        157.1300  171.5900  238.4200 C.ar      4 PHE5        0.0000 
     54 CZ        155.8900  170.9000  238.8900 C.ar      4 PHE5        0.0000 
     55 CZ        156.6700  169.6400  239.1200 C.ar      4 PHE5        0.0000 
     56 CZ        156.6300  173.2800  239.5900 C.ar      4 PHE5        0.0000 
     57 CZ        157.4200  172.0300  239.8200 C.ar      4 PHE5        0.0000 
     58 CA        155.2400  167.4400  232.0900 C.3       5 GLY6        0.0000 
     59 CA        156.7700  168.5800  233.0300 C.3       5 GLY6        0.0000 
     60 CA        155.5300  167.8800  233.5000 C.3       5 GLY6        0.0000 
     61 CA        158.8100  168.0100  232.7900 C.3       5 GLY6        0.0000 
     62 CA        157.5600  167.3200  233.2600 C.3       5 GLY6        0.0000 
     63 CA        156.6000  167.0700  235.1300 C.3       5 GLY6        0.0000 
     64 CA        155.2700  173.6600  236.5500 C.3       5 GLY6        0.0000 
     65 CA        154.0300  172.9700  237.0200 C.3       5 GLY6        0.0000 
     66 CA        156.0600  172.4100  236.7800 C.3       5 GLY6        0.0000 
     67 CA        154.8100  171.7100  237.2500 C.3       5 GLY6        0.0000 
     68 CA        157.6300  169.8900  237.2400 C.3       5 GLY6        0.0000 
     69 CA        159.6600  169.3300  237.0100 C.3       5 GLY6        0.0000 
     70 CA        157.1700  167.9500  237.9400 C.3       5 GLY6        0.0000 
     71 CA        154.7700  175.3600  237.7200 C.3       5 GLY6        0.0000 
     72 CA        153.5200  174.6600  238.1900 C.3       5 GLY6        0.0000 
     73 CA        157.9200  170.3300  238.6500 C.3       5 GLY6        0.0000 
     74 CA        155.8400  174.5400  239.3600 C.3       5 GLY6        0.0000 
     75 CA        158.9900  169.5200  240.2900 C.3       5 GLY6        0.0000 
     76 DU        156.1000  168.7600  236.3100 H         6 CUB7        0.0000 
     77 DU        156.3900  169.2000  237.7100 H         6 CUB7        0.0000 
@<TRIPOS>BOND
@<TRIPOS>SUBSTRUCTURE
     1 SER1        1 GROUP   
     2 ALA2        7 GROUP   
     3 ASP3       42 GROUP   
     4 PHE5       48 GROUP   
     5 GLY6       58 GROUP   
     6 CUB7       76 GROUP   
@<TRIPOS>SET

