#    Name: 6n9w_5_TTP_CAVITY_N1_ALL
#    Modification time : Fri May 22 19:37:56 2020

@<TRIPOS>MOLECULE
6n9w_5_TTP_CAVITY_N1_ALL
   78     0     7     0     0
SMALL
NO_CHARGES


@<TRIPOS>ATOM
      1 OG        190.7800  172.1600  108.1200 O.3       1 SER1        0.0000 
      2 OG        192.7700  175.2400  108.3500 O.3       1 SER1        0.0000 
      3 OG        191.5300  174.5500  108.8200 O.3       1 SER1        0.0000 
      4 OG        192.3100  173.2900  109.0500 O.3       1 SER1        0.0000 
      5 OG        191.0700  172.6000  109.5200 O.3       1 SER1        0.0000 
      6 N         184.6900  173.8500  108.8300 N.am      2 ALA2        0.0000 
      7 O         191.5700  170.9100  108.3500 O.2       2 ALA2        0.0000 
      8 O         193.5600  173.9900  108.5800 O.2       2 ALA2        0.0000 
      9 O         193.1000  172.0400  109.2900 O.2       2 ALA2        0.0000 
     10 N         189.7000  166.7500  111.6300 N.am      2 ALA2        0.0000 
     11 O         195.0900  175.1200  109.5200 O.2       2 ALA2        0.0000 
     12 N         194.6300  173.1700  110.2200 N.am      2 ALA2        0.0000 
     13 N         190.4400  169.1400  112.3300 N.am      2 ALA2        0.0000 
     14 N         189.2000  168.4500  112.8000 N.am      2 ALA2        0.0000 
     15 OD1       188.1200  169.2700  111.1700 O.co2     3 ASP3        0.0000 
     16 OD1       188.9100  168.0100  111.4000 O.co2     3 ASP3        0.0000 
     17 OD1       188.4500  166.0600  112.1000 O.co2     3 ASP3        0.0000 
     18 OD1       193.8400  174.4300  109.9900 O.co2     3 ASP3        0.0000 
     19 OD1       187.6200  170.9600  112.3400 O.co2     3 ASP3        0.0000 
     20 OD1       188.4100  169.7100  112.5700 O.co2     3 ASP3        0.0000 
     21 OD1       190.0700  175.9900  111.8700 O.co2     3 ASP3        0.0000 
     22 OD1       193.3400  176.1200  111.1600 O.co2     3 ASP3        0.0000 
     23 OD1       192.1000  175.4300  111.6300 O.co2     3 ASP3        0.0000 
     24 OD1       192.8900  174.1700  111.8700 O.co2     3 ASP3        0.0000 
     25 NZ        186.4300  172.8500  107.1900 N.4       4 LYS4        0.0000 
     26 NZ        185.1900  172.1500  107.6600 N.4       4 LYS4        0.0000 
     27 NZ        186.7200  173.2900  108.5900 N.4       4 LYS4        0.0000 
     28 NZ        187.5100  172.0300  108.8300 N.4       4 LYS4        0.0000 
     29 NZ        186.2600  171.3400  109.3000 N.4       4 LYS4        0.0000 
     30 NZ        188.6200  167.5700  109.9900 N.4       4 LYS4        0.0000 
     31 NZ        186.5500  171.7800  110.7000 N.4       4 LYS4        0.0000 
     32 NZ        188.5800  171.2100  110.4600 N.4       4 LYS4        0.0000 
     33 NZ        187.3400  170.5200  110.9300 N.4       4 LYS4        0.0000 
     34 NZ        189.3700  169.9600  110.7000 N.4       4 LYS4        0.0000 
     35 NZ        192.6000  173.7300  110.4600 N.4       4 LYS4        0.0000 
     36 NZ        191.3600  173.0400  110.9300 N.4       4 LYS4        0.0000 
     37 NZ        193.3900  172.4800  110.6900 N.4       4 LYS4        0.0000 
     38 NZ        192.1400  171.7800  111.1600 N.4       4 LYS4        0.0000 
     39 NZ        190.9000  171.0900  111.6300 N.4       4 LYS4        0.0000 
     40 NZ        191.6400  173.4800  112.3300 N.4       4 LYS4        0.0000 
     41 CZ        184.4000  173.4100  107.4300 C.ar      5 PHE5        0.0000 
     42 CZ        187.9700  173.9800  108.1200 C.ar      5 PHE5        0.0000 
     43 CZ        188.7500  172.7200  108.3600 C.ar      5 PHE5        0.0000 
     44 CZ        187.4600  175.6700  109.3000 C.ar      5 PHE5        0.0000 
     45 CZ        190.7400  175.8100  108.5900 C.ar      5 PHE5        0.0000 
     46 CZ        189.5000  175.1100  109.0600 C.ar      5 PHE5        0.0000 
     47 CZ        188.2500  174.4200  109.5300 C.ar      5 PHE5        0.0000 
     48 CZ        190.2800  173.8600  109.2900 C.ar      5 PHE5        0.0000 
     49 CA        185.6500  174.1000  106.9600 C.3       6 GLY6        0.0000 
     50 CA        185.9300  174.5400  108.3600 C.3       6 GLY6        0.0000 
     51 CA        189.5400  171.4700  108.5900 C.3       6 GLY6        0.0000 
     52 CA        190.3300  170.2100  108.8200 C.3       6 GLY6        0.0000 
     53 CA        189.8700  168.2600  109.5200 C.3       6 GLY6        0.0000 
     54 CA        189.4100  166.3200  110.2300 C.3       6 GLY6        0.0000 
     55 CA        191.8600  171.3500  109.7600 C.3       6 GLY6        0.0000 
     56 CA        190.6100  170.6500  110.2300 C.3       6 GLY6        0.0000 
     57 CA        191.4000  169.4000  110.4600 C.3       6 GLY6        0.0000 
     58 CA        190.1600  168.7000  110.9300 C.3       6 GLY6        0.0000 
     59 CA        190.9400  167.4500  111.1600 C.3       6 GLY6        0.0000 
     60 CA        188.9900  176.8100  110.2300 C.3       6 GLY6        0.0000 
     61 CA        189.7800  175.5500  110.4600 C.3       6 GLY6        0.0000 
     62 CA        188.5400  174.8600  110.9300 C.3       6 GLY6        0.0000 
     63 CA        193.0600  175.6800  109.7600 C.3       6 GLY6        0.0000 
     64 CA        191.8100  174.9900  110.2300 C.3       6 GLY6        0.0000 
     65 CA        189.3200  173.6000  111.1700 C.3       6 GLY6        0.0000 
     66 CA        188.0800  172.9100  111.6400 C.3       6 GLY6        0.0000 
     67 CA        190.1100  172.3500  111.4000 C.3       6 GLY6        0.0000 
     68 CA        188.8700  171.6500  111.8700 C.3       6 GLY6        0.0000 
     69 CA        189.6500  170.4000  112.1000 C.3       6 GLY6        0.0000 
     70 CA        190.8500  174.7400  112.1000 C.3       6 GLY6        0.0000 
     71 CA        189.9400  170.8400  113.5100 C.3       6 GLY6        0.0000 
     72 DU        186.2200  174.9800  109.7700 H         7 CUB7        0.0000 
     73 DU        187.0100  173.7300  110.0000 H         7 CUB7        0.0000 
     74 DU        185.7600  173.0300  110.4700 H         7 CUB7        0.0000 
     75 DU        189.0400  173.1600  109.7600 H         7 CUB7        0.0000 
     76 DU        187.7900  172.4700  110.2300 H         7 CUB7        0.0000 
     77 DU        189.8300  171.9100  109.9900 H         7 CUB7        0.0000 
     78 DU        190.5700  174.3000  110.7000 H         7 CUB7        0.0000 
@<TRIPOS>BOND
@<TRIPOS>SUBSTRUCTURE
     1 SER1        1 GROUP   
     2 ALA2        6 GROUP   
     3 ASP3       15 GROUP   
     4 LYS4       25 GROUP   
     5 PHE5       41 GROUP   
     6 GLY6       49 GROUP   
     7 CUB7       72 GROUP   
@<TRIPOS>SET

