#    Name: 6n9w_5_TTP
#    Modification time : Fri May 22 19:37:55 2020

@<TRIPOS>MOLECULE
6n9w_5_TTP
   29    30     1     0     0
SMALL
NO_CHARGES


@<TRIPOS>ATOM
      1 PA        191.8670  174.9340  111.9390 P.3       1 TTP801      0.0000 
      2 O1A       191.3340  176.1750  112.6150 O.co2     1 TTP801      0.0000 
      3 O2A       192.6950  174.1420  112.9220 O.co2     1 TTP801      0.0000 
      4 O3A       192.8050  175.3680  110.6550 O.3       1 TTP801      0.0000 
      5 PB        194.1830  174.7310  110.0140 P.3       1 TTP801      0.0000 
      6 O1B       193.9680  174.4400  108.5480 O.co2     1 TTP801      0.0000 
      7 O2B       194.5270  173.4500  110.7360 O.co2     1 TTP801      0.0000 
      8 O3B       195.4200  175.8070  110.1860 O.3       1 TTP801      0.0000 
      9 PG        196.3750  176.1740  111.4160 P.3       1 TTP801      0.0000 
     10 O1G       196.5810  174.9490  112.2750 O.co2     1 TTP801      0.0000 
     11 O2G       197.7080  176.6530  110.8930 O.co2     1 TTP801      0.0000 
     12 O3G       195.7360  177.2650  112.2410 O.co2     1 TTP801      0.0000 
     13 O5'       190.6070  174.0100  111.4130 O.3       1 TTP801      0.0000 
     14 C5'       190.3600  172.7940  112.0590 C.3       1 TTP801      0.0000 
     15 C4'       189.7290  171.7970  111.0610 C.3       1 TTP801      0.0000 
     16 O4'       188.2920  171.9870  111.0080 O.3       1 TTP801      0.0000 
     17 C3'       190.2460  172.0680  109.6460 C.3       1 TTP801      0.0000 
     18 O3'       190.2790  170.8260  108.8800 O.3       1 TTP801      0.0000 
     19 C2'       189.1930  173.0030  109.0780 C.3       1 TTP801      0.0000 
     20 C1'       187.9170  172.5170  109.7440 C.3       1 TTP801      0.0000 
     21 N1        187.0080  173.6510  109.9840 N.am      1 TTP801      0.0000 
     22 C2        185.5800  173.6100  109.5710 C.2       1 TTP801      0.0000 
     23 O2        185.1940  172.6250  109.0380 O.2       1 TTP801      0.0000 
     24 N3        184.6560  174.6420  109.7620 N.am      1 TTP801      0.0000 
     25 C4        185.1700  175.7290  110.3750 C.2       1 TTP801      0.0000 
     26 O4        184.3980  176.6790  110.5720 O.2       1 TTP801      0.0000 
     27 C5        186.5790  175.8950  110.8360 C.2       1 TTP801      0.0000 
     28 C5M       187.0400  177.1810  111.5200 C.3       1 TTP801      0.0000 
     29 C6        187.4520  174.8460  110.6230 C.2       1 TTP801      0.0000 
@<TRIPOS>BOND
     1    1    2 ar   
     2    1    3 ar   
     3    1    4 1    
     4    1   13 1    
     5    4    5 1    
     6    5    6 ar   
     7    5    7 ar   
     8    5    8 1    
     9    8    9 1    
    10    9   10 ar   
    11    9   11 ar   
    12    9   12 ar   
    13   13   14 1    
    14   14   15 1    
    15   15   16 1    
    16   15   17 1    
    17   16   20 1    
    18   17   18 1    
    19   17   19 1    
    20   19   20 1    
    21   20   21 1    
    22   21   22 1    
    23   21   29 1    
    24   22   23 2    
    25   22   24 1    
    26   24   25 1    
    27   25   26 2    
    28   25   27 1    
    29   27   28 1    
    30   27   29 2    
@<TRIPOS>SUBSTRUCTURE
     1 TTP801      1 GROUP   
@<TRIPOS>SET

