#    Name: 6n9w_2_TTP_CAVITY_N1_6
#    Modification time : Fri May 22 19:37:35 2020

@<TRIPOS>MOLECULE
6n9w_2_TTP_CAVITY_N1_6
  131     0     7     0     0
SMALL
NO_CHARGES


@<TRIPOS>ATOM
      1 OG        203.3700  162.9500  199.6900 O.3       1 SER1        0.0000 
      2 OG        202.1300  162.2500  200.1600 O.3       1 SER1        0.0000 
      3 OG        205.4000  162.3800  199.4500 O.3       1 SER1        0.0000 
      4 OG        201.6300  163.9500  201.3300 O.3       1 SER1        0.0000 
      5 OG        203.6600  163.3900  201.1000 O.3       1 SER1        0.0000 
      6 OG        206.9300  163.5200  200.3900 O.3       1 SER1        0.0000 
      7 OG        205.6900  162.8200  200.8600 O.3       1 SER1        0.0000 
      8 OG        206.4800  161.5700  201.0900 O.3       1 SER1        0.0000 
      9 OG        203.9400  163.8200  202.5000 O.3       1 SER1        0.0000 
     10 OG        208.4600  164.6500  201.3200 O.3       1 SER1        0.0000 
     11 OG        207.2200  163.9600  201.7900 O.3       1 SER1        0.0000 
     12 OG        205.9700  163.2600  202.2600 O.3       1 SER1        0.0000 
     13 OG        208.7500  165.0900  202.7300 O.3       1 SER1        0.0000 
     14 OG        207.5000  164.3900  203.2000 O.3       1 SER1        0.0000 
     15 OG        206.2600  163.7000  203.6700 O.3       1 SER1        0.0000 
     16 OG        205.0200  163.0100  204.1400 O.3       1 SER1        0.0000 
     17 OG        208.7800  171.3100  207.1800 O.3       1 SER1        0.0000 
     18 N         203.5400  164.4600  197.5800 N.am      2 ALA2        0.0000 
     19 O         201.0500  163.0700  198.5200 O.2       2 ALA2        0.0000 
     20 N         205.5700  163.8900  197.3500 N.am      2 ALA2        0.0000 
     21 N         204.3300  163.2000  197.8200 N.am      2 ALA2        0.0000 
     22 O         206.3600  162.6400  197.5800 O.2       2 ALA2        0.0000 
     23 N         202.5800  164.2000  199.4600 N.am      2 ALA2        0.0000 
     24 N         205.8600  164.3300  198.7500 N.am      2 ALA2        0.0000 
     25 N         204.6200  163.6400  199.2200 N.am      2 ALA2        0.0000 
     26 O         206.6500  163.0800  198.9800 O.2       2 ALA2        0.0000 
     27 N         202.0800  165.9000  200.6300 N.am      2 ALA2        0.0000 
     28 N         202.8700  164.6400  200.8600 N.am      2 ALA2        0.0000 
     29 N         206.1500  164.7700  200.1600 N.am      2 ALA2        0.0000 
     30 N         204.9000  164.0800  200.6300 N.am      2 ALA2        0.0000 
     31 N         203.6100  167.0300  201.5700 N.am      2 ALA2        0.0000 
     32 N         202.3700  166.3400  202.0400 N.am      2 ALA2        0.0000 
     33 N         205.6400  166.4700  201.3300 N.am      2 ALA2        0.0000 
     34 N         204.4000  165.7700  201.8000 N.am      2 ALA2        0.0000 
     35 N         207.6800  165.9000  201.0900 N.am      2 ALA2        0.0000 
     36 N         206.4300  165.2100  201.5600 N.am      2 ALA2        0.0000 
     37 N         203.9000  167.4700  202.9700 N.am      2 ALA2        0.0000 
     38 N         204.6900  166.2100  203.2000 N.am      2 ALA2        0.0000 
     39 O         203.4400  165.5200  203.6700 O.2       2 ALA2        0.0000 
     40 N         207.9600  166.3400  202.5000 N.am      2 ALA2        0.0000 
     41 O         203.7300  165.9600  205.0800 O.2       2 ALA2        0.0000 
     42 N         203.6000  160.8100  206.7200 N.am      2 ALA2        0.0000 
     43 N         209.7800  167.9200  204.8400 N.am      2 ALA2        0.0000 
     44 N         208.5300  167.2200  205.3100 N.am      2 ALA2        0.0000 
     45 N         204.3400  163.1900  207.4200 N.am      2 ALA2        0.0000 
     46 N         203.1000  162.5000  207.8900 N.am      2 ALA2        0.0000 
     47 N         201.8500  161.8100  208.3600 N.am      2 ALA2        0.0000 
     48 N         202.6400  160.5500  208.5900 N.am      2 ALA2        0.0000 
     49 N         208.0300  168.9200  206.4800 N.am      2 ALA2        0.0000 
     50 N         210.0600  168.3500  206.2400 N.am      2 ALA2        0.0000 
     51 N         208.8200  167.6600  206.7100 N.am      2 ALA2        0.0000 
     52 O         210.8500  167.1000  206.4800 O.2       2 ALA2        0.0000 
     53 O         208.3600  165.7100  207.4200 O.2       2 ALA2        0.0000 
     54 N         203.3800  162.9400  209.3000 N.am      2 ALA2        0.0000 
     55 O         210.0200  172.0000  206.7100 O.2       2 ALA2        0.0000 
     56 N         210.8100  170.7400  206.9500 N.am      2 ALA2        0.0000 
     57 N         209.5600  170.0500  207.4200 N.am      2 ALA2        0.0000 
     58 N         209.1100  168.1000  208.1200 N.am      2 ALA2        0.0000 
     59 N         212.3800  168.2300  207.4100 N.am      2 ALA2        0.0000 
     60 OD1       203.2600  164.0200  196.1800 O.co2     3 ASP3        0.0000 
     61 OD1       204.0400  162.7600  196.4100 O.co2     3 ASP3        0.0000 
     62 OD1       202.8000  162.0700  196.8800 O.co2     3 ASP3        0.0000 
     63 OD1       201.5500  161.3700  197.3500 O.co2     3 ASP3        0.0000 
     64 OD1       203.0800  162.5100  198.2900 O.co2     3 ASP3        0.0000 
     65 OD1       201.8400  161.8100  198.7500 O.co2     3 ASP3        0.0000 
     66 OD1       200.5500  164.7600  199.7000 O.co2     3 ASP3        0.0000 
     67 OD1       201.3400  163.5100  199.9300 O.co2     3 ASP3        0.0000 
     68 OD1       204.1600  161.6900  199.9200 O.co2     3 ASP3        0.0000 
     69 OD1       207.4300  161.8200  199.2200 O.co2     3 ASP3        0.0000 
     70 OD1       206.9800  159.8700  199.9200 O.co2     3 ASP3        0.0000 
     71 OD1       205.7300  159.1800  200.3900 O.co2     3 ASP3        0.0000 
     72 OD1       200.8400  165.2000  201.1000 O.co2     3 ASP3        0.0000 
     73 OD1       207.2600  160.3100  201.3200 O.co2     3 ASP3        0.0000 
     74 OD1       204.9700  166.6500  204.6100 O.co2     3 ASP3        0.0000 
     75 OD1       205.7600  165.4000  204.8400 O.co2     3 ASP3        0.0000 
     76 OD1       207.2900  166.5300  205.7800 O.co2     3 ASP3        0.0000 
     77 OD1       206.0400  165.8400  206.2500 O.co2     3 ASP3        0.0000 
     78 OD1       204.8000  165.1400  206.7200 O.co2     3 ASP3        0.0000 
     79 OD1       207.5800  166.9700  207.1800 O.co2     3 ASP3        0.0000 
     80 OD1       212.1000  167.7900  206.0100 O.co2     3 ASP3        0.0000 
     81 OD1       207.1200  165.0200  207.8900 O.co2     3 ASP3        0.0000 
     82 OD1       205.8700  164.3300  208.3600 O.co2     3 ASP3        0.0000 
     83 OD1       204.6300  163.6300  208.8300 O.co2     3 ASP3        0.0000 
     84 OD1       208.3200  169.3600  207.8900 O.co2     3 ASP3        0.0000 
     85 NZ        202.5100  161.6300  195.4700 N.4       4 LYS4        0.0000 
     86 NZ        202.0100  163.3200  196.6500 N.4       4 LYS4        0.0000 
     87 NZ        204.8300  161.5100  196.6400 N.4       4 LYS4        0.0000 
     88 NZ        205.1200  161.9400  198.0500 N.4       4 LYS4        0.0000 
     89 NZ        207.1500  161.3800  197.8100 N.4       4 LYS4        0.0000 
     90 NZ        206.1900  161.1300  199.6900 N.4       4 LYS4        0.0000 
     91 NZ        211.3100  169.0500  205.7700 N.4       4 LYS4        0.0000 
     92 NZ        212.0500  171.4400  206.4800 N.4       4 LYS4        0.0000 
     93 NZ        212.8400  170.1800  206.7100 N.4       4 LYS4        0.0000 
     94 CZ        209.0400  165.5300  204.1400 C.ar      5 PHE5        0.0000 
     95 CZ        207.7900  164.8300  204.6000 C.ar      5 PHE5        0.0000 
     96 CZ        206.5500  164.1400  205.0700 C.ar      5 PHE5        0.0000 
     97 CZ        205.3000  163.4500  205.5400 C.ar      5 PHE5        0.0000 
     98 CZ        204.8400  161.5000  206.2500 C.ar      5 PHE5        0.0000 
     99 CZ        209.3200  165.9700  205.5400 C.ar      5 PHE5        0.0000 
    100 CZ        208.0800  165.2700  206.0100 C.ar      5 PHE5        0.0000 
    101 CZ        206.8300  164.5800  206.4800 C.ar      5 PHE5        0.0000 
    102 CZ        205.5900  163.8900  206.9500 C.ar      5 PHE5        0.0000 
    103 CZ        205.1300  161.9400  207.6500 C.ar      5 PHE5        0.0000 
    104 CA        202.3000  163.7600  198.0500 C.3       6 GLY6        0.0000 
    105 CA        200.3800  163.2500  201.8000 C.3       6 GLY6        0.0000 
    106 CA        201.5800  167.5900  201.8000 C.3       6 GLY6        0.0000 
    107 CA        203.1600  165.0800  202.2700 C.3       6 GLY6        0.0000 
    108 CA        201.9100  164.3900  202.7400 C.3       6 GLY6        0.0000 
    109 CA        205.9300  166.9100  202.7300 C.3       6 GLY6        0.0000 
    110 CA        206.7200  165.6500  202.9700 C.3       6 GLY6        0.0000 
    111 CA        204.2300  164.2600  203.9100 C.3       6 GLY6        0.0000 
    112 CA        206.2200  167.3500  204.1400 C.3       6 GLY6        0.0000 
    113 CA        209.4900  167.4800  203.4300 C.3       6 GLY6        0.0000 
    114 CA        208.2500  166.7800  203.9000 C.3       6 GLY6        0.0000 
    115 CA        204.5100  164.7000  205.3100 C.3       6 GLY6        0.0000 
    116 CA        210.2800  166.2200  203.6700 C.3       6 GLY6        0.0000 
    117 CA        204.0600  162.7500  206.0100 C.3       6 GLY6        0.0000 
    118 CA        210.5700  166.6600  205.0700 C.3       6 GLY6        0.0000 
    119 CA        203.8900  161.2500  208.1200 C.3       6 GLY6        0.0000 
    120 CA        201.4000  159.8600  209.0600 C.3       6 GLY6        0.0000 
    121 CA        203.4300  159.3000  208.8200 C.3       6 GLY6        0.0000 
    122 CA        202.1400  162.2500  209.7700 C.3       6 GLY6        0.0000 
    123 CA        205.4200  162.3800  209.0600 C.3       6 GLY6        0.0000 
    124 CA        204.1700  161.6800  209.5300 C.3       6 GLY6        0.0000 
    125 CA        202.9300  160.9900  210.0000 C.3       6 GLY6        0.0000 
    126 CA        211.5900  169.4900  207.1800 C.3       6 GLY6        0.0000 
    127 CA        210.3500  168.7900  207.6500 C.3       6 GLY6        0.0000 
    128 CA        211.0900  171.1800  208.3500 C.3       6 GLY6        0.0000 
    129 DU        205.1900  164.5200  202.0300 H         7 CUB7        0.0000 
    130 DU        205.4700  164.9600  203.4400 H         7 CUB7        0.0000 
    131 DU        207.0000  166.0900  204.3700 H         7 CUB7        0.0000 
@<TRIPOS>BOND
@<TRIPOS>SUBSTRUCTURE
     1 SER1        1 GROUP   
     2 ALA2       18 GROUP   
     3 ASP3       60 GROUP   
     4 LYS4       85 GROUP   
     5 PHE5       94 GROUP   
     6 GLY6      104 GROUP   
     7 CUB7      129 GROUP   
@<TRIPOS>SET

