#    Name: 6n9w_1_TTP
#    Modification time : Fri May 22 19:37:26 2020

@<TRIPOS>MOLECULE
6n9w_1_TTP
   29    30     1     0     0
SMALL
NO_CHARGES


@<TRIPOS>ATOM
      1 PA        202.0150  195.6940  193.3800 P.3       1 TTP700      0.0000 
      2 O1A       203.2530  194.8790  193.0890 O.co2     1 TTP700      0.0000 
      3 O2A       201.0210  195.5140  192.2580 O.co2     1 TTP700      0.0000 
      4 O3A       201.3320  195.1740  194.7840 O.3       1 TTP700      0.0000 
      5 PB        200.5540  193.7740  195.1560 P.3       1 TTP700      0.0000 
      6 O1B       200.4570  192.9240  193.9120 O.co2     1 TTP700      0.0000 
      7 O2B       201.3230  193.0360  196.2230 O.co2     1 TTP700      0.0000 
      8 O3B       199.0430  194.1120  195.7050 O.3       1 TTP700      0.0000 
      9 PG        197.8760  195.0220  195.1080 P.3       1 TTP700      0.0000 
     10 O1G       198.1300  195.2360  193.6370 O.co2     1 TTP700      0.0000 
     11 O2G       197.8570  196.3500  195.8210 O.co2     1 TTP700      0.0000 
     12 O3G       196.5480  194.3300  195.2940 O.co2     1 TTP700      0.0000 
     13 O5'       202.4170  197.2860  193.5130 O.3       1 TTP700      0.0000 
     14 C5'       202.9960  197.7370  194.7040 C.3       1 TTP700      0.0000 
     15 C4'       204.2270  198.6040  194.3700 C.3       1 TTP700      0.0000 
     16 O4'       205.1010  198.7080  195.5090 O.3       1 TTP700      0.0000 
     17 C3'       205.1040  197.8890  193.3520 C.3       1 TTP700      0.0000 
     18 O3'       204.6380  198.1920  192.0040 O.3       1 TTP700      0.0000 
     19 C2'       206.4760  198.5140  193.5850 C.3       1 TTP700      0.0000 
     20 C1'       206.3990  199.0190  195.0260 C.3       1 TTP700      0.0000 
     21 N1        207.3780  198.3220  195.8740 N.am      1 TTP700      0.0000 
     22 C2        208.3800  199.0690  196.6780 C.2       1 TTP700      0.0000 
     23 O2        208.3610  200.2510  196.6080 O.2       1 TTP700      0.0000 
     24 N3        209.3410  198.4900  197.5090 N.am      1 TTP700      0.0000 
     25 C4        209.2980  197.1430  197.5370 C.2       1 TTP700      0.0000 
     26 O4        210.1280  196.5690  198.2540 O.2       1 TTP700      0.0000 
     27 C5        208.3490  196.2780  196.7810 C.2       1 TTP700      0.0000 
     28 C5M       208.4050  194.7570  196.8980 C.3       1 TTP700      0.0000 
     29 C6        207.4190  196.9010  195.9740 C.2       1 TTP700      0.0000 
@<TRIPOS>BOND
     1    1    2 ar   
     2    1    3 ar   
     3    1    4 1    
     4    1   13 1    
     5    4    5 1    
     6    5    6 ar   
     7    5    7 ar   
     8    5    8 1    
     9    8    9 1    
    10    9   10 ar   
    11    9   11 ar   
    12    9   12 ar   
    13   13   14 1    
    14   14   15 1    
    15   15   16 1    
    16   15   17 1    
    17   16   20 1    
    18   17   18 1    
    19   17   19 1    
    20   19   20 1    
    21   20   21 1    
    22   21   22 1    
    23   21   29 1    
    24   22   23 2    
    25   22   24 1    
    26   24   25 1    
    27   25   26 2    
    28   25   27 1    
    29   27   28 1    
    30   27   29 2    
@<TRIPOS>SUBSTRUCTURE
     1 TTP700      1 GROUP   
@<TRIPOS>SET

