#    Name: 6n9w_2_TTP
#    Modification time : Fri May 22 19:37:34 2020

@<TRIPOS>MOLECULE
6n9w_2_TTP
   29    30     1     0     0
SMALL
NO_CHARGES


@<TRIPOS>ATOM
      1 PA        201.6380  164.2160  201.7100 P.3       1 TTP700      0.0000 
      2 O1A       201.1900  162.9040  202.3060 O.co2     1 TTP700      0.0000 
      3 O2A       201.4780  164.1720  200.2110 O.co2     1 TTP700      0.0000 
      4 O3A       200.7160  165.4280  202.3240 O.3       1 TTP700      0.0000 
      5 PB        199.1110  165.4800  202.6610 P.3       1 TTP700      0.0000 
      6 O1B       198.5040  164.1550  202.2740 O.co2     1 TTP700      0.0000 
      7 O2B       198.9110  165.7310  204.1350 O.co2     1 TTP700      0.0000 
      8 O3B       198.3970  166.6760  201.7900 O.3       1 TTP700      0.0000 
      9 PG        196.8930  166.8700  201.2870 P.3       1 TTP700      0.0000 
     10 O1G       196.5100  165.7070  200.4060 O.co2     1 TTP700      0.0000 
     11 O2G       196.7900  168.1550  200.5040 O.co2     1 TTP700      0.0000 
     12 O3G       195.9680  166.9230  202.4770 O.co2     1 TTP700      0.0000 
     13 O5'       203.2120  164.4900  202.0970 O.3       1 TTP700      0.0000 
     14 C5'       203.5330  165.6930  202.7330 C.3       1 TTP700      0.0000 
     15 C4'       204.8430  166.2660  202.1480 C.3       1 TTP700      0.0000 
     16 O4'       205.6820  166.7660  203.2200 O.3       1 TTP700      0.0000 
     17 C3'       205.6630  165.1680  201.4700 C.3       1 TTP700      0.0000 
     18 O3'       206.5090  165.7470  200.4330 O.3       1 TTP700      0.0000 
     19 C2'       206.5220  164.6480  202.6050 C.3       1 TTP700      0.0000 
     20 C1'       206.7900  165.9000  203.4220 C.3       1 TTP700      0.0000 
     21 N1        206.8370  165.5610  204.8510 N.am      1 TTP700      0.0000 
     22 C2        207.9590  165.9990  205.7220 C.2       1 TTP700      0.0000 
     23 O2        208.8220  166.6370  205.2210 O.2       1 TTP700      0.0000 
     24 N3        208.0750  165.7190  207.0840 N.am      1 TTP700      0.0000 
     25 C4        207.0550  164.9910  207.5800 C.2       1 TTP700      0.0000 
     26 O4        207.1030  164.7110  208.7840 O.2       1 TTP700      0.0000 
     27 C5        205.8770  164.4920  206.8160 C.2       1 TTP700      0.0000 
     28 C5M       204.7830  163.6740  207.4950 C.3       1 TTP700      0.0000 
     29 C6        205.8090  164.7960  205.4720 C.2       1 TTP700      0.0000 
@<TRIPOS>BOND
     1    1    2 ar   
     2    1    3 ar   
     3    1    4 1    
     4    1   13 1    
     5    4    5 1    
     6    5    6 ar   
     7    5    7 ar   
     8    5    8 1    
     9    8    9 1    
    10    9   10 ar   
    11    9   11 ar   
    12    9   12 ar   
    13   13   14 1    
    14   14   15 1    
    15   15   16 1    
    16   15   17 1    
    17   16   20 1    
    18   17   18 1    
    19   17   19 1    
    20   19   20 1    
    21   20   21 1    
    22   21   22 1    
    23   21   29 1    
    24   22   23 2    
    25   22   24 1    
    26   24   25 1    
    27   25   26 2    
    28   25   27 1    
    29   27   28 1    
    30   27   29 2    
@<TRIPOS>SUBSTRUCTURE
     1 TTP700      1 GROUP   
@<TRIPOS>SET

