#    Name: 6hgg_1_HCY
#    Modification time : Fri May 22 19:37:46 2020

@<TRIPOS>MOLECULE
6hgg_1_HCY
   26    29     1     0     0
SMALL
NO_CHARGES


@<TRIPOS>ATOM
      1 C1         -5.1580   21.6460   86.8110 C.3       1 HCY401      0.0000 
      2 C2         -5.2940   21.4490   88.3380 C.3       1 HCY401      0.0000 
      3 C3         -4.0370   20.8240   88.8670 C.2       1 HCY401      0.0000 
      4 C4         -2.7760   21.3400   88.3100 C.2       1 HCY401      0.0000 
      5 C5         -2.6660   21.8240   87.0720 C.2       1 HCY401      0.0000 
      6 C6         -1.3350   22.3150   86.6200 C.3       1 HCY401      0.0000 
      7 C7         -1.0650   22.1880   85.1410 C.3       1 HCY401      0.0000 
      8 C8         -2.2530   22.5690   84.3130 C.3       1 HCY401      0.0000 
      9 C9         -3.5660   21.9360   84.8050 C.3       1 HCY401      0.0000 
     10 C10        -3.8470   22.3090   86.3170 C.3       1 HCY401      0.0000 
     11 C12        -4.4080   21.8360   82.3410 C.3       1 HCY401      0.0000 
     12 C11        -4.7700   22.1610   83.8510 C.3       1 HCY401      0.0000 
     13 C13        -3.0710   22.4260   81.9140 C.3       1 HCY401      0.0000 
     14 C14        -1.9900   22.0380   82.9130 C.3       1 HCY401      0.0000 
     15 C15        -0.7050   22.5450   82.2380 C.3       1 HCY401      0.0000 
     16 C16        -0.9000   22.1430   80.7340 C.3       1 HCY401      0.0000 
     17 C17        -2.4150   21.8510   80.5540 C.3       1 HCY401      0.0000 
     18 C18        -3.1790   23.9670   81.7420 C.3       1 HCY401      0.0000 
     19 C19        -3.9460   23.8670   86.5690 C.3       1 HCY401      0.0000 
     20 C20        -3.0410   22.5130   79.3400 C.2       1 HCY401      0.0000 
     21 C21        -4.2970   21.8500   78.7770 C.3       1 HCY401      0.0000 
     22 O1         -4.0630   19.9170   89.6980 O.2       1 HCY401      0.0000 
     23 O2         -5.2740   23.4340   83.9770 O.3       1 HCY401      0.0000 
     24 O3         -2.6450   20.4990   80.4340 O.3       1 HCY401      0.0000 
     25 O4         -2.5850   23.5010   78.8160 O.2       1 HCY401      0.0000 
     26 O5         -4.0550   21.7410   77.3880 O.3       1 HCY401      0.0000 
@<TRIPOS>BOND
     1    1    2 1    
     2    1   10 1    
     3    2    3 1    
     4    3    4 1    
     5    3   22 2    
     6    4    5 2    
     7    5    6 1    
     8    5   10 1    
     9    6    7 1    
    10    7    8 1    
    11    8    9 1    
    12    8   14 1    
    13    9   10 1    
    14    9   12 1    
    15   10   19 1    
    16   11   12 1    
    17   11   13 1    
    18   12   23 1    
    19   13   14 1    
    20   13   17 1    
    21   13   18 1    
    22   14   15 1    
    23   15   16 1    
    24   16   17 1    
    25   17   20 1    
    26   17   24 1    
    27   20   21 1    
    28   20   25 2    
    29   21   26 1    
@<TRIPOS>SUBSTRUCTURE
     1 HCY401      1 GROUP   
@<TRIPOS>SET

