#    Name: 5obv_1_ADP
#    Modification time : Fri May 22 19:16:59 2020

@<TRIPOS>MOLECULE
5obv_1_ADP
   27    29     1     0     1
SMALL
NO_CHARGES


@<TRIPOS>ATOM
      1 PB         34.5550  129.8530   57.8280 P.3       1 ADP601      0.0000 
      2 O1B        34.6110  131.2030   57.1680 O.co2     1 ADP601      0.0000 
      3 O2B        34.7880  129.9100   59.3240 O.co2     1 ADP601      0.0000 
      4 O3B        33.3880  128.9890   57.4010 O.co2     1 ADP601      0.0000 
      5 PA         36.7180  127.9160   57.7140 P.3       1 ADP601      0.0000 
      6 O1A        35.9650  126.6120   57.6690 O.co2     1 ADP601      0.0000 
      7 O2A        37.3340  128.4210   58.9800 O.co2     1 ADP601      0.0000 
      8 O3A        35.8100  129.1190   57.1280 O.3       1 ADP601      0.0000 
      9 O5'        37.8670  127.7210   56.5960 O.3       1 ADP601      0.0000 
     10 C5'        38.0500  128.7730   55.6530 C.3       1 ADP601      0.0000 
     11 C4'        39.3210  128.7440   54.8240 C.3       1 ADP601      0.0000 
     12 O4'        40.2880  127.8670   55.3790 O.3       1 ADP601      0.0000 
     13 C3'        39.1380  128.3050   53.3760 C.3       1 ADP601      0.0000 
     14 O3'        39.2730  129.4410   52.5330 O.3       1 ADP601      0.0000 
     15 C2'        40.2450  127.3000   53.1180 C.3       1 ADP601      0.0000 
     16 O2'        40.8930  127.5070   51.8580 O.3       1 ADP601      0.0000 
     17 C1'        41.1600  127.5640   54.2980 C.3       1 ADP601      0.0000 
     18 N9         42.0460  126.4520   54.6890 N.pl3     1 ADP601      0.0000 
     19 C8         41.7070  125.2680   55.2300 C.2       1 ADP601      0.0000 
     20 N7         42.8180  124.5220   55.4730 N.2       1 ADP601      0.0000 
     21 C5         43.8800  125.2540   55.0880 C.ar      1 ADP601      0.0000 
     22 C6         45.3450  125.0900   55.0500 C.ar      1 ADP601      0.0000 
     23 N6         45.9330  123.9560   55.4940 N.pl3     1 ADP601      0.0000 
     24 N1         46.0790  126.1190   54.5660 N.ar      1 ADP601      0.0000 
     25 C2         45.5270  127.2680   54.1180 C.ar      1 ADP601      0.0000 
     26 N3         44.2080  127.4850   54.1190 N.ar      1 ADP601      0.0000 
     27 C4         43.3610  126.5280   54.5780 C.ar      1 ADP601      0.0000 
@<TRIPOS>BOND
     1    1    2 ar   
     2    1    3 ar   
     3    1    4 ar   
     4    1    8 1    
     5    5    6 ar   
     6    5    7 ar   
     7    5    8 1    
     8    5    9 1    
     9    9   10 1    
    10   10   11 1    
    11   11   12 1    
    12   11   13 1    
    13   12   17 1    
    14   13   14 1    
    15   13   15 1    
    16   15   16 1    
    17   15   17 1    
    18   17   18 1    
    19   18   19 1    
    20   18   27 1    
    21   19   20 2    
    22   20   21 1    
    23   21   22 ar   
    24   21   27 ar   
    25   22   23 1    
    26   22   24 ar   
    27   24   25 ar   
    28   25   26 ar   
    29   26   27 ar   
@<TRIPOS>SUBSTRUCTURE
     1 ADP601      1 GROUP   
@<TRIPOS>SET
ATOM$ORANGE STATIC     ATOMS   COLORGROUP SYSTEM 
20 10 10 11 11 13 13 15 15 17 17 19 19 21 21 22 22 25 \
25 27 27 

