#    Name: 6shq_2_AMP
#    Modification time : Fri May 22 19:37:56 2020

@<TRIPOS>MOLECULE
6shq_2_AMP
   35    37     1     0     1
SMALL
NO_CHARGES


@<TRIPOS>ATOM
      1 P         118.4720   97.9920  122.5040 P.3       1 AMP501      0.0000 
      2 O1P       118.1560   98.7760  121.2550 O.co2     1 AMP501      0.0000 
      3 O2P       119.7240   97.1780  122.4000 O.co2     1 AMP501      0.0000 
      4 O3P       117.3300   97.2320  123.1310 O.co2     1 AMP501      0.0000 
      5 O5'       118.7960   99.0970  123.5930 O.3       1 AMP501      0.0000 
      6 C5'       119.2560   98.7260  124.8940 C.3       1 AMP501      0.0000 
      7 C4'       119.8950   99.9200  125.5570 C.3       1 AMP501      0.0000 
      8 O4'       121.0620  100.3360  124.8180 O.3       1 AMP501      0.0000 
      9 C3'       118.9800  101.1500  125.6770 C.3       1 AMP501      0.0000 
     10 O3'       119.2110  101.7940  126.9200 O.3       1 AMP501      0.0000 
     11 C2'       119.4860  102.0040  124.5030 C.3       1 AMP501      0.0000 
     12 O2'       119.2130  103.3960  124.6200 O.3       1 AMP501      0.0000 
     13 C1'       120.9710  101.7070  124.5680 C.3       1 AMP501      0.0000 
     14 N9        121.6730  101.9730  123.2960 N.pl3     1 AMP501      0.0000 
     15 C8        121.2260  101.9110  122.0180 C.2       1 AMP501      0.0000 
     16 N7        122.2420  102.2110  121.1610 N.2       1 AMP501      0.0000 
     17 C5        123.3320  102.5050  121.8950 C.ar      1 AMP501      0.0000 
     18 C6        124.7260  102.9210  121.6490 C.ar      1 AMP501      0.0000 
     19 N6        125.1820  103.0970  120.3940 N.pl3     1 AMP501      0.0000 
     20 N1        125.5220  103.1170  122.7200 N.ar      1 AMP501      0.0000 
     21 C2        125.0900  102.9480  123.9830 C.ar      1 AMP501      0.0000 
     22 N3        123.8370  102.5710  124.2760 N.ar      1 AMP501      0.0000 
     23 C4        122.9380  102.3410  123.2930 C.ar      1 AMP501      0.0000 
     24 H5'1      120.0000   97.9350  124.7890 H         1 AMP501      0.0000 
     25 H5'2      118.4270   98.3490  125.4860 H         1 AMP501      0.0000 
     26 H4'       120.1710   99.6160  126.5650 H         1 AMP501      0.0000 
     27 H3'       117.9340  100.8670  125.5310 H         1 AMP501      0.0000 
     28 HO3'      118.8510  102.6890  126.9100 H         1 AMP501      0.0000 
     29 H2'       119.0290  101.6080  123.5950 H         1 AMP501      0.0000 
     30 HO2'      118.5710  103.6460  123.9420 H         1 AMP501      0.0000 
     31 H1'       121.4330  102.2970  125.3600 H         1 AMP501      0.0000 
     32 H8        120.2350  101.6090  121.7110 H         1 AMP501      0.0000 
     33 HN61      124.5650  102.9490  119.6110 H         1 AMP501      0.0000 
     34 HN62      126.1380  103.3840  120.2420 H         1 AMP501      0.0000 
     35 H2        125.7800  103.1170  124.7980 H         1 AMP501      0.0000 
@<TRIPOS>BOND
     1    1    2 ar   
     2    1    3 ar   
     3    1    4 ar   
     4    1    5 1    
     5    5    6 1    
     6    6    7 1    
     7    6   24 1    
     8    6   25 1    
     9    7    8 1    
    10    7    9 1    
    11    7   26 1    
    12    8   13 1    
    13    9   10 1    
    14    9   11 1    
    15    9   27 1    
    16   10   28 1    
    17   11   12 1    
    18   11   13 1    
    19   11   29 1    
    20   12   30 1    
    21   13   14 1    
    22   13   31 1    
    23   14   15 1    
    24   14   23 1    
    25   15   16 2    
    26   15   32 1    
    27   16   17 1    
    28   17   18 ar   
    29   17   23 ar   
    30   18   19 1    
    31   18   20 ar   
    32   19   33 1    
    33   19   34 1    
    34   20   21 ar   
    35   21   22 ar   
    36   21   35 1    
    37   22   23 ar   
@<TRIPOS>SUBSTRUCTURE
     1 AMP501      1 GROUP   
@<TRIPOS>SET
ATOM$ORANGE STATIC     ATOMS   COLORGROUP SYSTEM 
20 6 6 7 7 9 9 11 11 13 13 15 15 17 17 18 18 21 \
21 23 23 

