#    Name: 6shq_3_AMP
#    Modification time : Fri May 22 19:38:04 2020

@<TRIPOS>MOLECULE
6shq_3_AMP
   35    37     1     0     1
SMALL
NO_CHARGES


@<TRIPOS>ATOM
      1 P          92.8140  114.4500   86.9500 P.3       1 AMP501      0.0000 
      2 O1P        92.6070  113.0940   86.3220 O.co2     1 AMP501      0.0000 
      3 O2P        91.5670  115.2900   87.0460 O.co2     1 AMP501      0.0000 
      4 O3P        93.6520  114.4740   88.1970 O.co2     1 AMP501      0.0000 
      5 O5'        93.6970  115.1700   85.8420 O.3       1 AMP501      0.0000 
      6 C5'        93.1390  115.4780   84.5710 C.3       1 AMP501      0.0000 
      7 C4'        93.9360  116.5290   83.8510 C.3       1 AMP501      0.0000 
      8 O4'        93.8240  117.7780   84.5760 O.3       1 AMP501      0.0000 
      9 C3'        95.4330  116.2320   83.7530 C.3       1 AMP501      0.0000 
     10 O3'        95.9390  116.7030   82.5080 O.3       1 AMP501      0.0000 
     11 C2'        96.0160  117.0180   84.9240 C.3       1 AMP501      0.0000 
     12 O2'        97.3870  117.3630   84.7930 O.3       1 AMP501      0.0000 
     13 C1'        95.1190  118.2470   84.9040 C.3       1 AMP501      0.0000 
     14 N9         95.0390  119.0150   86.1430 N.pl3     1 AMP501      0.0000 
     15 C8         95.1350  118.5980   87.4130 C.2       1 AMP501      0.0000 
     16 N7         95.0130  119.6460   88.2630 N.2       1 AMP501      0.0000 
     17 C5         94.8280  120.7490   87.5190 C.ar      1 AMP501      0.0000 
     18 C6         94.6280  122.1900   87.7600 C.ar      1 AMP501      0.0000 
     19 N6         94.5950  122.6580   89.0260 N.pl3     1 AMP501      0.0000 
     20 N1         94.4860  123.0010   86.6880 N.ar      1 AMP501      0.0000 
     21 C2         94.5140  122.5300   85.4290 C.ar      1 AMP501      0.0000 
     22 N3         94.6960  121.2310   85.1460 N.ar      1 AMP501      0.0000 
     23 C4         94.8610  120.3230   86.1250 C.ar      1 AMP501      0.0000 
     24 H5'1       92.1120  115.8190   84.6970 H         1 AMP501      0.0000 
     25 H5'2       93.1190  114.5680   83.9720 H         1 AMP501      0.0000 
     26 H4'        93.5320  116.6480   82.8390 H         1 AMP501      0.0000 
     27 H3'        95.6210  115.1640   83.8920 H         1 AMP501      0.0000 
     28 HO3'       96.9040  116.7300   82.5260 H         1 AMP501      0.0000 
     29 H2'        95.8610  116.4350   85.8450 H         1 AMP501      0.0000 
     30 HO2'       97.8130  117.2640   85.6520 H         1 AMP501      0.0000 
     31 H1'        95.4660  118.9000   84.0920 H         1 AMP501      0.0000 
     32 H8         95.2940  117.5740   87.7200 H         1 AMP501      0.0000 
     33 HN61       94.7110  122.0130   89.7920 H         1 AMP501      0.0000 
     34 HN62       94.4590  123.6420   89.2060 H         1 AMP501      0.0000 
     35 H2         94.3960  123.2250   84.6100 H         1 AMP501      0.0000 
@<TRIPOS>BOND
     1    1    2 ar   
     2    1    3 ar   
     3    1    4 ar   
     4    1    5 1    
     5    5    6 1    
     6    6    7 1    
     7    6   24 1    
     8    6   25 1    
     9    7    8 1    
    10    7    9 1    
    11    7   26 1    
    12    8   13 1    
    13    9   10 1    
    14    9   11 1    
    15    9   27 1    
    16   10   28 1    
    17   11   12 1    
    18   11   13 1    
    19   11   29 1    
    20   12   30 1    
    21   13   14 1    
    22   13   31 1    
    23   14   15 1    
    24   14   23 1    
    25   15   16 2    
    26   15   32 1    
    27   16   17 1    
    28   17   18 ar   
    29   17   23 ar   
    30   18   19 1    
    31   18   20 ar   
    32   19   33 1    
    33   19   34 1    
    34   20   21 ar   
    35   21   22 ar   
    36   21   35 1    
    37   22   23 ar   
@<TRIPOS>SUBSTRUCTURE
     1 AMP501      1 GROUP   
@<TRIPOS>SET
ATOM$ORANGE STATIC     ATOMS   COLORGROUP SYSTEM 
20 6 6 7 7 9 9 11 11 13 13 15 15 17 17 18 18 21 \
21 23 23 

