#    Name: 6shq_4_AMP
#    Modification time : Fri May 22 19:38:12 2020

@<TRIPOS>MOLECULE
6shq_4_AMP
   35    37     1     0     1
SMALL
NO_CHARGES


@<TRIPOS>ATOM
      1 P          90.8410  111.4250  122.5360 P.3       1 AMP501      0.0000 
      2 O1P        91.1620  110.6420  121.2870 O.co2     1 AMP501      0.0000 
      3 O2P        89.5900  112.2400  122.4270 O.co2     1 AMP501      0.0000 
      4 O3P        91.9810  112.1840  123.1680 O.co2     1 AMP501      0.0000 
      5 O5'        90.5120  110.3190  123.6230 O.3       1 AMP501      0.0000 
      6 C5'        90.0470  110.6900  124.9220 C.3       1 AMP501      0.0000 
      7 C4'        89.4050  109.4950  125.5820 C.3       1 AMP501      0.0000 
      8 O4'        88.2410  109.0800  124.8380 O.3       1 AMP501      0.0000 
      9 C3'        90.3190  108.2650  125.7040 C.3       1 AMP501      0.0000 
     10 O3'        90.0830  107.6200  126.9460 O.3       1 AMP501      0.0000 
     11 C2'        89.8170  107.4120  124.5280 C.3       1 AMP501      0.0000 
     12 O2'        90.0890  106.0200  124.6450 O.3       1 AMP501      0.0000 
     13 C1'        88.3320  107.7100  124.5870 C.3       1 AMP501      0.0000 
     14 N9         87.6350  107.4450  123.3120 N.pl3     1 AMP501      0.0000 
     15 C8         88.0870  107.5080  122.0360 C.2       1 AMP501      0.0000 
     16 N7         87.0750  107.2090  121.1750 N.2       1 AMP501      0.0000 
     17 C5         85.9820  106.9150  121.9040 C.ar      1 AMP501      0.0000 
     18 C6         84.5890  106.4990  121.6520 C.ar      1 AMP501      0.0000 
     19 N6         84.1370  106.3250  120.3950 N.pl3     1 AMP501      0.0000 
     20 N1         83.7880  106.3030  122.7200 N.ar      1 AMP501      0.0000 
     21 C2         84.2150  106.4710  123.9850 C.ar      1 AMP501      0.0000 
     22 N3         85.4670  106.8470  124.2830 N.ar      1 AMP501      0.0000 
     23 C4         86.3700  107.0770  123.3040 C.ar      1 AMP501      0.0000 
     24 H5'1       89.3040  111.4810  124.8150 H         1 AMP501      0.0000 
     25 H5'2       90.8740  111.0660  125.5180 H         1 AMP501      0.0000 
     26 H4'        89.1250  109.7990  126.5890 H         1 AMP501      0.0000 
     27 H3'        91.3660  108.5470  125.5630 H         1 AMP501      0.0000 
     28 HO3'       90.4430  106.7250  126.9370 H         1 AMP501      0.0000 
     29 H2'        90.2780  107.8080  123.6220 H         1 AMP501      0.0000 
     30 HO2'       90.7340  105.7700  123.9690 H         1 AMP501      0.0000 
     31 H1'        87.8670  107.1190  125.3770 H         1 AMP501      0.0000 
     32 H8         89.0800  107.8090  121.7330 H         1 AMP501      0.0000 
     33 HN61       84.7580  106.4730  119.6150 H         1 AMP501      0.0000 
     34 HN62       83.1820  106.0380  120.2390 H         1 AMP501      0.0000 
     35 H2         83.5220  106.3010  124.7970 H         1 AMP501      0.0000 
@<TRIPOS>BOND
     1    1    2 ar   
     2    1    3 ar   
     3    1    4 ar   
     4    1    5 1    
     5    5    6 1    
     6    6    7 1    
     7    6   24 1    
     8    6   25 1    
     9    7    8 1    
    10    7    9 1    
    11    7   26 1    
    12    8   13 1    
    13    9   10 1    
    14    9   11 1    
    15    9   27 1    
    16   10   28 1    
    17   11   12 1    
    18   11   13 1    
    19   11   29 1    
    20   12   30 1    
    21   13   14 1    
    22   13   31 1    
    23   14   15 1    
    24   14   23 1    
    25   15   16 2    
    26   15   32 1    
    27   16   17 1    
    28   17   18 ar   
    29   17   23 ar   
    30   18   19 1    
    31   18   20 ar   
    32   19   33 1    
    33   19   34 1    
    34   20   21 ar   
    35   21   22 ar   
    36   21   35 1    
    37   22   23 ar   
@<TRIPOS>SUBSTRUCTURE
     1 AMP501      1 GROUP   
@<TRIPOS>SET
ATOM$ORANGE STATIC     ATOMS   COLORGROUP SYSTEM 
20 6 6 7 7 9 9 11 11 13 13 15 15 17 17 18 18 21 \
21 23 23 

