#    Name: 6shq_1_AMP
#    Modification time : Fri May 22 19:37:48 2020

@<TRIPOS>MOLECULE
6shq_1_AMP
   35    37     1     0     1
SMALL
NO_CHARGES


@<TRIPOS>ATOM
      1 P         116.5390   94.9400   86.9130 P.3       1 AMP501      0.0000 
      2 O1P       116.7340   96.2910   86.2800 O.co2     1 AMP501      0.0000 
      3 O2P       117.7870   94.1020   87.0050 O.co2     1 AMP501      0.0000 
      4 O3P       115.7050   94.9200   88.1640 O.co2     1 AMP501      0.0000 
      5 O5'       115.6620   94.1980   85.8160 O.3       1 AMP501      0.0000 
      6 C5'       116.1990   93.9210   84.5200 C.3       1 AMP501      0.0000 
      7 C4'       115.3830   92.8650   83.8360 C.3       1 AMP501      0.0000 
      8 O4'       115.5160   91.6100   84.5620 O.3       1 AMP501      0.0000 
      9 C3'       113.8970   93.1480   83.7290 C.3       1 AMP501      0.0000 
     10 O3'       113.3930   92.6710   82.4970 O.3       1 AMP501      0.0000 
     11 C2'       113.3260   92.3590   84.9030 C.3       1 AMP501      0.0000 
     12 O2'       111.9500   92.0050   84.7890 O.3       1 AMP501      0.0000 
     13 C1'       114.2190   91.1220   84.8680 C.3       1 AMP501      0.0000 
     14 N9        114.2980   90.3730   86.1280 N.pl3     1 AMP501      0.0000 
     15 C8        114.2140   90.7950   87.4000 C.2       1 AMP501      0.0000 
     16 N7        114.3460   89.7470   88.2480 N.2       1 AMP501      0.0000 
     17 C5        114.5260   88.6420   87.5080 C.ar      1 AMP501      0.0000 
     18 C6        114.7280   87.2020   87.7490 C.ar      1 AMP501      0.0000 
     19 N6        114.7710   86.7320   89.0090 N.pl3     1 AMP501      0.0000 
     20 N1        114.8600   86.3940   86.6780 N.ar      1 AMP501      0.0000 
     21 C2        114.8200   86.8570   85.4190 C.ar      1 AMP501      0.0000 
     22 N3        114.6390   88.1520   85.1310 N.ar      1 AMP501      0.0000 
     23 C4        114.4960   89.0670   86.1120 C.ar      1 AMP501      0.0000 
     24 H5'1      117.2210   93.5900   84.6320 H         1 AMP501      0.0000 
     25 H5'2      116.1900   94.8310   83.9210 H         1 AMP501      0.0000 
     26 H4'       115.7880   92.7280   82.8110 H         1 AMP501      0.0000 
     27 H3'       113.7040   94.2260   83.8780 H         1 AMP501      0.0000 
     28 HO3'      112.4490   92.8690   82.4400 H         1 AMP501      0.0000 
     29 H2'       113.4850   92.9320   85.8120 H         1 AMP501      0.0000 
     30 HO2'      111.4620   92.4320   85.5060 H         1 AMP501      0.0000 
     31 H1'       113.8900   90.4700   84.0750 H         1 AMP501      0.0000 
     32 H8        114.0630   91.8190   87.7090 H         1 AMP501      0.0000 
     33 HN61      114.6590   87.3760   89.7760 H         1 AMP501      0.0000 
     34 HN62      114.9060   85.7480   89.1860 H         1 AMP501      0.0000 
     35 H2        114.9380   86.1580   84.6030 H         1 AMP501      0.0000 
@<TRIPOS>BOND
     1    1    2 ar   
     2    1    3 ar   
     3    1    4 ar   
     4    1    5 1    
     5    5    6 1    
     6    6    7 1    
     7    6   24 1    
     8    6   25 1    
     9    7    8 1    
    10    7    9 1    
    11    7   26 1    
    12    8   13 1    
    13    9   10 1    
    14    9   11 1    
    15    9   27 1    
    16   10   28 1    
    17   11   12 1    
    18   11   13 1    
    19   11   29 1    
    20   12   30 1    
    21   13   14 1    
    22   13   31 1    
    23   14   15 1    
    24   14   23 1    
    25   15   16 2    
    26   15   32 1    
    27   16   17 1    
    28   17   18 ar   
    29   17   23 ar   
    30   18   19 1    
    31   18   20 ar   
    32   19   33 1    
    33   19   34 1    
    34   20   21 ar   
    35   21   22 ar   
    36   21   35 1    
    37   22   23 ar   
@<TRIPOS>SUBSTRUCTURE
     1 AMP501      1 GROUP   
@<TRIPOS>SET
ATOM$ORANGE STATIC     ATOMS   COLORGROUP SYSTEM 
20 6 6 7 7 9 9 11 11 13 13 15 15 17 17 18 18 21 \
21 23 23 

