#    Name: 6hdt_4_BTN_CAVITY_N1_ALL
#    Modification time : Fri May 22 19:29:25 2020

@<TRIPOS>MOLECULE
6hdt_4_BTN_CAVITY_N1_ALL
   71     0     6     0     0
SMALL
NO_CHARGES


@<TRIPOS>ATOM
      1 OG        -13.5900   20.0700  -14.4900 O.3       1 SER1        0.0000 
      2 OG        -16.6000   21.1900  -13.5100 O.3       1 SER1        0.0000 
      3 OG         -7.4600   19.8100  -13.7400 O.3       1 SER1        0.0000 
      4 OG         -9.2600   20.9300  -13.6500 O.3       1 SER1        0.0000 
      5 OG         -6.7900   20.8000  -12.8300 O.3       1 SER1        0.0000 
      6 OG         -8.5900   21.9200  -12.7400 O.3       1 SER1        0.0000 
      7 N         -15.3400   21.0600  -11.8100 N.am      2 ALA2        0.0000 
      8 N         -14.1400   21.0600  -12.6900 N.am      2 ALA2        0.0000 
      9 N         -14.7200   22.1900  -13.4900 N.am      2 ALA2        0.0000 
     10 N         -13.4700   22.0600  -11.7900 N.am      2 ALA2        0.0000 
     11 O         -12.2600   22.0600  -12.6700 O.2       2 ALA2        0.0000 
     12 N         -10.3900   23.0500  -12.6600 N.am      2 ALA2        0.0000 
     13 O          -7.9600   20.6700   -9.3500 O.2       2 ALA2        0.0000 
     14 N          -5.5400   20.6700  -11.1200 N.am      2 ALA2        0.0000 
     15 N          -4.3300   20.6700  -12.0100 N.am      2 ALA2        0.0000 
     16 O          -7.3400   21.7900  -11.0400 O.2       2 ALA2        0.0000 
     17 O          -6.6700   22.7900  -10.1300 O.2       2 ALA2        0.0000 
     18 NZ        -16.6800   19.0800  -13.6200 N.4       3 LYS4        0.0000 
     19 CZ        -16.0900   17.9500  -12.8200 C.ar      4 PHE5        0.0000 
     20 CZ        -14.8800   17.9500  -13.7100 C.ar      4 PHE5        0.0000 
     21 CZ        -15.4700   19.0800  -14.5100 C.ar      4 PHE5        0.0000 
     22 CZ        -15.4600   16.7000   -9.4200 C.ar      4 PHE5        0.0000 
     23 CZ        -16.0400   17.8200  -10.2200 C.ar      4 PHE5        0.0000 
     24 CZ        -15.4200   18.9500  -11.9100 C.ar      4 PHE5        0.0000 
     25 CZ        -14.2100   18.9500  -12.8000 C.ar      4 PHE5        0.0000 
     26 CZ        -15.3900   21.1900  -14.4000 C.ar      4 PHE5        0.0000 
     27 CZ         -9.9900   15.4400   -9.5800 C.ar      4 PHE5        0.0000 
     28 CZ         -7.5700   15.4400  -11.3500 C.ar      4 PHE5        0.0000 
     29 CZ        -14.7600   19.9400  -11.0100 C.ar      4 PHE5        0.0000 
     30 CZ        -13.5500   19.9400  -11.8900 C.ar      4 PHE5        0.0000 
     31 CZ        -12.3400   19.9400  -12.7800 C.ar      4 PHE5        0.0000 
     32 CZ        -12.9300   21.0600  -13.5800 C.ar      4 PHE5        0.0000 
     33 CZ        -11.7200   21.0600  -14.4700 C.ar      4 PHE5        0.0000 
     34 CZ         -6.3200   15.3100   -9.6500 C.ar      4 PHE5        0.0000 
     35 CZ         -9.3200   16.4400   -8.6700 C.ar      4 PHE5        0.0000 
     36 CZ         -6.9000   16.4300  -10.4500 C.ar      4 PHE5        0.0000 
     37 CZ         -8.7000   17.5600  -10.3600 C.ar      4 PHE5        0.0000 
     38 CZ         -9.2900   18.6800  -11.1600 C.ar      4 PHE5        0.0000 
     39 CZ         -9.8800   19.8100  -11.9600 C.ar      4 PHE5        0.0000 
     40 CZ        -11.6700   20.9300  -11.8700 C.ar      4 PHE5        0.0000 
     41 CZ        -11.0500   22.0600  -13.5600 C.ar      4 PHE5        0.0000 
     42 CZ         -9.8400   22.0600  -14.4500 C.ar      4 PHE5        0.0000 
     43 CZ        -12.8500   23.1800  -13.4800 C.ar      4 PHE5        0.0000 
     44 CZ         -8.0400   18.5500   -9.4500 C.ar      4 PHE5        0.0000 
     45 CZ         -5.6200   18.5500  -11.2300 C.ar      4 PHE5        0.0000 
     46 CZ         -4.4100   18.5500  -12.1200 C.ar      4 PHE5        0.0000 
     47 CZ         -8.6200   19.6800  -10.2500 C.ar      4 PHE5        0.0000 
     48 CZ         -9.2100   20.8000  -11.0600 C.ar      4 PHE5        0.0000 
     49 CA        -13.0000   18.9500  -13.6900 C.3       5 GLY6        0.0000 
     50 CA         -8.7800   15.4400  -10.4700 C.3       5 GLY6        0.0000 
     51 CA         -9.3700   16.5700  -11.2700 C.3       5 GLY6        0.0000 
     52 CA         -8.1600   16.5700  -12.1500 C.3       5 GLY6        0.0000 
     53 CA         -7.4900   17.5600  -11.2500 C.3       5 GLY6        0.0000 
     54 CA         -8.0800   18.6800  -12.0500 C.3       5 GLY6        0.0000 
     55 CA         -6.8700   18.6800  -12.9400 C.3       5 GLY6        0.0000 
     56 CA         -8.6700   19.8100  -12.8500 C.3       5 GLY6        0.0000 
     57 CA        -10.4600   20.9300  -12.7600 C.3       5 GLY6        0.0000 
     58 CA         -6.2100   19.6800  -12.0300 C.3       5 GLY6        0.0000 
     59 CA         -5.0000   19.6800  -12.9200 C.3       5 GLY6        0.0000 
     60 CA         -9.8000   21.9300  -11.8600 C.3       5 GLY6        0.0000 
     61 CA         -9.1800   23.0500  -13.5400 C.3       5 GLY6        0.0000 
     62 CA         -6.1300   21.7900  -11.9200 C.3       5 GLY6        0.0000 
     63 CA         -7.9200   22.9200  -11.8400 C.3       5 GLY6        0.0000 
     64 CA         -5.4600   22.7900  -11.0200 C.3       5 GLY6        0.0000 
     65 DU        -16.0100   20.0700  -12.7100 H         6 CUB7        0.0000 
     66 DU        -14.8000   20.0700  -13.6000 H         6 CUB7        0.0000 
     67 DU         -8.1100   16.4400   -9.5600 H         6 CUB7        0.0000 
     68 DU         -6.8300   18.5500  -10.3400 H         6 CUB7        0.0000 
     69 DU         -7.4100   19.6800  -11.1400 H         6 CUB7        0.0000 
     70 DU         -8.0000   20.8000  -11.9400 H         6 CUB7        0.0000 
     71 DU         -6.7500   20.6700  -10.2400 H         6 CUB7        0.0000 
@<TRIPOS>BOND
@<TRIPOS>SUBSTRUCTURE
     1 SER1        1 GROUP   
     2 ALA2        7 GROUP   
     3 LYS4       18 GROUP   
     4 PHE5       19 GROUP   
     5 GLY6       49 GROUP   
     6 CUB7       65 GROUP   
@<TRIPOS>SET

