#    Name: 6hdt_4_BTN
#    Modification time : Fri May 22 19:29:23 2020

@<TRIPOS>MOLECULE
6hdt_4_BTN
   16    17     1     0     0
SMALL
NO_CHARGES


@<TRIPOS>ATOM
      1 C11        -8.6190   21.8040  -12.5370 C.2       1 BTN201      0.0000 
      2 O11        -7.7310   21.1460  -13.1370 O.co2     1 BTN201      0.0000 
      3 O12        -8.8310   21.7460  -11.3040 O.co2     1 BTN201      0.0000 
      4 C10        -9.4550   22.7480  -13.3780 C.3       1 BTN201      0.0000 
      5 C9        -10.9400   22.7710  -12.9880 C.3       1 BTN201      0.0000 
      6 C8        -11.5790   21.3950  -13.1430 C.3       1 BTN201      0.0000 
      7 C7        -13.0350   21.4320  -12.7340 C.3       1 BTN201      0.0000 
      8 C2        -13.6950   20.0860  -12.9750 C.3       1 BTN201      0.0000 
      9 S1        -14.1510   19.7410  -14.6660 S.3       1 BTN201      0.0000 
     10 C6        -15.2190   18.4100  -14.1910 C.3       1 BTN201      0.0000 
     11 C5        -15.8150   18.8420  -12.8660 C.3       1 BTN201      0.0000 
     12 N1        -17.0830   19.5370  -13.0790 N.am      1 BTN201      0.0000 
     13 C3        -17.0740   20.8040  -12.6950 C.2       1 BTN201      0.0000 
     14 O3        -17.9970   21.6030  -12.7400 O.2       1 BTN201      0.0000 
     15 N2        -15.8800   21.0890  -12.1860 N.am      1 BTN201      0.0000 
     16 C4        -15.0190   19.9430  -12.1880 C.3       1 BTN201      0.0000 
@<TRIPOS>BOND
     1    1    2 ar   
     2    1    3 ar   
     3    1    4 1    
     4    4    5 1    
     5    5    6 1    
     6    6    7 1    
     7    7    8 1    
     8    8    9 1    
     9    8   16 1    
    10    9   10 1    
    11   10   11 1    
    12   11   12 1    
    13   11   16 1    
    14   12   13 am   
    15   13   14 2    
    16   13   15 am   
    17   15   16 1    
@<TRIPOS>SUBSTRUCTURE
     1 BTN201      1 GROUP   
@<TRIPOS>SET

