#    Name: 5x6z_3_GTP_CAVITY_N1_8
#    Modification time : Fri May 22 19:19:03 2020

@<TRIPOS>MOLECULE
5x6z_3_GTP_CAVITY_N1_8
   86     0     6     0     0
SMALL
NO_CHARGES


@<TRIPOS>ATOM
      1 OG          0.9100    4.1800   49.9900 O.3       1 SER1        0.0000 
      2 OG          3.1300    0.0300   50.5200 O.3       1 SER1        0.0000 
      3 OG         -3.9600    5.8500   53.7400 O.3       1 SER1        0.0000 
      4 OG          0.2700    4.6400   51.9600 O.3       1 SER1        0.0000 
      5 OG          0.5800    3.2300   52.3800 O.3       1 SER1        0.0000 
      6 OG          1.5800    4.7000   51.2300 O.3       1 SER1        0.0000 
      7 OG          1.8800    3.2900   51.6500 O.3       1 SER1        0.0000 
      8 OG         -1.3700    3.6200   55.0900 O.3       1 SER1        0.0000 
      9 OG         -0.0600    3.6800   54.3500 O.3       1 SER1        0.0000 
     10 OG          0.2400    2.2700   54.7800 O.3       1 SER1        0.0000 
     11 OG          0.3000    5.6000   55.1700 O.3       1 SER1        0.0000 
     12 OG          0.6100    4.2000   55.5900 O.3       1 SER1        0.0000 
     13 OG          1.9100    4.2600   54.8600 O.3       1 SER1        0.0000 
     14 N           3.8300    2.9100   48.9500 N.am      2 ALA2        0.0000 
     15 N          -3.2900    6.3600   54.9800 N.am      2 ALA2        0.0000 
     16 O          -2.6800    3.5500   55.8200 O.2       2 ALA2        0.0000 
     17 O          -2.6200    6.8800   56.2200 O.2       2 ALA2        0.0000 
     18 O          -1.3100    6.9500   55.4800 O.2       2 ALA2        0.0000 
     19 O          -1.0100    5.5400   55.9100 O.2       2 ALA2        0.0000 
     20 N           2.5800    4.7800   56.1000 N.am      2 ALA2        0.0000 
     21 N           3.2500    5.2900   57.3400 N.am      2 ALA2        0.0000 
     22 N           4.5600    5.3600   56.6100 N.am      2 ALA2        0.0000 
     23 OD1        -2.0100    5.4600   51.0300 O.co2     3 ASP3        0.0000 
     24 OD1        -0.7000    5.5300   50.3000 O.co2     3 ASP3        0.0000 
     25 OD1         0.6000    5.5900   49.5700 O.co2     3 ASP3        0.0000 
     26 OD1         2.2200    4.2500   49.2600 O.co2     3 ASP3        0.0000 
     27 OD1        -5.2600    5.7800   54.4700 O.co2     3 ASP3        0.0000 
     28 OD1         0.9700    7.5100   50.3900 O.co2     3 ASP3        0.0000 
     29 OD1         1.2700    6.1100   50.8100 O.co2     3 ASP3        0.0000 
     30 OD1         2.5800    6.1700   50.0800 O.co2     3 ASP3        0.0000 
     31 OD1        -4.2900    4.8900   56.1300 O.co2     3 ASP3        0.0000 
     32 OD1        -2.9800    4.9600   55.4000 O.co2     3 ASP3        0.0000 
     33 OD1         1.9400    6.6200   52.0500 O.co2     3 ASP3        0.0000 
     34 OD1         3.2500    6.6900   51.3200 O.co2     3 ASP3        0.0000 
     35 OD1         2.6100    7.1400   53.2900 O.co2     3 ASP3        0.0000 
     36 OD1         2.9200    5.7300   53.7100 O.co2     3 ASP3        0.0000 
     37 OD1         4.2200    5.8000   52.9800 O.co2     3 ASP3        0.0000 
     38 OD1         3.2800    7.6600   54.5300 O.co2     3 ASP3        0.0000 
     39 OD1         3.5800    6.2500   54.9500 O.co2     3 ASP3        0.0000 
     40 CZ         -3.0100    3.9900   52.1900 C.ar      4 PHE5        0.0000 
     41 CZ         -1.7100    4.0600   51.4500 C.ar      4 PHE5        0.0000 
     42 CZ          2.5200    2.8400   49.6800 C.ar      4 PHE5        0.0000 
     43 CZ          2.8300    1.4400   50.1000 C.ar      4 PHE5        0.0000 
     44 CZ         -1.0400    4.5700   52.6900 C.ar      4 PHE5        0.0000 
     45 CZ         -0.7300    3.1600   53.1100 C.ar      4 PHE5        0.0000 
     46 CZ          0.8800    1.8200   52.8000 C.ar      4 PHE5        0.0000 
     47 CZ          2.1900    1.8900   52.0700 C.ar      4 PHE5        0.0000 
     48 CZ          2.4900    0.4800   52.4900 C.ar      4 PHE5        0.0000 
     49 CZ          3.1900    3.3600   50.9200 C.ar      4 PHE5        0.0000 
     50 CZ          3.5000    1.9500   51.3400 C.ar      4 PHE5        0.0000 
     51 CZ          3.8000    0.5400   51.7600 C.ar      4 PHE5        0.0000 
     52 CZ          4.8000    2.0200   50.6100 C.ar      4 PHE5        0.0000 
     53 CZ          1.5500    2.3400   54.0400 C.ar      4 PHE5        0.0000 
     54 CZ          2.8600    2.4000   53.3100 C.ar      4 PHE5        0.0000 
     55 CZ          3.1600    1.0000   53.7300 C.ar      4 PHE5        0.0000 
     56 CZ          3.8600    3.8700   52.1600 C.ar      4 PHE5        0.0000 
     57 CZ          4.1700    2.4700   52.5800 C.ar      4 PHE5        0.0000 
     58 CZ          2.2200    2.8500   55.2800 C.ar      4 PHE5        0.0000 
     59 CZ          4.5300    4.3900   53.4000 C.ar      4 PHE5        0.0000 
     60 CZ          5.2000    4.9100   54.6400 C.ar      4 PHE5        0.0000 
     61 CA         -3.6500    4.4400   54.1600 C.3       5 GLY6        0.0000 
     62 CA          1.1900    0.4200   53.2200 C.3       5 GLY6        0.0000 
     63 CA          1.8600    0.9300   54.4600 C.3       5 GLY6        0.0000 
     64 CA          3.5300    2.9200   54.5500 C.3       5 GLY6        0.0000 
     65 CA          3.8900    4.8400   55.3700 C.3       5 GLY6        0.0000 
     66 CA          4.8900    6.3100   54.2200 C.3       5 GLY6        0.0000 
     67 CA          3.9500    8.1700   55.7700 C.3       5 GLY6        0.0000 
     68 CA          4.2500    6.7700   56.1900 C.3       5 GLY6        0.0000 
     69 CA          5.5600    6.8300   55.4500 C.3       5 GLY6        0.0000 
     70 DU         -2.6500    5.9100   53.0000 H         6 CUB7        0.0000 
     71 DU         -2.3400    4.5100   53.4300 H         6 CUB7        0.0000 
     72 DU         -1.3400    5.9800   52.2700 H         6 CUB7        0.0000 
     73 DU         -0.0300    6.0400   51.5400 H         6 CUB7        0.0000 
     74 DU          2.8900    4.7700   50.5000 H         6 CUB7        0.0000 
     75 DU         -1.9800    6.4300   54.2400 H         6 CUB7        0.0000 
     76 DU         -1.6800    5.0200   54.6700 H         6 CUB7        0.0000 
     77 DU         -0.3700    5.0900   53.9300 H         6 CUB7        0.0000 
     78 DU          0.6300    6.5600   52.7800 H         6 CUB7        0.0000 
     79 DU          0.9400    5.1500   53.2000 H         6 CUB7        0.0000 
     80 DU          1.2400    3.7500   53.6200 H         6 CUB7        0.0000 
     81 DU          2.2500    5.2200   52.4700 H         6 CUB7        0.0000 
     82 DU          2.5500    3.8100   52.8900 H         6 CUB7        0.0000 
     83 DU          1.6100    5.6700   54.4400 H         6 CUB7        0.0000 
     84 DU          3.2200    4.3300   54.1300 H         6 CUB7        0.0000 
     85 DU          2.2800    6.1800   55.6800 H         6 CUB7        0.0000 
     86 DU          2.9500    6.7000   56.9200 H         6 CUB7        0.0000 
@<TRIPOS>BOND
@<TRIPOS>SUBSTRUCTURE
     1 SER1        1 GROUP   
     2 ALA2       14 GROUP   
     3 ASP3       23 GROUP   
     4 PHE5       40 GROUP   
     5 GLY6       61 GROUP   
     6 CUB7       70 GROUP   
@<TRIPOS>SET

