#    Name: 5x6z_3_GTP
#    Modification time : Fri May 22 19:19:02 2020

@<TRIPOS>MOLECULE
5x6z_3_GTP
   32    34     1     0     1
SMALL
NO_CHARGES


@<TRIPOS>ATOM
      1 PG         -4.8710    5.0100   52.6090 P.3       1 GTP901      0.0000 
      2 O1G        -5.8360    3.9350   52.1690 O.co2     1 GTP901      0.0000 
      3 O2G        -5.5110    6.3530   52.3510 O.co2     1 GTP901      0.0000 
      4 O3G        -4.5020    4.8390   54.0680 O.co2     1 GTP901      0.0000 
      5 O3B        -3.5480    4.9340   51.6740 O.3       1 GTP901      0.0000 
      6 PB         -2.0460    4.9210   52.2590 P.3       1 GTP901      0.0000 
      7 O1B        -1.1210    4.9550   51.0530 O.co2     1 GTP901      0.0000 
      8 O2B        -1.8170    6.0600   53.2290 O.co2     1 GTP901      0.0000 
      9 O3A        -1.9990    3.4700   52.9840 O.3       1 GTP901      0.0000 
     10 PA         -1.3450    3.0680   54.4060 P.3       1 GTP901      0.0000 
     11 O1A        -1.2920    1.5430   54.4940 O.co2     1 GTP901      0.0000 
     12 O2A        -2.1120    3.7790   55.4930 O.co2     1 GTP901      0.0000 
     13 O5'         0.1960    3.5570   54.4690 O.3       1 GTP901      0.0000 
     14 C5'         0.6840    4.6350   55.2530 C.3       1 GTP901      0.0000 
     15 C4'         2.0630    4.9440   54.6770 C.3       1 GTP901      0.0000 
     16 O4'         2.8570    3.7580   54.6500 O.3       1 GTP901      0.0000 
     17 C3'         1.9050    5.3820   53.2360 C.3       1 GTP901      0.0000 
     18 O3'         1.7830    6.7860   53.1300 O.3       1 GTP901      0.0000 
     19 C2'         3.1620    4.8350   52.5910 C.3       1 GTP901      0.0000 
     20 O2'         4.1430    5.8510   52.6240 O.3       1 GTP901      0.0000 
     21 C1'         3.5660    3.6190   53.4310 C.3       1 GTP901      0.0000 
     22 N9          3.1800    2.3690   52.7180 N.pl3     1 GTP901      0.0000 
     23 C8          2.2730    1.4090   53.1120 C.2       1 GTP901      0.0000 
     24 N7          2.2170    0.4190   52.1750 N.2       1 GTP901      0.0000 
     25 C5          3.0960    0.7150   51.1760 C.2       1 GTP901      0.0000 
     26 C6          3.4570    0.0850   49.9550 C.2       1 GTP901      0.0000 
     27 O6          2.9560   -0.9900   49.5490 O.2       1 GTP901      0.0000 
     28 N1          4.4190    0.6810   49.1470 N.am      1 GTP901      0.0000 
     29 C2          4.9960    1.8800   49.5180 C.2       1 GTP901      0.0000 
     30 N2          5.9240    2.4500   48.7350 N.pl3     1 GTP901      0.0000 
     31 N3          4.6220    2.4810   50.7030 N.2       1 GTP901      0.0000 
     32 C4          3.6950    1.9300   51.5170 C.2       1 GTP901      0.0000 
@<TRIPOS>BOND
     1   19   21 1    
     2   21   22 1    
     3   22   23 1    
     4   22   32 1    
     5   23   24 2    
     6   24   25 1    
     7   25   26 1    
     8   25   32 2    
     9   26   27 2    
    10   26   28 am   
    11   28   29 1    
    12   29   30 1    
    13   29   31 2    
    14   31   32 1    
    15    1    2 ar   
    16    1    3 ar   
    17    1    4 ar   
    18    1    5 1    
    19    5    6 1    
    20    6    7 ar   
    21    6    8 ar   
    22    6    9 1    
    23    9   10 1    
    24   10   11 ar   
    25   10   12 ar   
    26   10   13 1    
    27   13   14 1    
    28   14   15 1    
    29   15   16 1    
    30   15   17 1    
    31   16   21 1    
    32   17   18 1    
    33   17   19 1    
    34   19   20 1    
@<TRIPOS>SUBSTRUCTURE
     1 GTP901      1 GROUP   
@<TRIPOS>SET
ATOM$ORANGE STATIC     ATOMS   COLORGROUP SYSTEM 
20 14 14 15 15 17 17 19 19 21 21 23 23 25 25 26 26 29 \
29 32 32 

