#    Name: 5ycr_3_NAD
#    Modification time : Fri May 22 19:17:46 2020

@<TRIPOS>MOLECULE
5ycr_3_NAD
   44    48     1     0     1
SMALL
NO_CHARGES


@<TRIPOS>ATOM
      1 PA        -96.4370   -1.9430   13.5280 P.3       1 NAD301      0.0000 
      2 O1A       -97.0440   -0.9220   14.4240 O.co2     1 NAD301      0.0000 
      3 O2A       -97.4210   -3.1400   13.3680 O.co2     1 NAD301      0.0000 
      4 O5B       -94.9550   -2.4910   14.0590 O.3       1 NAD301      0.0000 
      5 C5B       -94.0780   -1.7490   14.9430 C.3       1 NAD301      0.0000 
      6 C4B       -93.9140   -2.5770   16.1900 C.3       1 NAD301      0.0000 
      7 O4B       -93.0470   -1.9280   17.1440 O.3       1 NAD301      0.0000 
      8 C3B       -95.2190   -2.8720   16.9490 C.3       1 NAD301      0.0000 
      9 O3B       -95.6600   -4.1950   16.6670 O.3       1 NAD301      0.0000 
     10 C2B       -94.8500   -2.6670   18.4310 C.3       1 NAD301      0.0000 
     11 O2B       -95.2460   -3.7550   19.2670 O.3       1 NAD301      0.0000 
     12 C1B       -93.3250   -2.5550   18.3800 C.3       1 NAD301      0.0000 
     13 N9A       -92.7350   -1.7960   19.4800 N.pl3     1 NAD301      0.0000 
     14 C8A       -92.9410   -0.4810   19.8020 C.2       1 NAD301      0.0000 
     15 N7A       -92.3590   -0.1080   20.9190 N.2       1 NAD301      0.0000 
     16 C5A       -91.7220   -1.2570   21.3560 C.ar      1 NAD301      0.0000 
     17 C6A       -90.9390   -1.5380   22.4970 C.ar      1 NAD301      0.0000 
     18 N6A       -90.6720   -0.6410   23.4540 N.pl3     1 NAD301      0.0000 
     19 N1A       -90.4470   -2.7930   22.6350 N.ar      1 NAD301      0.0000 
     20 C2A       -90.7230   -3.7000   21.6910 C.ar      1 NAD301      0.0000 
     21 N3A       -91.4560   -3.5550   20.5780 N.ar      1 NAD301      0.0000 
     22 C4A       -91.9320   -2.3080   20.4750 C.ar      1 NAD301      0.0000 
     23 O3        -96.1800   -1.3120   12.0840 O.3       1 NAD301      0.0000 
     24 PN        -95.2250   -1.6860   10.8560 P.3       1 NAD301      0.0000 
     25 O1N       -95.4240   -0.7070    9.7610 O.co2     1 NAD301      0.0000 
     26 O2N       -95.3890   -3.1280   10.5670 O.co2     1 NAD301      0.0000 
     27 O5D       -93.7660   -1.4430   11.4680 O.3       1 NAD301      0.0000 
     28 C5D       -92.7470   -2.4680   11.3850 C.3       1 NAD301      0.0000 
     29 C4D       -91.4210   -1.9030   10.9340 C.3       1 NAD301      0.0000 
     30 O4D       -91.4350   -1.6290    9.5070 O.3       1 NAD301      0.0000 
     31 C3D       -90.9810   -0.5920   11.6080 C.3       1 NAD301      0.0000 
     32 O3D       -89.5830   -0.6420   11.8860 O.3       1 NAD301      0.0000 
     33 C2D       -91.2770    0.4440   10.5290 C.3       1 NAD301      0.0000 
     34 O2D       -90.5420    1.6570   10.6420 O.3       1 NAD301      0.0000 
     35 C1D       -90.8700   -0.3560    9.3040 C.3       1 NAD301      0.0000 
     36 N1N       -91.3760    0.2050    7.9560 N.pl3     1 NAD301      0.0000 
     37 C2N       -92.6660    0.5870    7.9210 C.ar      1 NAD301      0.0000 
     38 C3N       -93.1840    1.1740    6.7820 C.ar      1 NAD301      0.0000 
     39 C7N       -94.6400    1.5280    6.7410 C.2       1 NAD301      0.0000 
     40 O7N       -95.1160    2.0550    5.7110 O.2       1 NAD301      0.0000 
     41 N7N       -95.3770    1.2460    7.8180 N.am      1 NAD301      0.0000 
     42 C4N       -92.3460    1.3680    5.6870 C.ar      1 NAD301      0.0000 
     43 C5N       -91.0300    0.9490    5.7460 C.ar      1 NAD301      0.0000 
     44 C6N       -90.5570    0.3600    6.8970 C.ar      1 NAD301      0.0000 
@<TRIPOS>BOND
     1    1    2 ar   
     2    1    3 ar   
     3    1    4 1    
     4    1   23 1    
     5    4    5 1    
     6    5    6 1    
     7    6    7 1    
     8    6    8 1    
     9    7   12 1    
    10    8    9 1    
    11    8   10 1    
    12   10   11 1    
    13   10   12 1    
    14   12   13 1    
    15   13   14 1    
    16   13   22 1    
    17   14   15 2    
    18   15   16 1    
    19   16   17 ar   
    20   16   22 ar   
    21   17   18 1    
    22   17   19 ar   
    23   19   20 ar   
    24   20   21 ar   
    25   21   22 ar   
    26   23   24 1    
    27   24   25 ar   
    28   24   26 ar   
    29   24   27 1    
    30   27   28 1    
    31   28   29 1    
    32   29   30 1    
    33   29   31 1    
    34   30   35 1    
    35   31   32 1    
    36   31   33 1    
    37   33   34 1    
    38   33   35 1    
    39   35   36 1    
    40   36   37 ar   
    41   36   44 ar   
    42   37   38 ar   
    43   38   39 1    
    44   38   42 ar   
    45   39   40 2    
    46   39   41 am   
    47   42   43 ar   
    48   43   44 ar   
@<TRIPOS>SUBSTRUCTURE
     1 NAD301      1 GROUP   
@<TRIPOS>SET
ATOM$ORANGE STATIC     ATOMS   COLORGROUP SYSTEM 
42 5 5 6 6 8 8 10 10 12 12 14 14 16 16 17 17 20 \
20 22 22 28 28 29 29 31 31 33 33 35 35 37 37 38 38 39 \
39 42 42 43 43 44 44 

