#    Name: 6csb_5_RTZ
#    Modification time : Fri May 22 19:27:08 2020

@<TRIPOS>MOLECULE
6csb_5_RTZ
   25    28     1     0     0
SMALL
NO_CHARGES


@<TRIPOS>ATOM
      1 CAA        13.7820   31.5550    8.5680 C.3       1 RTZ602      0.0000 
      2 CAB        22.1660   28.5320    8.2210 C.3       1 RTZ602      0.0000 
      3 CAC        13.0970   24.7670    7.7890 C.ar      1 RTZ602      0.0000 
      4 CAD        13.3510   23.9770    6.6900 C.ar      1 RTZ602      0.0000 
      5 CAE        17.9130   32.3630    9.2770 C.3       1 RTZ602      0.0000 
      6 CAF        16.8880   33.4850    9.3610 C.3       1 RTZ602      0.0000 
      7 CAG        17.5290   31.3370    8.2170 C.3       1 RTZ602      0.0000 
      8 CAH        13.9120   25.8500    8.0820 C.ar      1 RTZ602      0.0000 
      9 CAI        14.4340   24.2470    5.8740 C.ar      1 RTZ602      0.0000 
     10 CAJ        20.0220   26.6350    7.1880 C.ar      1 RTZ602      0.0000 
     11 CAK        19.1470   25.9800    6.3430 C.ar      1 RTZ602      0.0000 
     12 CAL        15.7550   29.7270    7.4450 C.3       1 RTZ602      0.0000 
     13 CAM        15.4930   32.9310    9.5530 C.3       1 RTZ602      0.0000 
     14 CAN        15.3170   28.4520    8.1540 C.3       1 RTZ602      0.0000 
     15 CAO        18.1720   27.7100    8.2690 C.ar      1 RTZ602      0.0000 
     16 CAP        16.1180   30.8130    8.4660 C.3       1 RTZ602      0.0000 
     17 CAQ        19.5430   27.5380    8.1230 C.ar      1 RTZ602      0.0000 
     18 CAR        15.0100   26.1420    7.2750 C.ar      1 RTZ602      0.0000 
     19 CAS        17.2690   27.0730    7.4230 C.ar      1 RTZ602      0.0000 
     20 CAT        15.2700   25.3210    6.1710 C.ar      1 RTZ602      0.0000 
     21 CAU        17.7770   26.2300    6.4280 C.ar      1 RTZ602      0.0000 
     22 NAV        15.1830   31.9640    8.4940 N.4       1 RTZ602      0.0000 
     23 NAW        15.8730   27.2180    7.5700 N.pl3     1 RTZ602      0.0000 
     24 SAX        20.5470   28.7270    8.9510 S.3       1 RTZ602      0.0000 
     25 SAY        16.7060   25.5840    5.1870 S.3       1 RTZ602      0.0000 
@<TRIPOS>BOND
     1    1   22 1    
     2    2   24 1    
     3    3    4 ar   
     4    3    8 ar   
     5    4    9 ar   
     6    5    6 1    
     7    5    7 1    
     8    6   13 1    
     9    7   16 1    
    10    8   18 ar   
    11    9   20 ar   
    12   10   11 ar   
    13   10   17 ar   
    14   11   21 ar   
    15   12   14 1    
    16   12   16 1    
    17   13   22 1    
    18   14   23 1    
    19   15   17 ar   
    20   15   19 ar   
    21   16   22 1    
    22   17   24 1    
    23   18   20 ar   
    24   18   23 1    
    25   19   21 ar   
    26   19   23 1    
    27   20   25 1    
    28   21   25 1    
@<TRIPOS>SUBSTRUCTURE
     1 RTZ602      1 GROUP   
@<TRIPOS>SET

