#    Name: 6csb_8_RTZ
#    Modification time : Fri May 22 19:27:31 2020

@<TRIPOS>MOLECULE
6csb_8_RTZ
   25    28     1     0     0
SMALL
NO_CHARGES


@<TRIPOS>ATOM
      1 CAA        15.7820   18.3120  -76.6770 C.3       1 RTZ603      0.0000 
      2 CAB        15.2820   21.2060  -72.2680 C.3       1 RTZ603      0.0000 
      3 CAC        14.1150   14.3850  -76.1110 C.ar      1 RTZ603      0.0000 
      4 CAD        13.8910   13.2640  -75.3420 C.ar      1 RTZ603      0.0000 
      5 CAE        19.6680   17.8330  -78.3010 C.3       1 RTZ603      0.0000 
      6 CAF        18.5120   18.0340  -79.2400 C.3       1 RTZ603      0.0000 
      7 CAG        19.2890   16.8840  -77.1780 C.3       1 RTZ603      0.0000 
      8 CAH        14.8330   15.4530  -75.6010 C.ar      1 RTZ603      0.0000 
      9 CAI        14.3650   13.2010  -74.0450 C.ar      1 RTZ603      0.0000 
     10 CAJ        14.3030   17.7990  -70.1510 C.ar      1 RTZ603      0.0000 
     11 CAK        14.5150   16.4500  -70.3620 C.ar      1 RTZ603      0.0000 
     12 CAL        17.7830   16.2400  -75.4790 C.3       1 RTZ603      0.0000 
     13 CAM        17.3090   18.5450  -78.4940 C.3       1 RTZ603      0.0000 
     14 CAN        17.3790   16.8520  -74.1500 C.3       1 RTZ603      0.0000 
     15 CAO        15.3380   18.3090  -72.2610 C.ar      1 RTZ603      0.0000 
     16 CAP        18.0470   17.3820  -76.4540 C.3       1 RTZ603      0.0000 
     17 CAQ        14.7340   18.7320  -71.0860 C.ar      1 RTZ603      0.0000 
     18 CAR        15.3360   15.4010  -74.3030 C.ar      1 RTZ603      0.0000 
     19 CAS        15.5300   16.9540  -72.4940 C.ar      1 RTZ603      0.0000 
     20 CAT        15.0680   14.2800  -73.5190 C.ar      1 RTZ603      0.0000 
     21 CAU        15.1410   16.0260  -71.5300 C.ar      1 RTZ603      0.0000 
     22 NAV        16.9150   17.6930  -77.3680 N.4       1 RTZ603      0.0000 
     23 NAW        16.0340   16.4650  -73.7030 N.pl3     1 RTZ603      0.0000 
     24 SAX        14.5730   20.4650  -70.8060 S.3       1 RTZ603      0.0000 
     25 SAY        15.4670   14.3180  -71.8050 S.3       1 RTZ603      0.0000 
@<TRIPOS>BOND
     1    1   22 1    
     2    2   24 1    
     3    3    4 ar   
     4    3    8 ar   
     5    4    9 ar   
     6    5    6 1    
     7    5    7 1    
     8    6   13 1    
     9    7   16 1    
    10    8   18 ar   
    11    9   20 ar   
    12   10   11 ar   
    13   10   17 ar   
    14   11   21 ar   
    15   12   14 1    
    16   12   16 1    
    17   13   22 1    
    18   14   23 1    
    19   15   17 ar   
    20   15   19 ar   
    21   16   22 1    
    22   17   24 1    
    23   18   20 ar   
    24   18   23 1    
    25   19   21 ar   
    26   19   23 1    
    27   20   25 1    
    28   21   25 1    
@<TRIPOS>SUBSTRUCTURE
     1 RTZ603      1 GROUP   
@<TRIPOS>SET

