#    Name: 6csb_6_RTZ
#    Modification time : Fri May 22 19:27:16 2020

@<TRIPOS>MOLECULE
6csb_6_RTZ
   25    28     1     0     0
SMALL
NO_CHARGES


@<TRIPOS>ATOM
      1 CAA         9.4500   18.7100   15.4840 C.3       1 RTZ603      0.0000 
      2 CAB        13.2390   20.9530    8.0640 C.3       1 RTZ603      0.0000 
      3 CAC        13.5880   14.2590   11.5270 C.ar      1 RTZ603      0.0000 
      4 CAD        12.6730   13.2900   11.1640 C.ar      1 RTZ603      0.0000 
      5 CAE         6.9600   18.3800   12.0490 C.3       1 RTZ603      0.0000 
      6 CAF         6.3670   18.1240   13.4220 C.3       1 RTZ603      0.0000 
      7 CAG         8.3760   17.8270   11.9490 C.3       1 RTZ603      0.0000 
      8 CAH        13.2650   15.6030   11.4290 C.ar      1 RTZ603      0.0000 
      9 CAI        11.4270   13.6480   10.6780 C.ar      1 RTZ603      0.0000 
     10 CAJ        10.1750   18.3590    7.0370 C.ar      1 RTZ603      0.0000 
     11 CAK         9.6380   17.2840    7.7220 C.ar      1 RTZ603      0.0000 
     12 CAL        10.6260   17.7190   13.0340 C.3       1 RTZ603      0.0000 
     13 CAM         7.2550   18.6880   14.5050 C.3       1 RTZ603      0.0000 
     14 CAN        11.5890   18.2120   11.9630 C.3       1 RTZ603      0.0000 
     15 CAO        11.6690   18.7930    8.8680 C.ar      1 RTZ603      0.0000 
     16 CAP         9.2470   18.3820   13.0670 C.3       1 RTZ603      0.0000 
     17 CAQ        11.2020   19.1060    7.6000 C.ar      1 RTZ603      0.0000 
     18 CAR        12.0150   15.9770   10.9480 C.ar      1 RTZ603      0.0000 
     19 CAS        11.1410   17.7150    9.5630 C.ar      1 RTZ603      0.0000 
     20 CAT        11.1030   14.9960   10.5530 C.ar      1 RTZ603      0.0000 
     21 CAU        10.1330   16.9450    8.9790 C.ar      1 RTZ603      0.0000 
     22 NAV         8.6280   18.1780   14.3990 N.4       1 RTZ603      0.0000 
     23 NAW        11.6400   17.3130   10.8030 N.pl3     1 RTZ603      0.0000 
     24 SAX        12.0410   20.4500    6.8300 S.3       1 RTZ603      0.0000 
     25 SAY         9.5830   15.4760    9.7890 S.3       1 RTZ603      0.0000 
@<TRIPOS>BOND
     1    1   22 1    
     2    2   24 1    
     3    3    4 ar   
     4    3    8 ar   
     5    4    9 ar   
     6    5    6 1    
     7    5    7 1    
     8    6   13 1    
     9    7   16 1    
    10    8   18 ar   
    11    9   20 ar   
    12   10   11 ar   
    13   10   17 ar   
    14   11   21 ar   
    15   12   14 1    
    16   12   16 1    
    17   13   22 1    
    18   14   23 1    
    19   15   17 ar   
    20   15   19 ar   
    21   16   22 1    
    22   17   24 1    
    23   18   20 ar   
    24   18   23 1    
    25   19   21 ar   
    26   19   23 1    
    27   20   25 1    
    28   21   25 1    
@<TRIPOS>SUBSTRUCTURE
     1 RTZ603      1 GROUP   
@<TRIPOS>SET

