#    Name: 6csb_4_RTZ
#    Modification time : Fri May 22 19:27:00 2020

@<TRIPOS>MOLECULE
6csb_4_RTZ
   25    28     1     0     0
SMALL
NO_CHARGES


@<TRIPOS>ATOM
      1 CAA        12.1570  -18.5260   13.2350 C.3       1 RTZ603      0.0000 
      2 CAB        11.1550  -22.4100    7.2340 C.3       1 RTZ603      0.0000 
      3 CAC         7.8780  -14.9970    9.5400 C.ar      1 RTZ603      0.0000 
      4 CAD         8.4110  -13.9220    8.8560 C.ar      1 RTZ603      0.0000 
      5 CAE        15.7600  -17.8210   11.1050 C.3       1 RTZ603      0.0000 
      6 CAF        15.7780  -18.0260   12.6090 C.3       1 RTZ603      0.0000 
      7 CAG        14.4770  -17.1280   10.6520 C.3       1 RTZ603      0.0000 
      8 CAH         8.5560  -16.2030    9.5940 C.ar      1 RTZ603      0.0000 
      9 CAI         9.6270  -14.0360    8.2070 C.ar      1 RTZ603      0.0000 
     10 CAJ        11.6130  -18.8770    5.1780 C.ar      1 RTZ603      0.0000 
     11 CAK        11.6840  -17.5320    5.4920 C.ar      1 RTZ603      0.0000 
     12 CAL        11.9510  -17.1650   10.8980 C.3       1 RTZ603      0.0000 
     13 CAM        14.5470  -18.7700   13.0670 C.3       1 RTZ603      0.0000 
     14 CAN        10.9410  -18.0860   10.2320 C.3       1 RTZ603      0.0000 
     15 CAO        10.9790  -19.3920    7.4450 C.ar      1 RTZ603      0.0000 
     16 CAP        13.2690  -17.8860   11.1720 C.3       1 RTZ603      0.0000 
     17 CAQ        11.3250  -19.8140    6.1640 C.ar      1 RTZ603      0.0000 
     18 CAR         9.7770  -16.3360    8.9430 C.ar      1 RTZ603      0.0000 
     19 CAS        11.0050  -18.0350    7.7550 C.ar      1 RTZ603      0.0000 
     20 CAT        10.3040  -15.2500    8.2390 C.ar      1 RTZ603      0.0000 
     21 CAU        11.4310  -17.1150    6.7970 C.ar      1 RTZ603      0.0000 
     22 NAV        13.3750  -18.0020   12.6350 N.4       1 RTZ603      0.0000 
     23 NAW        10.5040  -17.5300    8.9620 N.pl3     1 RTZ603      0.0000 
     24 SAX        11.5530  -21.5090    5.7320 S.3       1 RTZ603      0.0000 
     25 SAY        11.7790  -15.4590    7.2950 S.3       1 RTZ603      0.0000 
@<TRIPOS>BOND
     1    1   22 1    
     2    2   24 1    
     3    3    4 ar   
     4    3    8 ar   
     5    4    9 ar   
     6    5    6 1    
     7    5    7 1    
     8    6   13 1    
     9    7   16 1    
    10    8   18 ar   
    11    9   20 ar   
    12   10   11 ar   
    13   10   17 ar   
    14   11   21 ar   
    15   12   14 1    
    16   12   16 1    
    17   13   22 1    
    18   14   23 1    
    19   15   17 ar   
    20   15   19 ar   
    21   16   22 1    
    22   17   24 1    
    23   18   20 ar   
    24   18   23 1    
    25   19   21 ar   
    26   19   23 1    
    27   20   25 1    
    28   21   25 1    
@<TRIPOS>SUBSTRUCTURE
     1 RTZ603      1 GROUP   
@<TRIPOS>SET

