#    Name: 6csb_3_RTZ
#    Modification time : Fri May 22 19:26:52 2020

@<TRIPOS>MOLECULE
6csb_3_RTZ
   25    28     1     0     0
SMALL
NO_CHARGES


@<TRIPOS>ATOM
      1 CAA         8.0850  -30.8890    7.2540 C.3       1 RTZ602      0.0000 
      2 CAB        -0.4350  -28.1280    6.9070 C.3       1 RTZ602      0.0000 
      3 CAC         8.4540  -24.1390    6.0140 C.ar      1 RTZ602      0.0000 
      4 CAD         8.0780  -23.3590    4.9400 C.ar      1 RTZ602      0.0000 
      5 CAE         4.0120  -31.8570    8.1060 C.3       1 RTZ602      0.0000 
      6 CAF         5.0830  -32.9300    8.1780 C.3       1 RTZ602      0.0000 
      7 CAG         4.3170  -30.8400    7.0090 C.3       1 RTZ602      0.0000 
      8 CAH         7.7330  -25.2750    6.3440 C.ar      1 RTZ602      0.0000 
      9 CAI         6.9790  -23.7100    4.1740 C.ar      1 RTZ602      0.0000 
     10 CAJ         1.6320  -26.4550    5.5700 C.ar      1 RTZ602      0.0000 
     11 CAK         2.4600  -25.8420    4.6490 C.ar      1 RTZ602      0.0000 
     12 CAL         6.0020  -29.2350    6.0700 C.3       1 RTZ602      0.0000 
     13 CAM         6.4560  -32.3090    8.3180 C.3       1 RTZ602      0.0000 
     14 CAN         6.4290  -27.8930    6.6480 C.3       1 RTZ602      0.0000 
     15 CAO         3.5510  -27.2780    6.7490 C.ar      1 RTZ602      0.0000 
     16 CAP         5.7150  -30.2510    7.1810 C.3       1 RTZ602      0.0000 
     17 CAQ         2.1730  -27.2020    6.6060 C.ar      1 RTZ602      0.0000 
     18 CAR         6.6150  -25.6410    5.5980 C.ar      1 RTZ602      0.0000 
     19 CAS         4.4080  -26.6830    5.8300 C.ar      1 RTZ602      0.0000 
     20 CAT         6.2510  -24.8540    4.4980 C.ar      1 RTZ602      0.0000 
     21 CAU         3.8430  -25.9780    4.7590 C.ar      1 RTZ602      0.0000 
     22 NAV         6.7010  -31.3600    7.2240 N.4       1 RTZ602      0.0000 
     23 NAW         5.8100  -26.7360    5.9770 N.pl3     1 RTZ602      0.0000 
     24 SAX         1.1930  -28.2620    7.6190 S.3       1 RTZ602      0.0000 
     25 SAY         4.8720  -25.3090    3.4950 S.3       1 RTZ602      0.0000 
@<TRIPOS>BOND
     1    1   22 1    
     2    2   24 1    
     3    3    4 ar   
     4    3    8 ar   
     5    4    9 ar   
     6    5    6 1    
     7    5    7 1    
     8    6   13 1    
     9    7   16 1    
    10    8   18 ar   
    11    9   20 ar   
    12   10   11 ar   
    13   10   17 ar   
    14   11   21 ar   
    15   12   14 1    
    16   12   16 1    
    17   13   22 1    
    18   14   23 1    
    19   15   17 ar   
    20   15   19 ar   
    21   16   22 1    
    22   17   24 1    
    23   18   20 ar   
    24   18   23 1    
    25   19   21 ar   
    26   19   23 1    
    27   20   25 1    
    28   21   25 1    
@<TRIPOS>SUBSTRUCTURE
     1 RTZ602      1 GROUP   
@<TRIPOS>SET

