#    Name: 6csb_7_RTZ
#    Modification time : Fri May 22 19:27:23 2020

@<TRIPOS>MOLECULE
6csb_7_RTZ
   25    28     1     0     0
SMALL
NO_CHARGES


@<TRIPOS>ATOM
      1 CAA        11.6180   30.1470  -72.4130 C.3       1 RTZ602      0.0000 
      2 CAB         3.2100   27.5380  -71.9550 C.3       1 RTZ602      0.0000 
      3 CAC        12.0990   23.3810  -71.3460 C.ar      1 RTZ602      0.0000 
      4 CAD        11.7460   22.5670  -70.2940 C.ar      1 RTZ602      0.0000 
      5 CAE         7.4790   31.0410  -73.0240 C.3       1 RTZ602      0.0000 
      6 CAF         8.5160   32.1440  -73.1210 C.3       1 RTZ602      0.0000 
      7 CAG         7.8570   30.0200  -71.9490 C.3       1 RTZ602      0.0000 
      8 CAH        11.3560   24.5130  -71.6390 C.ar      1 RTZ602      0.0000 
      9 CAI        10.6440   22.8700  -69.5150 C.ar      1 RTZ602      0.0000 
     10 CAJ         5.2580   25.7130  -70.8130 C.ar      1 RTZ602      0.0000 
     11 CAK         6.0750   25.0200  -69.9380 C.ar      1 RTZ602      0.0000 
     12 CAL         9.6370   28.4740  -71.0780 C.3       1 RTZ602      0.0000 
     13 CAM         9.8990   31.5660  -73.3330 C.3       1 RTZ602      0.0000 
     14 CAN        10.1000   27.1710  -71.7150 C.3       1 RTZ602      0.0000 
     15 CAO         7.1950   26.5680  -71.9410 C.ar      1 RTZ602      0.0000 
     16 CAP         9.2670   29.4820  -72.1740 C.3       1 RTZ602      0.0000 
     17 CAQ         5.8130   26.5180  -71.7960 C.ar      1 RTZ602      0.0000 
     18 CAR        10.2410   24.8370  -70.8720 C.ar      1 RTZ602      0.0000 
     19 CAS         8.0420   25.9020  -71.0560 C.ar      1 RTZ602      0.0000 
     20 CAT         9.8900   24.0040  -69.8040 C.ar      1 RTZ602      0.0000 
     21 CAU         7.4630   25.1370  -70.0350 C.ar      1 RTZ602      0.0000 
     22 NAV        10.2330   30.6030  -72.2760 N.4       1 RTZ602      0.0000 
     23 NAW         9.4510   25.9640  -71.1700 N.pl3     1 RTZ602      0.0000 
     24 SAX         4.8340   27.6790  -72.6940 S.3       1 RTZ602      0.0000 
     25 SAY         8.4830   24.3730  -68.8140 S.3       1 RTZ602      0.0000 
@<TRIPOS>BOND
     1    1   22 1    
     2    2   24 1    
     3    3    4 ar   
     4    3    8 ar   
     5    4    9 ar   
     6    5    6 1    
     7    5    7 1    
     8    6   13 1    
     9    7   16 1    
    10    8   18 ar   
    11    9   20 ar   
    12   10   11 ar   
    13   10   17 ar   
    14   11   21 ar   
    15   12   14 1    
    16   12   16 1    
    17   13   22 1    
    18   14   23 1    
    19   15   17 ar   
    20   15   19 ar   
    21   16   22 1    
    22   17   24 1    
    23   18   20 ar   
    24   18   23 1    
    25   19   21 ar   
    26   19   23 1    
    27   20   25 1    
    28   21   25 1    
@<TRIPOS>SUBSTRUCTURE
     1 RTZ602      1 GROUP   
@<TRIPOS>SET

