#    Name: 6csb_2_RTZ
#    Modification time : Fri May 22 19:26:45 2020

@<TRIPOS>MOLECULE
6csb_2_RTZ
   25    28     1     0     0
SMALL
NO_CHARGES


@<TRIPOS>ATOM
      1 CAA        13.1390  -18.2710  -74.3840 C.3       1 RTZ603      0.0000 
      2 CAB        13.7530  -23.7960  -68.9150 C.3       1 RTZ603      0.0000 
      3 CAC        16.5700  -17.6570  -72.5570 C.ar      1 RTZ603      0.0000 
      4 CAD        16.7080  -16.5020  -71.8120 C.ar      1 RTZ603      0.0000 
      5 CAE         9.1510  -19.7680  -74.5290 C.3       1 RTZ603      0.0000 
      6 CAF         9.8390  -19.2420  -75.7820 C.3       1 RTZ603      0.0000 
      7 CAG         9.6740  -19.0810  -73.2690 C.3       1 RTZ603      0.0000 
      8 CAH        15.5950  -18.5890  -72.2390 C.ar      1 RTZ603      0.0000 
      9 CAI        15.8750  -16.2600  -70.7340 C.ar      1 RTZ603      0.0000 
     10 CAJ        14.3020  -20.3340  -66.6820 C.ar      1 RTZ603      0.0000 
     11 CAK        14.2670  -19.0050  -67.0660 C.ar      1 RTZ603      0.0000 
     12 CAL        11.7560  -18.7430  -71.8730 C.3       1 RTZ603      0.0000 
     13 CAM        11.3460  -19.2690  -75.6360 C.3       1 RTZ603      0.0000 
     14 CAN        12.7740  -19.8240  -71.5450 C.3       1 RTZ603      0.0000 
     15 CAO        13.9420  -21.0210  -68.9550 C.ar      1 RTZ603      0.0000 
     16 CAP        11.1890  -19.2030  -73.2140 C.3       1 RTZ603      0.0000 
     17 CAQ        14.1150  -21.3430  -67.6200 C.ar      1 RTZ603      0.0000 
     18 CAR        14.7560  -18.3640  -71.1540 C.ar      1 RTZ603      0.0000 
     19 CAS        13.9240  -19.6940  -69.3530 C.ar      1 RTZ603      0.0000 
     20 CAT        14.9050  -17.1990  -70.3980 C.ar      1 RTZ603      0.0000 
     21 CAU        14.0600  -18.6800  -68.4040 C.ar      1 RTZ603      0.0000 
     22 NAV        11.6990  -18.5250  -74.4270 N.4       1 RTZ603      0.0000 
     23 NAW        13.8540  -19.3270  -70.6940 N.pl3     1 RTZ603      0.0000 
     24 SAX        14.0080  -23.0710  -67.2960 S.3       1 RTZ603      0.0000 
     25 SAY        13.9500  -16.9980  -68.9280 S.3       1 RTZ603      0.0000 
@<TRIPOS>BOND
     1    1   22 1    
     2    2   24 1    
     3    3    4 ar   
     4    3    8 ar   
     5    4    9 ar   
     6    5    6 1    
     7    5    7 1    
     8    6   13 1    
     9    7   16 1    
    10    8   18 ar   
    11    9   20 ar   
    12   10   11 ar   
    13   10   17 ar   
    14   11   21 ar   
    15   12   14 1    
    16   12   16 1    
    17   13   22 1    
    18   14   23 1    
    19   15   17 ar   
    20   15   19 ar   
    21   16   22 1    
    22   17   24 1    
    23   18   20 ar   
    24   18   23 1    
    25   19   21 ar   
    26   19   23 1    
    27   20   25 1    
    28   21   25 1    
@<TRIPOS>SUBSTRUCTURE
     1 RTZ603      1 GROUP   
@<TRIPOS>SET

