#    Name: 6csb_1_RTZ
#    Modification time : Fri May 22 19:26:37 2020

@<TRIPOS>MOLECULE
6csb_1_RTZ
   25    28     1     0     0
SMALL
NO_CHARGES


@<TRIPOS>ATOM
      1 CAA        17.2330  -32.4730  -68.9420 C.3       1 RTZ602      0.0000 
      2 CAB        25.6450  -29.3860  -68.4780 C.3       1 RTZ602      0.0000 
      3 CAC        16.5950  -25.7710  -68.0180 C.ar      1 RTZ602      0.0000 
      4 CAD        16.9370  -24.8670  -67.0360 C.ar      1 RTZ602      0.0000 
      5 CAE        21.3550  -33.2520  -69.7350 C.3       1 RTZ602      0.0000 
      6 CAF        20.3350  -34.3620  -69.9060 C.3       1 RTZ602      0.0000 
      7 CAG        20.9870  -32.3400  -68.5670 C.3       1 RTZ602      0.0000 
      8 CAH        17.3490  -26.9180  -68.2140 C.ar      1 RTZ602      0.0000 
      9 CAI        18.0330  -25.0990  -66.2280 C.ar      1 RTZ602      0.0000 
     10 CAJ        23.4770  -27.7360  -67.3240 C.ar      1 RTZ602      0.0000 
     11 CAK        22.6200  -27.0800  -66.4640 C.ar      1 RTZ602      0.0000 
     12 CAL        19.2490  -30.7830  -67.6280 C.3       1 RTZ602      0.0000 
     13 CAM        18.9350  -33.7960  -70.0100 C.3       1 RTZ602      0.0000 
     14 CAN        18.7450  -29.4910  -68.2570 C.3       1 RTZ602      0.0000 
     15 CAO        21.6020  -28.7490  -68.4220 C.ar      1 RTZ602      0.0000 
     16 CAP        19.5810  -31.7790  -68.7470 C.3       1 RTZ602      0.0000 
     17 CAQ        22.9740  -28.5920  -68.2870 C.ar      1 RTZ602      0.0000 
     18 CAR        18.4690  -27.1640  -67.4230 C.ar      1 RTZ602      0.0000 
     19 CAS        20.7150  -28.1180  -67.5550 C.ar      1 RTZ602      0.0000 
     20 CAT        18.7970  -26.2480  -66.4170 C.ar      1 RTZ602      0.0000 
     21 CAU        21.2460  -27.2870  -66.5600 C.ar      1 RTZ602      0.0000 
     22 NAV        18.6270  -32.9100  -68.8800 N.4       1 RTZ602      0.0000 
     23 NAW        19.3180  -28.2600  -67.6810 N.pl3     1 RTZ602      0.0000 
     24 SAX        24.0290  -29.6730  -69.1930 S.3       1 RTZ602      0.0000 
     25 SAY        20.1890  -26.5240  -65.3810 S.3       1 RTZ602      0.0000 
@<TRIPOS>BOND
     1    1   22 1    
     2    2   24 1    
     3    3    4 ar   
     4    3    8 ar   
     5    4    9 ar   
     6    5    6 1    
     7    5    7 1    
     8    6   13 1    
     9    7   16 1    
    10    8   18 ar   
    11    9   20 ar   
    12   10   11 ar   
    13   10   17 ar   
    14   11   21 ar   
    15   12   14 1    
    16   12   16 1    
    17   13   22 1    
    18   14   23 1    
    19   15   17 ar   
    20   15   19 ar   
    21   16   22 1    
    22   17   24 1    
    23   18   20 ar   
    24   18   23 1    
    25   19   21 ar   
    26   19   23 1    
    27   20   25 1    
    28   21   25 1    
@<TRIPOS>SUBSTRUCTURE
     1 RTZ602      1 GROUP   
@<TRIPOS>SET

