#    Name: 6cvj_3_GDP
#    Modification time : Fri May 22 19:30:19 2020

@<TRIPOS>MOLECULE
6cvj_3_GDP
   28    30     1     0     1
SMALL
NO_CHARGES


@<TRIPOS>ATOM
      1 PB        362.4670  460.6720  303.6020 P.3       1 GDP501      0.0000 
      2 O1B       362.0230  461.8460  302.7620 O.co2     1 GDP501      0.0000 
      3 O2B       361.6250  459.4720  303.2420 O.co2     1 GDP501      0.0000 
      4 O3B       362.2900  461.0170  305.0620 O.co2     1 GDP501      0.0000 
      5 O3A       364.0150  460.3610  303.2830 O.3       1 GDP501      0.0000 
      6 PA        364.8590  459.3080  304.1620 P.3       1 GDP501      0.0000 
      7 O1A       364.9240  457.9710  303.4650 O.co2     1 GDP501      0.0000 
      8 O2A       364.2530  459.1600  305.5360 O.co2     1 GDP501      0.0000 
      9 O5'       366.3280  459.9600  304.2610 O.3       1 GDP501      0.0000 
     10 C5'       367.4640  459.2210  303.8220 C.3       1 GDP501      0.0000 
     11 C4'       368.5680  459.2460  304.8700 C.3       1 GDP501      0.0000 
     12 O4'       368.1850  458.3870  305.9440 O.3       1 GDP501      0.0000 
     13 C3'       369.8580  458.6970  304.2930 C.3       1 GDP501      0.0000 
     14 O3'       370.9610  459.5300  304.6640 O.3       1 GDP501      0.0000 
     15 C2'       370.0290  457.3200  304.8980 C.3       1 GDP501      0.0000 
     16 O2'       371.3890  457.1110  305.2900 O.3       1 GDP501      0.0000 
     17 C1'       369.1120  457.3100  306.1070 C.3       1 GDP501      0.0000 
     18 N9        368.3630  456.0320  306.1850 N.pl3     1 GDP501      0.0000 
     19 C8        367.5130  455.5560  305.2550 C.2       1 GDP501      0.0000 
     20 N7        366.9850  454.3660  305.6410 N.2       1 GDP501      0.0000 
     21 C5        367.4960  454.0710  306.8510 C.2       1 GDP501      0.0000 
     22 C6        367.3560  452.9710  307.8330 C.2       1 GDP501      0.0000 
     23 O6        366.6140  451.9920  307.6030 O.2       1 GDP501      0.0000 
     24 N1        368.0700  453.0460  308.9640 N.am      1 GDP501      0.0000 
     25 C2        368.8850  454.0820  309.2380 C.2       1 GDP501      0.0000 
     26 N2        369.5640  454.0840  310.4100 N.pl3     1 GDP501      0.0000 
     27 N3        369.0560  455.1270  308.3880 N.2       1 GDP501      0.0000 
     28 C4        368.4040  455.1720  307.2020 C.2       1 GDP501      0.0000 
@<TRIPOS>BOND
     1    1    2 ar   
     2    1    3 ar   
     3    1    4 ar   
     4    1    5 1    
     5    5    6 1    
     6    6    7 ar   
     7    6    8 ar   
     8    6    9 1    
     9    9   10 1    
    10   10   11 1    
    11   11   12 1    
    12   11   13 1    
    13   12   17 1    
    14   13   14 1    
    15   13   15 1    
    16   15   16 1    
    17   15   17 1    
    18   17   18 1    
    19   18   19 1    
    20   18   28 1    
    21   19   20 2    
    22   20   21 1    
    23   21   22 1    
    24   21   28 2    
    25   22   23 2    
    26   22   24 am   
    27   24   25 1    
    28   25   26 1    
    29   25   27 2    
    30   27   28 1    
@<TRIPOS>SUBSTRUCTURE
     1 GDP501      1 GROUP   
@<TRIPOS>SET
ATOM$ORANGE STATIC     ATOMS   COLORGROUP SYSTEM 
20 10 10 11 11 13 13 15 15 17 17 19 19 21 21 22 22 25 \
25 28 28 

