#    Name: 6cvj_2_GDP
#    Modification time : Fri May 22 19:30:06 2020

@<TRIPOS>MOLECULE
6cvj_2_GDP
   28    30     1     0     1
SMALL
NO_CHARGES


@<TRIPOS>ATOM
      1 PB        361.5210  460.7970  222.4480 P.3       1 GDP501      0.0000 
      2 O1B       360.9500  461.7660  221.4430 O.co2     1 GDP501      0.0000 
      3 O2B       360.7800  459.4870  222.3260 O.co2     1 GDP501      0.0000 
      4 O3B       361.3630  461.3580  223.8420 O.co2     1 GDP501      0.0000 
      5 O3A       363.0800  460.5700  222.1200 O.3       1 GDP501      0.0000 
      6 PA        363.9370  459.5260  222.9920 P.3       1 GDP501      0.0000 
      7 O1A       364.0400  458.1950  222.2870 O.co2     1 GDP501      0.0000 
      8 O2A       363.2880  459.3620  224.3440 O.co2     1 GDP501      0.0000 
      9 O5'       365.3880  460.2120  223.1250 O.3       1 GDP501      0.0000 
     10 C5'       366.5480  459.5310  222.6540 C.3       1 GDP501      0.0000 
     11 C4'       367.5960  459.4490  223.7540 C.3       1 GDP501      0.0000 
     12 O4'       367.1340  458.5300  224.7410 O.3       1 GDP501      0.0000 
     13 C3'       368.9070  458.9030  223.2200 C.3       1 GDP501      0.0000 
     14 O3'       369.9940  459.7100  223.6840 O.3       1 GDP501      0.0000 
     15 C2'       369.0400  457.5050  223.7850 C.3       1 GDP501      0.0000 
     16 O2'       370.3780  457.2610  224.2240 O.3       1 GDP501      0.0000 
     17 C1'       368.0820  457.4820  224.9600 C.3       1 GDP501      0.0000 
     18 N9        367.3820  456.1760  225.0610 N.pl3     1 GDP501      0.0000 
     19 C8        366.4720  455.6900  224.1960 C.2       1 GDP501      0.0000 
     20 N7        366.0240  454.4700  224.5910 N.2       1 GDP501      0.0000 
     21 C5        366.6520  454.1620  225.7410 C.2       1 GDP501      0.0000 
     22 C6        366.6470  453.0270  226.6950 C.2       1 GDP501      0.0000 
     23 O6        365.9170  452.0300  226.5060 O.2       1 GDP501      0.0000 
     24 N1        367.4480  453.1020  227.7660 N.am      1 GDP501      0.0000 
     25 C2        368.2450  454.1630  227.9970 C.2       1 GDP501      0.0000 
     26 N2        369.0250  454.1610  229.1040 N.pl3     1 GDP501      0.0000 
     27 N3        368.3000  455.2360  227.1670 N.2       1 GDP501      0.0000 
     28 C4        367.5430  455.2890  226.0460 C.2       1 GDP501      0.0000 
@<TRIPOS>BOND
     1    1    2 ar   
     2    1    3 ar   
     3    1    4 ar   
     4    1    5 1    
     5    5    6 1    
     6    6    7 ar   
     7    6    8 ar   
     8    6    9 1    
     9    9   10 1    
    10   10   11 1    
    11   11   12 1    
    12   11   13 1    
    13   12   17 1    
    14   13   14 1    
    15   13   15 1    
    16   15   16 1    
    17   15   17 1    
    18   17   18 1    
    19   18   19 1    
    20   18   28 1    
    21   19   20 2    
    22   20   21 1    
    23   21   22 1    
    24   21   28 2    
    25   22   23 2    
    26   22   24 am   
    27   24   25 1    
    28   25   26 1    
    29   25   27 2    
    30   27   28 1    
@<TRIPOS>SUBSTRUCTURE
     1 GDP501      1 GROUP   
@<TRIPOS>SET
ATOM$ORANGE STATIC     ATOMS   COLORGROUP SYSTEM 
20 10 10 11 11 13 13 15 15 17 17 19 19 21 21 22 22 25 \
25 28 28 

