#    Name: 6cvj_1_GTP
#    Modification time : Fri May 22 19:30:00 2020

@<TRIPOS>MOLECULE
6cvj_1_GTP
   32    34     1     0     1
SMALL
NO_CHARGES


@<TRIPOS>ATOM
      1 PG        361.2950  461.6830  261.5060 P.3       1 GTP501      0.0000 
      2 O1G       362.4230  462.4630  260.8820 O.co2     1 GTP501      0.0000 
      3 O2G       359.9940  462.3700  261.1750 O.co2     1 GTP501      0.0000 
      4 O3G       361.2950  460.2770  260.9580 O.co2     1 GTP501      0.0000 
      5 O3B       361.4690  461.6470  263.1070 O.3       1 GTP501      0.0000 
      6 PB        362.0490  460.3590  263.8810 P.3       1 GTP501      0.0000 
      7 O1B       361.2930  459.1210  263.4630 O.co2     1 GTP501      0.0000 
      8 O2B       361.9350  460.5790  265.3700 O.co2     1 GTP501      0.0000 
      9 O3A       363.5910  460.2460  263.4240 O.3       1 GTP501      0.0000 
     10 PA        364.6530  459.3690  264.2640 P.3       1 GTP501      0.0000 
     11 O1A       365.0560  458.1630  263.4490 O.co2     1 GTP501      0.0000 
     12 O2A       364.1020  458.9440  265.6040 O.co2     1 GTP501      0.0000 
     13 O5'       365.9240  460.3420  264.4420 O.3       1 GTP501      0.0000 
     14 C5'       367.1960  459.9750  263.9550 C.3       1 GTP501      0.0000 
     15 C4'       368.1130  459.5620  265.1010 C.3       1 GTP501      0.0000 
     16 O4'       367.4990  458.5620  265.8900 O.3       1 GTP501      0.0000 
     17 C3'       369.4180  458.9810  264.5840 C.3       1 GTP501      0.0000 
     18 O3'       370.4920  459.8190  264.9430 O.3       1 GTP501      0.0000 
     19 C2'       369.5670  457.6440  265.2800 C.3       1 GTP501      0.0000 
     20 O2'       370.8380  457.5340  265.8750 O.3       1 GTP501      0.0000 
     21 C1'       368.4620  457.6230  266.3260 C.3       1 GTP501      0.0000 
     22 N9        367.8680  456.2770  266.4110 N.pl3     1 GTP501      0.0000 
     23 C8        366.9280  455.7400  265.5720 C.2       1 GTP501      0.0000 
     24 N7        366.6410  454.4870  265.9960 N.2       1 GTP501      0.0000 
     25 C5        367.3770  454.2210  267.0980 C.2       1 GTP501      0.0000 
     26 C6        367.4680  453.1040  267.9210 C.2       1 GTP501      0.0000 
     27 O6        366.7910  452.1050  267.6930 O.2       1 GTP501      0.0000 
     28 N1        368.3260  453.1190  269.0000 N.am      1 GTP501      0.0000 
     29 C2        369.0880  454.2400  269.2560 C.2       1 GTP501      0.0000 
     30 N2        369.9160  454.2550  270.2970 N.pl3     1 GTP501      0.0000 
     31 N3        368.9920  455.3460  268.4350 N.2       1 GTP501      0.0000 
     32 C4        368.1510  455.3390  267.3720 C.2       1 GTP501      0.0000 
@<TRIPOS>BOND
     1    1    2 ar   
     2    1    3 ar   
     3    1    4 ar   
     4    1    5 1    
     5    5    6 1    
     6    6    7 ar   
     7    6    8 ar   
     8    6    9 1    
     9    9   10 1    
    10   10   11 ar   
    11   10   12 ar   
    12   10   13 1    
    13   13   14 1    
    14   14   15 1    
    15   15   16 1    
    16   15   17 1    
    17   16   21 1    
    18   17   18 1    
    19   17   19 1    
    20   19   20 1    
    21   19   21 1    
    22   21   22 1    
    23   22   23 1    
    24   22   32 1    
    25   23   24 2    
    26   24   25 1    
    27   25   26 1    
    28   25   32 2    
    29   26   27 2    
    30   26   28 am   
    31   28   29 1    
    32   29   30 1    
    33   29   31 2    
    34   31   32 1    
@<TRIPOS>SUBSTRUCTURE
     1 GTP501      1 GROUP   
@<TRIPOS>SET
ATOM$ORANGE STATIC     ATOMS   COLORGROUP SYSTEM 
20 14 14 15 15 17 17 19 19 21 21 23 23 25 25 26 26 29 \
29 32 32 

