#    Name: 5ztf_1_ACP_CAVITY_N1_6
#    Modification time : Fri May 22 19:23:56 2020

@<TRIPOS>MOLECULE
5ztf_1_ACP_CAVITY_N1_6
   27     0     5     0     0
SMALL
NO_CHARGES


@<TRIPOS>ATOM
      1 OD1        28.3000    7.9100   -1.7300 O.co2     1 ASP3        0.0000 
      2 OD1        26.8700    8.3300   -1.5100 O.co2     1 ASP3        0.0000 
      3 OD1        25.0600    7.3300   -1.0400 O.co2     1 ASP3        0.0000 
      4 OD1        25.3400    7.5300    0.4300 O.co2     1 ASP3        0.0000 
      5 NZ         30.5900    6.6700   -5.0800 N.4       2 LYS4        0.0000 
      6 NZ         28.7800    5.6700   -4.6000 N.4       2 LYS4        0.0000 
      7 NZ         26.7600    7.1000    0.2100 N.4       2 LYS4        0.0000 
      8 CZ         28.0200    7.7100   -3.1900 C.ar      3 PHE5        0.0000 
      9 CZ         26.6000    8.1400   -2.9700 C.ar      3 PHE5        0.0000 
     10 CA         30.2000    5.2400   -4.8100 C.3       4 GLY6        0.0000 
     11 CA         30.9700    8.0900   -5.3400 C.3       4 GLY6        0.0000 
     12 CA         29.1600    7.0900   -4.8600 C.3       4 GLY6        0.0000 
     13 CA         29.5500    8.5200   -5.1300 C.3       4 GLY6        0.0000 
     14 CA         27.7400    7.5200   -4.6500 C.3       4 GLY6        0.0000 
     15 CA         28.6700    4.4400   -2.8700 C.3       4 GLY6        0.0000 
     16 CA         29.0500    5.8600   -3.1400 C.3       4 GLY6        0.0000 
     17 CA         29.8300    8.7100   -3.6600 C.3       4 GLY6        0.0000 
     18 CA         27.6300    6.2900   -2.9200 C.3       4 GLY6        0.0000 
     19 CA         28.4100    9.1400   -3.4500 C.3       4 GLY6        0.0000 
     20 CA         26.2100    6.7100   -2.7100 C.3       4 GLY6        0.0000 
     21 CA         24.4000    5.7100   -2.2300 C.3       4 GLY6        0.0000 
     22 CA         24.7900    7.1400   -2.5000 C.3       4 GLY6        0.0000 
     23 CA         29.3300    6.0600   -1.6800 C.3       4 GLY6        0.0000 
     24 CA         26.4900    6.9100   -1.2500 C.3       4 GLY6        0.0000 
     25 CA         24.6800    5.9100   -0.7700 C.3       4 GLY6        0.0000 
     26 DU         30.4800    5.4400   -3.3500 H         5 CUB7        0.0000 
     27 DU         29.4400    7.2900   -3.4000 H         5 CUB7        0.0000 
@<TRIPOS>BOND
@<TRIPOS>SUBSTRUCTURE
     1 ASP3        1 GROUP   
     2 LYS4        5 GROUP   
     3 PHE5        8 GROUP   
     4 GLY6       10 GROUP   
     5 CUB7       26 GROUP   
@<TRIPOS>SET

