#    Name: 5ztf_1_ACP_CAVITY_N1_4
#    Modification time : Fri May 22 19:23:56 2020

@<TRIPOS>MOLECULE
5ztf_1_ACP_CAVITY_N1_4
    8     0     4     0     0
SMALL
NO_CHARGES


@<TRIPOS>ATOM
      1 OD1        25.0600    7.3300   -1.0400 O.co2     1 ASP3        0.0000 
      2 NZ         28.7800    5.6700   -4.6000 N.4       2 LYS4        0.0000 
      3 CZ         26.6000    8.1400   -2.9700 C.ar      3 PHE5        0.0000 
      4 CA         27.7400    7.5200   -4.6500 C.3       4 GLY6        0.0000 
      5 CA         27.6300    6.2900   -2.9200 C.3       4 GLY6        0.0000 
      6 CA         26.2100    6.7100   -2.7100 C.3       4 GLY6        0.0000 
      7 CA         24.4000    5.7100   -2.2300 C.3       4 GLY6        0.0000 
      8 CA         24.7900    7.1400   -2.5000 C.3       4 GLY6        0.0000 
@<TRIPOS>BOND
@<TRIPOS>SUBSTRUCTURE
     1 ASP3        1 GROUP   
     2 LYS4        2 GROUP   
     3 PHE5        3 GROUP   
     4 GLY6        4 GROUP   
@<TRIPOS>SET

