#    Name: 5ztf_1_ACP
#    Modification time : Fri May 22 19:23:55 2020

@<TRIPOS>MOLECULE
5ztf_1_ACP
   31    33     1     0     1
SMALL
NO_CHARGES


@<TRIPOS>ATOM
      1 PG         18.9330    9.7340    3.0450 P.3       1 ACP2001     0.0000 
      2 O1G        19.2400   11.2360    3.0840 O.co2     1 ACP2001     0.0000 
      3 O2G        17.8060    9.4220    4.0230 O.co2     1 ACP2001     0.0000 
      4 O3G        20.1550    8.9230    3.3860 O.co2     1 ACP2001     0.0000 
      5 PB         19.4870    9.7290    0.0430 P.3       1 ACP2001     0.0000 
      6 O1B        18.6860    9.6240   -1.2040 O.co2     1 ACP2001     0.0000 
      7 O2B        20.6420    8.7920   -0.0100 O.co2     1 ACP2001     0.0000 
      8 C3B        18.3080    9.2740    1.3880 C.3       1 ACP2001     0.0000 
      9 PA         21.1160   11.9150   -0.8280 P.3       1 ACP2001     0.0000 
     10 O1A        21.0780   13.3850   -0.7120 O.co2     1 ACP2001     0.0000 
     11 O2A        22.4940   11.4330   -0.6010 O.co2     1 ACP2001     0.0000 
     12 O3A        20.0770   11.2670    0.2540 O.3       1 ACP2001     0.0000 
     13 O5'        20.6260   11.4480   -2.3530 O.3       1 ACP2001     0.0000 
     14 C5'        19.4430   12.0420   -2.8690 C.3       1 ACP2001     0.0000 
     15 C4'        19.2230   11.4470   -4.2670 C.3       1 ACP2001     0.0000 
     16 O4'        20.3900   11.1100   -4.6780 O.3       1 ACP2001     0.0000 
     17 C3'        18.4560   10.1060   -4.1480 C.3       1 ACP2001     0.0000 
     18 O3'        17.1460   10.2650   -4.4720 O.3       1 ACP2001     0.0000 
     19 C2'        19.1250    9.1750   -5.1380 C.3       1 ACP2001     0.0000 
     20 O2'        18.2000    8.9820   -6.3160 O.3       1 ACP2001     0.0000 
     21 C1'        20.2310    9.7680   -5.5400 C.3       1 ACP2001     0.0000 
     22 N9         21.3860    8.9180   -5.2990 N.pl3     1 ACP2001     0.0000 
     23 C8         21.8290    8.4680   -4.1030 C.2       1 ACP2001     0.0000 
     24 N7         22.9230    7.7090   -4.3190 N.2       1 ACP2001     0.0000 
     25 C5         23.1540    7.6920   -5.6340 C.ar      1 ACP2001     0.0000 
     26 C6         24.1320    7.0770   -6.3780 C.ar      1 ACP2001     0.0000 
     27 N6         25.3250    6.1920   -6.0570 N.pl3     1 ACP2001     0.0000 
     28 N1         24.1470    7.2160   -7.7060 N.ar      1 ACP2001     0.0000 
     29 C2         23.1900    7.9670   -8.3250 C.ar      1 ACP2001     0.0000 
     30 N3         22.2150    8.5800   -7.5840 N.ar      1 ACP2001     0.0000 
     31 C4         22.2010    8.4410   -6.2470 C.ar      1 ACP2001     0.0000 
@<TRIPOS>BOND
     1    1    2 ar   
     2    1    3 ar   
     3    1    4 ar   
     4    1    8 1    
     5    5    6 ar   
     6    5    7 ar   
     7    5    8 1    
     8    5   12 1    
     9    9   10 ar   
    10    9   11 ar   
    11    9   12 1    
    12    9   13 1    
    13   13   14 1    
    14   14   15 1    
    15   15   16 1    
    16   15   17 1    
    17   16   21 1    
    18   17   18 1    
    19   17   19 1    
    20   19   20 1    
    21   19   21 1    
    22   21   22 1    
    23   22   23 1    
    24   22   31 1    
    25   23   24 2    
    26   24   25 1    
    27   25   26 ar   
    28   25   31 ar   
    29   26   27 1    
    30   26   28 ar   
    31   28   29 ar   
    32   29   30 ar   
    33   30   31 ar   
@<TRIPOS>SUBSTRUCTURE
     1 ACP2001     1 GROUP   
@<TRIPOS>SET
ATOM$ORANGE STATIC     ATOMS   COLORGROUP SYSTEM 
22 8 8 14 14 15 15 17 17 19 19 21 21 23 23 25 25 26 \
26 29 29 31 31 

