#    Name: 6n7f_1_FAD
#    Modification time : Fri May 22 19:29:27 2020

@<TRIPOS>MOLECULE
6n7f_1_FAD
   53    58     1     0     1
SMALL
NO_CHARGES


@<TRIPOS>ATOM
      1 PA         19.9590  -15.0610   -7.2840 P.3       1 FAD501      0.0000 
      2 O1A        20.6100  -15.8260   -6.1850 O.co2     1 FAD501      0.0000 
      3 O2A        19.4980  -15.7990   -8.5010 O.co2     1 FAD501      0.0000 
      4 O5B        20.9210  -13.8720   -7.7500 O.3       1 FAD501      0.0000 
      5 C5B        21.6960  -13.1140   -6.8010 C.3       1 FAD501      0.0000 
      6 C4B        23.0280  -12.7940   -7.4300 C.3       1 FAD501      0.0000 
      7 O4B        23.5950  -11.6330   -6.7740 O.3       1 FAD501      0.0000 
      8 C3B        24.0970  -13.8920   -7.3380 C.3       1 FAD501      0.0000 
      9 O3B        24.5960  -14.1870   -8.6370 O.3       1 FAD501      0.0000 
     10 C2B        25.1750  -13.2860   -6.4280 C.3       1 FAD501      0.0000 
     11 O2B        26.4780  -13.6920   -6.7820 O.3       1 FAD501      0.0000 
     12 C1B        24.9870  -11.7980   -6.6910 C.3       1 FAD501      0.0000 
     13 N9A        25.4690  -10.8670   -5.6670 N.pl3     1 FAD501      0.0000 
     14 C8A        25.2240  -10.8920   -4.3170 C.2       1 FAD501      0.0000 
     15 N7A        25.7700   -9.8730   -3.6880 N.2       1 FAD501      0.0000 
     16 C5A        26.3920   -9.1320   -4.6850 C.ar      1 FAD501      0.0000 
     17 C6A        27.1410   -7.9370   -4.6640 C.ar      1 FAD501      0.0000 
     18 N6A        27.3940   -7.2360   -3.5600 N.pl3     1 FAD501      0.0000 
     19 N1A        27.6090   -7.4770   -5.8480 N.ar      1 FAD501      0.0000 
     20 C2A        27.3460   -8.1780   -6.9580 C.ar      1 FAD501      0.0000 
     21 N3A        26.6610   -9.3110   -7.0960 N.ar      1 FAD501      0.0000 
     22 C4A        26.2050   -9.7380   -5.9070 C.ar      1 FAD501      0.0000 
     23 N1         12.6330  -21.4400   -8.5690 N.2       1 FAD501      0.0000 
     24 C2         11.6730  -21.7560   -9.4600 C.2       1 FAD501      0.0000 
     25 O2         10.8390  -20.9090   -9.8190 O.2       1 FAD501      0.0000 
     26 N3         11.5580  -23.0250   -9.9770 N.am      1 FAD501      0.0000 
     27 C4         12.4290  -24.0350   -9.6260 C.2       1 FAD501      0.0000 
     28 O4         12.2980  -25.1520  -10.1200 O.2       1 FAD501      0.0000 
     29 C4X        13.4670  -23.7240   -8.7050 C.2       1 FAD501      0.0000 
     30 N5         14.3210  -24.6630   -8.3570 N.2       1 FAD501      0.0000 
     31 C5X        15.3200  -24.3210   -7.4780 C.ar      1 FAD501      0.0000 
     32 C6         16.2580  -25.3020   -7.1100 C.ar      1 FAD501      0.0000 
     33 C7         17.2970  -25.0260   -6.2530 C.ar      1 FAD501      0.0000 
     34 C7M        18.2830  -26.1090   -5.8930 C.3       1 FAD501      0.0000 
     35 C8         17.4250  -23.7170   -5.7190 C.ar      1 FAD501      0.0000 
     36 C8M        18.5440  -23.3730   -4.7670 C.3       1 FAD501      0.0000 
     37 C9         16.4990  -22.7510   -6.0550 C.ar      1 FAD501      0.0000 
     38 C9A        15.4430  -23.0220   -6.9420 C.ar      1 FAD501      0.0000 
     39 N10        14.5080  -22.0580   -7.3260 N.pl3     1 FAD501      0.0000 
     40 C10        13.4970  -22.3690   -8.2150 C.2       1 FAD501      0.0000 
     41 C1'        14.5720  -20.6950   -6.7610 C.3       1 FAD501      0.0000 
     42 C2'        15.2280  -19.6910   -7.6760 C.3       1 FAD501      0.0000 
     43 O2'        16.4960  -20.1610   -8.0890 O.3       1 FAD501      0.0000 
     44 C3'        15.3890  -18.3580   -6.9400 C.3       1 FAD501      0.0000 
     45 O3'        14.1540  -17.9670   -6.3660 O.3       1 FAD501      0.0000 
     46 C4'        15.8830  -17.2190   -7.8290 C.3       1 FAD501      0.0000 
     47 O4'        17.1170  -17.6030   -8.4380 O.3       1 FAD501      0.0000 
     48 C5'        16.0760  -15.9400   -7.0440 C.3       1 FAD501      0.0000 
     49 O5'        16.6340  -14.9360   -7.9160 O.3       1 FAD501      0.0000 
     50 P          17.3600  -13.6450   -7.2900 P.3       1 FAD501      0.0000 
     51 O1P        16.5350  -13.1370   -6.1530 O.co2     1 FAD501      0.0000 
     52 O2P        17.6430  -12.7510   -8.4530 O.co2     1 FAD501      0.0000 
     53 O3P        18.7170  -14.2500   -6.6980 O.3       1 FAD501      0.0000 
@<TRIPOS>BOND
     1    1    2 ar   
     2    1    3 ar   
     3    1    4 1    
     4    1   53 1    
     5    4    5 1    
     6    5    6 1    
     7    6    7 1    
     8    6    8 1    
     9    7   12 1    
    10    8    9 1    
    11    8   10 1    
    12   10   11 1    
    13   10   12 1    
    14   12   13 1    
    15   13   14 1    
    16   13   22 1    
    17   14   15 2    
    18   15   16 1    
    19   16   17 ar   
    20   16   22 ar   
    21   17   18 1    
    22   17   19 ar   
    23   19   20 ar   
    24   20   21 ar   
    25   21   22 ar   
    26   23   24 1    
    27   23   40 2    
    28   24   25 2    
    29   24   26 am   
    30   26   27 am   
    31   27   28 2    
    32   27   29 1    
    33   29   30 2    
    34   29   40 1    
    35   30   31 1    
    36   31   32 ar   
    37   31   38 ar   
    38   32   33 ar   
    39   33   34 1    
    40   33   35 ar   
    41   35   36 1    
    42   35   37 ar   
    43   37   38 ar   
    44   38   39 1    
    45   39   40 1    
    46   39   41 1    
    47   41   42 1    
    48   42   43 1    
    49   42   44 1    
    50   44   45 1    
    51   44   46 1    
    52   46   47 1    
    53   46   48 1    
    54   48   49 1    
    55   49   50 1    
    56   50   51 ar   
    57   50   52 ar   
    58   50   53 1    
@<TRIPOS>SUBSTRUCTURE
     1 FAD501      1 GROUP   
@<TRIPOS>SET
ATOM$ORANGE STATIC     ATOMS   COLORGROUP SYSTEM 
54 5 5 6 6 8 8 10 10 12 12 14 14 16 16 17 17 20 \
20 22 22 24 24 27 27 29 29 31 31 32 32 33 33 34 34 35 \
35 36 36 37 37 38 38 40 40 41 41 42 42 44 44 46 46 48 \
48 

