#    Name: 6oiy_1_DGT_CAVITY_N1_6
#    Modification time : Fri May 22 19:29:38 2020

@<TRIPOS>MOLECULE
6oiy_1_DGT_CAVITY_N1_6
  172     0     7     0     0
SMALL
NO_CHARGES


@<TRIPOS>ATOM
      1 OG         62.5300   32.3100   29.4900 O.3       1 SER1        0.0000 
      2 OG         67.3700   33.6000   25.5600 O.3       1 SER1        0.0000 
      3 OG         63.5000   33.0600   30.3500 O.3       1 SER1        0.0000 
      4 OG         62.7500   32.6200   31.5800 O.3       1 SER1        0.0000 
      5 OG         70.7000   34.0100   24.0700 O.3       1 SER1        0.0000 
      6 OG         66.0800   33.0300   30.0900 O.3       1 SER1        0.0000 
      7 OG         65.3300   32.5900   31.3100 O.3       1 SER1        0.0000 
      8 OG         64.4700   33.8100   31.2200 O.3       1 SER1        0.0000 
      9 OG         63.7200   33.3700   32.4400 O.3       1 SER1        0.0000 
     10 OG         69.4200   33.4400   28.6000 O.3       1 SER1        0.0000 
     11 OG         68.5500   34.6600   28.5100 O.3       1 SER1        0.0000 
     12 OG         67.8000   34.2200   29.7300 O.3       1 SER1        0.0000 
     13 OG         66.3000   33.3400   32.1700 O.3       1 SER1        0.0000 
     14 OG         71.2500   32.9700   29.5500 O.3       1 SER1        0.0000 
     15 OG         69.8600   34.0600   32.7700 O.3       1 SER1        0.0000 
     16 O          64.0300   33.1900   27.0400 O.2       2 ALA2        0.0000 
     17 O          62.4200   33.9800   28.1800 O.2       2 ALA2        0.0000 
     18 O          62.6400   34.2900   30.2600 O.2       2 ALA2        0.0000 
     19 O          64.1700   30.3600   37.1500 O.2       2 ALA2        0.0000 
     20 O          63.3000   31.5800   37.0600 O.2       2 ALA2        0.0000 
     21 N          62.5500   31.1400   38.2900 N.am      2 ALA2        0.0000 
     22 N          61.6900   32.3700   38.1900 N.am      2 ALA2        0.0000 
     23 O          65.6600   34.8700   34.1700 O.2       2 ALA2        0.0000 
     24 O          64.7900   36.1000   34.0800 O.2       2 ALA2        0.0000 
     25 O          64.1600   34.0000   36.6100 O.2       2 ALA2        0.0000 
     26 O          63.4100   33.5600   37.8400 O.2       2 ALA2        0.0000 
     27 N          62.5400   34.7800   37.7500 N.am      2 ALA2        0.0000 
     28 O          62.6600   33.1200   39.0600 O.2       2 ALA2        0.0000 
     29 N          61.7900   34.3400   38.9700 N.am      2 ALA2        0.0000 
     30 N          61.9100   32.6800   40.2800 N.am      2 ALA2        0.0000 
     31 O          67.3800   36.0600   33.8100 O.2       2 ALA2        0.0000 
     32 O          66.6300   35.6200   35.0400 O.2       2 ALA2        0.0000 
     33 O          65.8800   35.1800   36.2600 O.2       2 ALA2        0.0000 
     34 O          65.0100   36.4100   36.1700 O.2       2 ALA2        0.0000 
     35 O          65.1300   34.7500   37.4800 O.2       2 ALA2        0.0000 
     36 N          64.4900   32.6400   40.0200 N.am      2 ALA2        0.0000 
     37 N          63.6300   33.8700   39.9200 N.am      2 ALA2        0.0000 
     38 OD1        65.6500   32.4100   25.9100 O.co2     3 ASP3        0.0000 
     39 OD1        68.2300   32.3800   25.6500 O.co2     3 ASP3        0.0000 
     40 OD1        68.3400   30.7200   26.9600 O.co2     3 ASP3        0.0000 
     41 OD1        67.4800   31.9400   26.8700 O.co2     3 ASP3        0.0000 
     42 OD1        66.6200   33.1600   26.7800 O.co2     3 ASP3        0.0000 
     43 OD1        65.7500   34.3800   26.6900 O.co2     3 ASP3        0.0000 
     44 OD1        64.8900   35.6100   26.6000 O.co2     3 ASP3        0.0000 
     45 OD1        65.8600   32.7200   28.0000 O.co2     3 ASP3        0.0000 
     46 OD1        65.1100   32.2800   29.2200 O.co2     3 ASP3        0.0000 
     47 OD1        71.5600   32.7900   24.1600 O.co2     3 ASP3        0.0000 
     48 OD1        70.8100   32.3500   25.3800 O.co2     3 ASP3        0.0000 
     49 OD1        69.9500   33.5700   25.2900 O.co2     3 ASP3        0.0000 
     50 OD1        70.0600   31.9100   26.6000 O.co2     3 ASP3        0.0000 
     51 OD1        69.2000   33.1300   26.5100 O.co2     3 ASP3        0.0000 
     52 OD1        67.4700   35.5700   26.3300 O.co2     3 ASP3        0.0000 
     53 OD1        66.7200   35.1300   27.5500 O.co2     3 ASP3        0.0000 
     54 OD1        67.7000   32.2500   28.9600 O.co2     3 ASP3        0.0000 
     55 OD1        62.8500   34.6000   32.3500 O.co2     3 ASP3        0.0000 
     56 OD1        62.9700   32.9300   33.6600 O.co2     3 ASP3        0.0000 
     57 OD1        66.1900   35.0000   30.8600 O.co2     3 ASP3        0.0000 
     58 OD1        64.5700   35.7900   31.9900 O.co2     3 ASP3        0.0000 
     59 OD1        64.6900   34.1200   33.3100 O.co2     3 ASP3        0.0000 
     60 OD1        63.9400   33.6800   34.5300 O.co2     3 ASP3        0.0000 
     61 OD1        63.1900   33.2500   35.7500 O.co2     3 ASP3        0.0000 
     62 OD1        61.5700   34.0300   36.8800 O.co2     3 ASP3        0.0000 
     63 OD1        72.7500   33.8500   27.1100 O.co2     3 ASP3        0.0000 
     64 OD1        72.0000   33.4100   28.3300 O.co2     3 ASP3        0.0000 
     65 OD1        64.9100   34.4300   35.3900 O.co2     3 ASP3        0.0000 
     66 OD1        68.4800   27.8800   37.0700 O.co2     3 ASP3        0.0000 
     67 OD1        63.2900   35.2200   36.5200 O.co2     3 ASP3        0.0000 
     68 NZ         63.2800   32.7500   28.2700 N.4       4 LYS4        0.0000 
     69 NZ         69.0900   34.7900   25.2000 N.4       4 LYS4        0.0000 
     70 NZ         68.3300   34.3500   26.4200 N.4       4 LYS4        0.0000 
     71 NZ         63.6000   35.0400   31.1300 N.4       4 LYS4        0.0000 
     72 NZ         71.6700   34.7600   24.9300 N.4       4 LYS4        0.0000 
     73 NZ         70.9200   34.3200   26.1500 N.4       4 LYS4        0.0000 
     74 NZ         70.1700   33.8800   27.3800 N.4       4 LYS4        0.0000 
     75 NZ         69.3000   35.1000   27.2900 N.4       4 LYS4        0.0000 
     76 NZ         71.8900   35.0700   27.0200 N.4       4 LYS4        0.0000 
     77 NZ         66.8600   28.6700   38.2000 N.4       4 LYS4        0.0000 
     78 NZ         66.0000   29.8900   38.1100 N.4       4 LYS4        0.0000 
     79 NZ         65.1400   31.1100   38.0200 N.4       4 LYS4        0.0000 
     80 NZ         64.3900   30.6700   39.2400 N.4       4 LYS4        0.0000 
     81 NZ         63.5200   31.8900   39.1500 N.4       4 LYS4        0.0000 
     82 NZ         66.9700   30.6400   38.9700 N.4       4 LYS4        0.0000 
     83 NZ         66.1000   31.8600   38.8800 N.4       4 LYS4        0.0000 
     84 NZ         68.3500   36.8100   34.6800 N.4       4 LYS4        0.0000 
     85 NZ         68.4600   35.1500   35.9900 N.4       4 LYS4        0.0000 
     86 NZ         67.6000   36.3700   35.9000 N.4       4 LYS4        0.0000 
     87 CZ         64.7800   33.6300   25.8200 C.ar      5 PHE5        0.0000 
     88 CZ         64.9300   27.1700   36.4700 C.ar      5 PHE5        0.0000 
     89 CZ         67.6900   35.8800   28.4200 C.ar      5 PHE5        0.0000 
     90 CZ         66.9400   35.4400   29.6400 C.ar      5 PHE5        0.0000 
     91 CZ         66.4200   31.6800   33.4900 C.ar      5 PHE5        0.0000 
     92 CZ         65.5500   32.9000   33.4000 C.ar      5 PHE5        0.0000 
     93 CZ         66.5300   30.0200   34.8000 C.ar      5 PHE5        0.0000 
     94 CZ         65.6700   31.2400   34.7100 C.ar      5 PHE5        0.0000 
     95 CZ         64.8000   32.4600   34.6200 C.ar      5 PHE5        0.0000 
     96 CZ         65.7800   29.5800   36.0200 C.ar      5 PHE5        0.0000 
     97 CZ         64.9200   30.8000   35.9300 C.ar      5 PHE5        0.0000 
     98 CZ         64.0500   32.0200   35.8400 C.ar      5 PHE5        0.0000 
     99 CZ         65.9000   27.9200   37.3400 C.ar      5 PHE5        0.0000 
    100 CZ         65.0300   29.1400   37.2500 C.ar      5 PHE5        0.0000 
    101 CZ         63.4200   29.9200   38.3800 C.ar      5 PHE5        0.0000 
    102 CZ         68.0200   34.5300   31.8200 C.ar      5 PHE5        0.0000 
    103 CZ         68.9900   35.2800   32.6800 C.ar      5 PHE5        0.0000 
    104 CZ         68.1300   36.5000   32.5900 C.ar      5 PHE5        0.0000 
    105 CZ         69.9700   32.4000   34.0900 C.ar      5 PHE5        0.0000 
    106 CZ         68.2400   34.8400   33.9000 C.ar      5 PHE5        0.0000 
    107 CZ         69.2200   31.9600   35.3100 C.ar      5 PHE5        0.0000 
    108 CZ         68.3600   33.1800   35.2200 C.ar      5 PHE5        0.0000 
    109 CZ         69.3300   30.3000   36.6200 C.ar      5 PHE5        0.0000 
    110 CZ         68.4700   31.5200   36.5300 C.ar      5 PHE5        0.0000 
    111 CZ         67.6100   32.7400   36.4400 C.ar      5 PHE5        0.0000 
    112 CZ         68.5800   29.8600   37.8400 C.ar      5 PHE5        0.0000 
    113 CZ         67.7200   31.0800   37.7500 C.ar      5 PHE5        0.0000 
    114 CZ         71.6900   33.5900   33.7300 C.ar      5 PHE5        0.0000 
    115 CZ         71.8000   31.9200   35.0400 C.ar      5 PHE5        0.0000 
    116 CZ         70.9400   33.1500   34.9500 C.ar      5 PHE5        0.0000 
    117 CZ         70.0800   34.3700   34.8600 C.ar      5 PHE5        0.0000 
    118 CZ         69.2100   35.5900   34.7700 C.ar      5 PHE5        0.0000 
    119 CZ         69.3200   33.9300   36.0800 C.ar      5 PHE5        0.0000 
    120 CZ         68.5700   33.4900   37.3000 C.ar      5 PHE5        0.0000 
    121 CZ         67.7100   34.7100   37.2100 C.ar      5 PHE5        0.0000 
    122 CZ         68.6900   31.8300   38.6200 C.ar      5 PHE5        0.0000 
    123 CZ         67.8200   33.0500   38.5300 C.ar      5 PHE5        0.0000 
    124 CZ         67.9400   31.3900   39.8400 C.ar      5 PHE5        0.0000 
    125 CZ         71.7900   35.5600   34.5000 C.ar      5 PHE5        0.0000 
    126 CZ         71.0400   35.1200   35.7300 C.ar      5 PHE5        0.0000 
    127 CZ         72.7600   36.3100   35.3700 C.ar      5 PHE5        0.0000 
    128 CA         62.4400   32.8100   36.9700 C.3       6 GLY6        0.0000 
    129 CA         61.0400   33.9000   40.1900 C.3       6 GLY6        0.0000 
    130 CA         65.9900   33.5200   37.5700 C.3       6 GLY6        0.0000 
    131 CA         65.2400   33.0800   38.7900 C.3       6 GLY6        0.0000 
    132 CA         73.3100   32.8000   32.6000 C.3       6 GLY6        0.0000 
    133 CA         72.4400   34.0300   32.5100 C.3       6 GLY6        0.0000 
    134 CA         73.4200   31.1400   33.9100 C.3       6 GLY6        0.0000 
    135 CA         72.5500   32.3600   33.8200 C.3       6 GLY6        0.0000 
    136 CA         66.8500   35.9300   37.1200 C.3       6 GLY6        0.0000 
    137 CA         66.9600   34.2700   38.4400 C.3       6 GLY6        0.0000 
    138 CA         67.0700   32.6100   39.7500 C.3       6 GLY6        0.0000 
    139 CA         73.5200   33.1100   34.6800 C.3       6 GLY6        0.0000 
    140 CA         72.6600   34.3400   34.5900 C.3       6 GLY6        0.0000 
    141 CA         73.6300   35.0900   35.4600 C.3       6 GLY6        0.0000 
    142 DU         65.0000   33.9400   27.9100 H         7 CUB7        0.0000 
    143 DU         64.2500   33.5000   29.1300 H         7 CUB7        0.0000 
    144 DU         68.4500   32.6900   27.7300 H         7 CUB7        0.0000 
    145 DU         67.5800   33.9100   27.6400 H         7 CUB7        0.0000 
    146 DU         66.8300   33.4700   28.8700 H         7 CUB7        0.0000 
    147 DU         65.9700   34.6900   28.7700 H         7 CUB7        0.0000 
    148 DU         65.2200   34.2500   30.0000 H         7 CUB7        0.0000 
    149 DU         71.7800   33.1000   26.2500 H         7 CUB7        0.0000 
    150 DU         71.0300   32.6600   27.4700 H         7 CUB7        0.0000 
    151 DU         67.0500   33.7800   30.9500 H         7 CUB7        0.0000 
    152 DU         65.4400   34.5600   32.0800 H         7 CUB7        0.0000 
    153 DU         66.6500   28.3600   36.1100 H         7 CUB7        0.0000 
    154 DU         68.1400   32.8700   33.1300 H         7 CUB7        0.0000 
    155 DU         67.2700   34.0900   33.0400 H         7 CUB7        0.0000 
    156 DU         66.4100   35.3100   32.9500 H         7 CUB7        0.0000 
    157 DU         68.2500   31.2100   34.4400 H         7 CUB7        0.0000 
    158 DU         67.3900   32.4300   34.3500 H         7 CUB7        0.0000 
    159 DU         66.5200   33.6500   34.2600 H         7 CUB7        0.0000 
    160 DU         68.3700   29.5500   35.7600 H         7 CUB7        0.0000 
    161 DU         67.5000   30.7700   35.6700 H         7 CUB7        0.0000 
    162 DU         66.6400   31.9900   35.5700 H         7 CUB7        0.0000 
    163 DU         65.7700   33.2100   35.4800 H         7 CUB7        0.0000 
    164 DU         67.6100   29.1100   36.9800 H         7 CUB7        0.0000 
    165 DU         66.7500   30.3300   36.8900 H         7 CUB7        0.0000 
    166 DU         65.8900   31.5500   36.8000 H         7 CUB7        0.0000 
    167 DU         65.0200   32.7700   36.7100 H         7 CUB7        0.0000 
    168 DU         64.2700   32.3300   37.9300 H         7 CUB7        0.0000 
    169 DU         69.1100   33.6200   34.0000 H         7 CUB7        0.0000 
    170 DU         67.4900   34.4000   35.1300 H         7 CUB7        0.0000 
    171 DU         66.7400   33.9600   36.3500 H         7 CUB7        0.0000 
    172 DU         66.8500   32.3000   37.6600 H         7 CUB7        0.0000 
@<TRIPOS>BOND
@<TRIPOS>SUBSTRUCTURE
     1 SER1        1 GROUP   
     2 ALA2       16 GROUP   
     3 ASP3       38 GROUP   
     4 LYS4       68 GROUP   
     5 PHE5       87 GROUP   
     6 GLY6      128 GROUP   
     7 CUB7      142 GROUP   
@<TRIPOS>SET

