#    Name: 6oiy_1_DGT
#    Modification time : Fri May 22 19:29:37 2020

@<TRIPOS>MOLECULE
6oiy_1_DGT
   31    33     1     0     0
SMALL
NO_CHARGES


@<TRIPOS>ATOM
      1 PG         65.3300   33.6270   26.7510 P.3       1 DGT601      0.0000 
      2 O1G        64.4710   34.7060   27.3370 O.co2     1 DGT601      0.0000 
      3 O2G        64.9850   32.2060   26.9030 O.co2     1 DGT601      0.0000 
      4 O3G        65.5810   33.8560   25.3490 O.co2     1 DGT601      0.0000 
      5 O3B        66.7930   33.7570   27.4140 O.3       1 DGT601      0.0000 
      6 PB         67.3000   34.5390   28.7170 P.3       1 DGT601      0.0000 
      7 O1B        67.8170   33.5160   29.6060 O.co2     1 DGT601      0.0000 
      8 O2B        67.9120   35.8680   28.3580 O.co2     1 DGT601      0.0000 
      9 O3A        65.9940   34.5990   29.5800 O.3       1 DGT601      0.0000 
     10 PA         65.6730   34.7320   31.1190 P.3       1 DGT601      0.0000 
     11 O1A        65.5880   36.2260   31.4800 O.co2     1 DGT601      0.0000 
     12 O2A        64.4390   33.8970   31.0480 O.co2     1 DGT601      0.0000 
     13 O5'        66.7930   33.9450   31.8830 O.3       1 DGT601      0.0000 
     14 C5'        67.6880   34.5560   32.8360 C.3       1 DGT601      0.0000 
     15 C4'        67.0350   35.3110   33.9560 C.3       1 DGT601      0.0000 
     16 O4'        66.7010   34.3320   34.8820 O.3       1 DGT601      0.0000 
     17 C3'        67.8970   36.2430   34.7250 C.3       1 DGT601      0.0000 
     18 O3'        67.1200   37.3860   35.0000 O.3       1 DGT601      0.0000 
     19 C2'        68.2720   35.5510   36.0010 C.3       1 DGT601      0.0000 
     20 C1'        67.2740   34.4220   36.1580 C.3       1 DGT601      0.0000 
     21 N9         67.6410   32.9920   36.3510 N.pl3     1 DGT601      0.0000 
     22 C8         68.1160   32.1820   35.4260 C.2       1 DGT601      0.0000 
     23 N7         68.3260   30.9430   35.8080 N.2       1 DGT601      0.0000 
     24 C5         67.9080   30.9350   37.0610 C.2       1 DGT601      0.0000 
     25 C6         67.8160   29.9680   38.1600 C.2       1 DGT601      0.0000 
     26 O6         68.1640   28.8140   37.9810 O.2       1 DGT601      0.0000 
     27 N1         67.3750   30.3150   39.3410 N.am      1 DGT601      0.0000 
     28 C2         66.9780   31.5060   39.5730 C.2       1 DGT601      0.0000 
     29 N2         66.5410   31.7960   40.7580 N.pl3     1 DGT601      0.0000 
     30 N3         67.0160   32.4420   38.6590 N.2       1 DGT601      0.0000 
     31 C4         67.4760   32.2560   37.4130 C.2       1 DGT601      0.0000 
@<TRIPOS>BOND
     1    1    2 ar   
     2    1    3 ar   
     3    1    4 ar   
     4    1    5 1    
     5    5    6 1    
     6    6    7 ar   
     7    6    8 ar   
     8    6    9 1    
     9    9   10 1    
    10   10   11 ar   
    11   10   12 ar   
    12   10   13 1    
    13   13   14 1    
    14   14   15 1    
    15   15   16 1    
    16   15   17 1    
    17   16   20 1    
    18   17   18 1    
    19   17   19 1    
    20   19   20 1    
    21   20   21 1    
    22   21   22 1    
    23   21   31 1    
    24   22   23 2    
    25   23   24 1    
    26   24   25 1    
    27   24   31 2    
    28   25   26 2    
    29   25   27 am   
    30   27   28 1    
    31   28   29 1    
    32   28   30 2    
    33   30   31 1    
@<TRIPOS>SUBSTRUCTURE
     1 DGT601      1 GROUP   
@<TRIPOS>SET

