#    Name: 6oiy_5_DGT_CAVITY_N1_4
#    Modification time : Fri May 22 19:30:25 2020

@<TRIPOS>MOLECULE
6oiy_5_DGT_CAVITY_N1_4
  141     0     7     0     0
SMALL
NO_CHARGES


@<TRIPOS>ATOM
      1 OG         44.2800   64.5700   42.7800 O.3       1 SER1        0.0000 
      2 OG         46.8700   64.5400   42.5100 O.3       1 SER1        0.0000 
      3 OG         46.1200   64.1000   43.7400 O.3       1 SER1        0.0000 
      4 OG         45.2500   65.3200   43.6400 O.3       1 SER1        0.0000 
      5 OG         46.4600   59.1100   47.6700 O.3       1 SER1        0.0000 
      6 OG         45.5900   60.3400   47.5800 O.3       1 SER1        0.0000 
      7 OG         44.8400   59.9000   48.8100 O.3       1 SER1        0.0000 
      8 OG         43.9800   61.1200   48.7100 O.3       1 SER1        0.0000 
      9 OG         43.1100   62.3400   48.6200 O.3       1 SER1        0.0000 
     10 OG         47.7200   66.9500   42.0600 O.3       1 SER1        0.0000 
     11 OG         46.9700   66.5100   43.2900 O.3       1 SER1        0.0000 
     12 OG         48.1800   60.3000   47.3200 O.3       1 SER1        0.0000 
     13 OG         44.0800   63.0900   49.4900 O.3       1 SER1        0.0000 
     14 OG         48.5800   69.3600   41.6200 O.3       1 SER1        0.0000 
     15 OG         48.9200   64.3800   45.5600 O.3       1 SER1        0.0000 
     16 OG         48.0500   65.6000   45.4600 O.3       1 SER1        0.0000 
     17 OG         50.4100   68.8900   42.5700 O.3       1 SER1        0.0000 
     18 OG         49.8900   65.1300   46.4200 O.3       1 SER1        0.0000 
     19 OG         49.0200   66.3500   46.3300 O.3       1 SER1        0.0000 
     20 OG         50.0000   63.4700   47.7300 O.3       1 SER1        0.0000 
     21 O          45.9100   60.1600   42.1900 O.2       2 ALA2        0.0000 
     22 O          46.0200   58.4900   43.5000 O.2       2 ALA2        0.0000 
     23 N          43.7700   57.1700   47.1700 N.am      2 ALA2        0.0000 
     24 N          43.0200   56.7400   48.3900 N.am      2 ALA2        0.0000 
     25 O          46.8800   60.9100   43.0500 O.2       2 ALA2        0.0000 
     26 O          46.9900   59.2400   44.3700 O.2       2 ALA2        0.0000 
     27 O          46.2400   58.8000   45.5900 O.2       2 ALA2        0.0000 
     28 O          45.4900   58.3600   46.8100 O.2       2 ALA2        0.0000 
     29 N          45.6000   56.7000   48.1200 N.am      2 ALA2        0.0000 
     30 N          44.8500   56.2600   49.3400 N.am      2 ALA2        0.0000 
     31 O          48.7100   60.4300   44.0100 O.2       2 ALA2        0.0000 
     32 N          48.8200   58.7700   45.3200 N.am      2 ALA2        0.0000 
     33 N          48.0700   58.3300   46.5400 N.am      2 ALA2        0.0000 
     34 O          50.6500   61.9300   45.7400 O.2       2 ALA2        0.0000 
     35 N          51.5000   64.3500   45.2900 N.am      2 ALA2        0.0000 
     36 O          50.7500   63.9100   46.5100 O.2       2 ALA2        0.0000 
     37 N          53.2200   65.5400   44.9300 N.am      2 ALA2        0.0000 
     38 N          52.3600   66.7600   44.8400 N.am      2 ALA2        0.0000 
     39 N          51.4900   67.9800   44.7500 N.am      2 ALA2        0.0000 
     40 N          52.4700   65.1000   46.1500 N.am      2 ALA2        0.0000 
     41 OD1        41.4000   61.1500   48.9800 O.co2     3 ASP3        0.0000 
     42 OD1        48.6000   62.1000   42.6900 O.co2     3 ASP3        0.0000 
     43 OD1        42.2500   63.5600   48.5300 O.co2     3 ASP3        0.0000 
     44 OD1        41.3900   64.7900   48.4400 O.co2     3 ASP3        0.0000 
     45 OD1        42.3600   61.9000   49.8500 O.co2     3 ASP3        0.0000 
     46 OD1        49.4500   64.5100   42.2500 O.co2     3 ASP3        0.0000 
     47 OD1        49.5600   62.8500   43.5600 O.co2     3 ASP3        0.0000 
     48 OD1        48.7000   64.0700   43.4700 O.co2     3 ASP3        0.0000 
     49 OD1        43.2200   64.3100   49.4000 O.co2     3 ASP3        0.0000 
     50 OD1        50.3100   66.9200   41.8000 O.co2     3 ASP3        0.0000 
     51 OD1        49.4400   68.1400   41.7100 O.co2     3 ASP3        0.0000 
     52 OD1        50.4200   65.2600   43.1100 O.co2     3 ASP3        0.0000 
     53 OD1        48.6900   67.7000   42.9300 O.co2     3 ASP3        0.0000 
     54 OD1        47.8300   68.9200   42.8400 O.co2     3 ASP3        0.0000 
     55 OD1        47.9400   67.2600   44.1500 O.co2     3 ASP3        0.0000 
     56 OD1        51.2700   67.6700   42.6600 O.co2     3 ASP3        0.0000 
     57 OD1        49.6600   68.4500   43.7900 O.co2     3 ASP3        0.0000 
     58 OD1        49.7700   66.7900   45.1100 O.co2     3 ASP3        0.0000 
     59 OD1        48.9100   68.0100   45.0200 O.co2     3 ASP3        0.0000 
     60 NZ         45.1600   59.7200   43.4100 N.4       4 LYS4        0.0000 
     61 NZ         44.2900   60.9400   43.3200 N.4       4 LYS4        0.0000 
     62 NZ         42.1600   57.9600   48.3000 N.4       4 LYS4        0.0000 
     63 NZ         41.2900   59.1800   48.2100 N.4       4 LYS4        0.0000 
     64 NZ         43.9900   57.4900   49.2500 N.4       4 LYS4        0.0000 
     65 NZ         43.1200   58.7100   49.1600 N.4       4 LYS4        0.0000 
     66 NZ         42.2600   59.9300   49.0700 N.4       4 LYS4        0.0000 
     67 NZ         44.9600   58.2300   50.1200 N.4       4 LYS4        0.0000 
     68 NZ         48.5900   65.7300   42.1600 N.4       4 LYS4        0.0000 
     69 NZ         50.4300   61.6200   43.6500 N.4       4 LYS4        0.0000 
     70 NZ         51.2800   64.0400   43.2000 N.4       4 LYS4        0.0000 
     71 NZ         50.5300   63.6000   44.4200 N.4       4 LYS4        0.0000 
     72 NZ         51.6100   66.3200   46.0600 N.4       4 LYS4        0.0000 
     73 NZ         50.7400   67.5400   45.9700 N.4       4 LYS4        0.0000 
     74 NZ         51.7200   64.6600   47.3800 N.4       4 LYS4        0.0000 
     75 NZ         50.8600   65.8800   47.2900 N.4       4 LYS4        0.0000 
     76 NZ         49.9900   67.1000   47.1900 N.4       4 LYS4        0.0000 
     77 CZ         45.0400   61.3800   42.1000 C.ar      5 PHE5        0.0000 
     78 CZ         43.4300   62.1600   43.2300 C.ar      5 PHE5        0.0000 
     79 CZ         43.5400   60.5000   44.5400 C.ar      5 PHE5        0.0000 
     80 CZ         42.6800   61.7200   44.4500 C.ar      5 PHE5        0.0000 
     81 CZ         42.7900   60.0600   45.7600 C.ar      5 PHE5        0.0000 
     82 CZ         42.9100   58.4000   47.0800 C.ar      5 PHE5        0.0000 
     83 CZ         42.0400   59.6200   46.9800 C.ar      5 PHE5        0.0000 
     84 CZ         46.0100   62.1300   42.9600 C.ar      5 PHE5        0.0000 
     85 CZ         45.1500   63.3500   42.8700 C.ar      5 PHE5        0.0000 
     86 CZ         44.5100   61.2500   45.4100 C.ar      5 PHE5        0.0000 
     87 CZ         42.7800   63.6900   45.2200 C.ar      5 PHE5        0.0000 
     88 CZ         42.9000   62.0300   46.5400 C.ar      5 PHE5        0.0000 
     89 CZ         42.0300   63.2500   46.4500 C.ar      5 PHE5        0.0000 
     90 CZ         42.1500   61.5900   47.7600 C.ar      5 PHE5        0.0000 
     91 CZ         47.7300   63.3200   42.6000 C.ar      5 PHE5        0.0000 
     92 CZ         47.8500   61.6600   43.9200 C.ar      5 PHE5        0.0000 
     93 CZ         46.9800   62.8800   43.8300 C.ar      5 PHE5        0.0000 
     94 CZ         47.9600   59.9900   45.2300 C.ar      5 PHE5        0.0000 
     95 CZ         47.0900   61.2200   45.1400 C.ar      5 PHE5        0.0000 
     96 CZ         46.2300   62.4400   45.0500 C.ar      5 PHE5        0.0000 
     97 CZ         45.3700   63.6600   44.9600 C.ar      5 PHE5        0.0000 
     98 CZ         47.2100   59.5500   46.4500 C.ar      5 PHE5        0.0000 
     99 CZ         46.3400   60.7800   46.3600 C.ar      5 PHE5        0.0000 
    100 CZ         44.6200   63.2200   46.1800 C.ar      5 PHE5        0.0000 
    101 CZ         44.7300   61.5600   47.4900 C.ar      5 PHE5        0.0000 
    102 CZ         43.8700   62.7800   47.4000 C.ar      5 PHE5        0.0000 
    103 CZ         44.0900   59.4600   50.0300 C.ar      5 PHE5        0.0000 
    104 CZ         43.2300   60.6800   49.9400 C.ar      5 PHE5        0.0000 
    105 CZ         42.4800   60.2400   51.1600 C.ar      5 PHE5        0.0000 
    106 CZ         48.8100   62.4100   44.7800 C.ar      5 PHE5        0.0000 
    107 CZ         47.9500   63.6300   44.6900 C.ar      5 PHE5        0.0000 
    108 CZ         48.9300   60.7400   46.1000 C.ar      5 PHE5        0.0000 
    109 CZ         45.0600   60.2100   50.8900 C.ar      5 PHE5        0.0000 
    110 CZ         44.2000   61.4300   50.8000 C.ar      5 PHE5        0.0000 
    111 CZ         43.3300   62.6500   50.7100 C.ar      5 PHE5        0.0000 
    112 CZ         42.5800   62.2100   51.9300 C.ar      5 PHE5        0.0000 
    113 CZ         49.7800   63.1600   45.6500 C.ar      5 PHE5        0.0000 
    114 CZ         49.9000   61.4900   46.9600 C.ar      5 PHE5        0.0000 
    115 CA         41.9400   57.6500   46.2100 C.3       6 GLY6        0.0000 
    116 CA         44.4100   59.2800   44.6300 C.3       6 GLY6        0.0000 
    117 CA         43.6600   58.8400   45.8500 C.3       6 GLY6        0.0000 
    118 CA         44.7400   57.9200   48.0300 C.3       6 GLY6        0.0000 
    119 CA         44.1000   55.8200   50.5700 C.3       6 GLY6        0.0000 
    120 CA         48.1600   67.5700   46.2400 C.3       6 GLY6        0.0000 
    121 DU         46.1300   60.4700   44.2700 H         7 CUB7        0.0000 
    122 DU         45.2600   61.6900   44.1800 H         7 CUB7        0.0000 
    123 DU         44.4000   62.9100   44.0900 H         7 CUB7        0.0000 
    124 DU         43.5300   64.1300   44.0000 H         7 CUB7        0.0000 
    125 DU         45.3800   60.0300   45.5000 H         7 CUB7        0.0000 
    126 DU         43.6500   62.4700   45.3100 H         7 CUB7        0.0000 
    127 DU         44.6300   59.5900   46.7200 H         7 CUB7        0.0000 
    128 DU         43.7600   60.8100   46.6300 H         7 CUB7        0.0000 
    129 DU         43.8700   59.1500   47.9400 H         7 CUB7        0.0000 
    130 DU         43.0100   60.3700   47.8500 H         7 CUB7        0.0000 
    131 DU         43.0000   64.0000   47.3100 H         7 CUB7        0.0000 
    132 DU         45.7100   58.6700   48.9000 H         7 CUB7        0.0000 
    133 DU         45.8200   57.0100   50.2100 H         7 CUB7        0.0000 
    134 DU         47.8400   65.2900   43.3800 H         7 CUB7        0.0000 
    135 DU         49.6800   61.1800   44.8700 H         7 CUB7        0.0000 
    136 DU         49.5600   66.4800   43.0200 H         7 CUB7        0.0000 
    137 DU         49.6700   64.8200   44.3300 H         7 CUB7        0.0000 
    138 DU         48.8000   66.0400   44.2400 H         7 CUB7        0.0000 
    139 DU         51.3900   66.0100   43.9800 H         7 CUB7        0.0000 
    140 DU         50.5200   67.2300   43.8900 H         7 CUB7        0.0000 
    141 DU         50.6400   65.5700   45.2000 H         7 CUB7        0.0000 
@<TRIPOS>BOND
@<TRIPOS>SUBSTRUCTURE
     1 SER1        1 GROUP   
     2 ALA2       21 GROUP   
     3 ASP3       41 GROUP   
     4 LYS4       60 GROUP   
     5 PHE5       77 GROUP   
     6 GLY6      115 GROUP   
     7 CUB7      121 GROUP   
@<TRIPOS>SET

