#    Name: 6oiy_2_DGT
#    Modification time : Fri May 22 19:29:49 2020

@<TRIPOS>MOLECULE
6oiy_2_DGT
   31    33     1     0     0
SMALL
NO_CHARGES


@<TRIPOS>ATOM
      1 PG         64.1040    2.8980   75.1640 P.3       1 DGT601      0.0000 
      2 O1G        63.6690    4.2690   74.8370 O.co2     1 DGT601      0.0000 
      3 O2G        63.4910    1.6850   74.5570 O.co2     1 DGT601      0.0000 
      4 O3G        65.5480    3.0950   75.1220 O.co2     1 DGT601      0.0000 
      5 O3B        63.7120    2.6510   76.6820 O.3       1 DGT601      0.0000 
      6 PB         62.2250    2.5810   77.2870 P.3       1 DGT601      0.0000 
      7 O1B        61.6350    1.2890   76.7790 O.co2     1 DGT601      0.0000 
      8 O2B        62.3580    2.7730   78.7890 O.co2     1 DGT601      0.0000 
      9 O3A        61.3200    3.7520   76.5770 O.3       1 DGT601      0.0000 
     10 PA         61.3100    5.3370   76.3530 P.3       1 DGT601      0.0000 
     11 O1A        61.9910    6.3020   77.2360 O.co2     1 DGT601      0.0000 
     12 O2A        61.5540    5.6510   74.9570 O.co2     1 DGT601      0.0000 
     13 O5'        59.7600    5.2100   76.5610 O.3       1 DGT601      0.0000 
     14 C5'        58.9620    5.7930   77.5830 C.3       1 DGT601      0.0000 
     15 C4'        59.0820    7.3060   77.6290 C.3       1 DGT601      0.0000 
     16 O4'        58.3800    7.8950   76.5820 O.3       1 DGT601      0.0000 
     17 C3'        58.3830    7.9030   78.7670 C.3       1 DGT601      0.0000 
     18 O3'        59.0360    9.1190   78.8190 O.3       1 DGT601      0.0000 
     19 C2'        56.9990    8.1930   78.3460 C.3       1 DGT601      0.0000 
     20 C1'        57.0800    8.3080   76.8610 C.3       1 DGT601      0.0000 
     21 N9         56.0880    7.4530   76.1690 N.pl3     1 DGT601      0.0000 
     22 C8         56.0560    6.1350   76.0430 C.2       1 DGT601      0.0000 
     23 N7         54.9720    5.7170   75.4230 N.2       1 DGT601      0.0000 
     24 C5         54.2710    6.8120   75.0980 C.2       1 DGT601      0.0000 
     25 C6         53.0090    7.1680   74.4100 C.2       1 DGT601      0.0000 
     26 O6         52.2820    6.3060   73.9270 O.2       1 DGT601      0.0000 
     27 N1         52.6820    8.4400   74.3290 N.am      1 DGT601      0.0000 
     28 C2         53.4330    9.3890   74.8400 C.2       1 DGT601      0.0000 
     29 N2         53.0950   10.6590   74.7370 N.pl3     1 DGT601      0.0000 
     30 N3         54.5560    9.1570   75.4740 N.2       1 DGT601      0.0000 
     31 C4         55.0230    7.9280   75.6220 C.2       1 DGT601      0.0000 
@<TRIPOS>BOND
     1    1    2 ar   
     2    1    3 ar   
     3    1    4 ar   
     4    1    5 1    
     5    5    6 1    
     6    6    7 ar   
     7    6    8 ar   
     8    6    9 1    
     9    9   10 1    
    10   10   11 ar   
    11   10   12 ar   
    12   10   13 1    
    13   13   14 1    
    14   14   15 1    
    15   15   16 1    
    16   15   17 1    
    17   16   20 1    
    18   17   18 1    
    19   17   19 1    
    20   19   20 1    
    21   20   21 1    
    22   21   22 1    
    23   21   31 1    
    24   22   23 2    
    25   23   24 1    
    26   24   25 1    
    27   24   31 2    
    28   25   26 2    
    29   25   27 am   
    30   27   28 1    
    31   28   29 1    
    32   28   30 2    
    33   30   31 1    
@<TRIPOS>SUBSTRUCTURE
     1 DGT601      1 GROUP   
@<TRIPOS>SET

