#    Name: 6oiy_4_DGT
#    Modification time : Fri May 22 19:30:11 2020

@<TRIPOS>MOLECULE
6oiy_4_DGT
   31    33     1     0     0
SMALL
NO_CHARGES


@<TRIPOS>ATOM
      1 PG         77.2750   39.1210   84.8740 P.3       1 DGT602      0.0000 
      2 O1G        76.9390   37.6760   84.7670 O.co2     1 DGT602      0.0000 
      3 O2G        76.1120   39.9320   85.2780 O.co2     1 DGT602      0.0000 
      4 O3G        78.4580   39.5160   85.6460 O.co2     1 DGT602      0.0000 
      5 O3B        77.6660   39.4980   83.3640 O.3       1 DGT602      0.0000 
      6 PB         78.9770   39.0140   82.5370 P.3       1 DGT602      0.0000 
      7 O1B        80.0090   40.1090   82.4270 O.co2     1 DGT602      0.0000 
      8 O2B        79.5280   37.8190   83.2210 O.co2     1 DGT602      0.0000 
      9 O3A        78.4080   38.5940   81.0820 O.3       1 DGT602      0.0000 
     10 PA         76.8960   38.5130   80.5940 P.3       1 DGT602      0.0000 
     11 O1A        76.1320   39.5120   81.3120 O.co2     1 DGT602      0.0000 
     12 O2A        76.4020   37.1290   80.4360 O.co2     1 DGT602      0.0000 
     13 O5'        76.8290   39.1070   79.1660 O.3       1 DGT602      0.0000 
     14 C5'        77.1940   38.3450   78.0250 C.3       1 DGT602      0.0000 
     15 C4'        76.4000   37.1260   77.6210 C.3       1 DGT602      0.0000 
     16 O4'        75.4200   37.4300   76.6740 O.3       1 DGT602      0.0000 
     17 C3'        77.2610   36.3420   76.7160 C.3       1 DGT602      0.0000 
     18 O3'        76.6400   35.0990   76.6240 O.3       1 DGT602      0.0000 
     19 C2'        77.2090   37.0620   75.4100 C.3       1 DGT602      0.0000 
     20 C1'        75.8420   37.6570   75.3390 C.3       1 DGT602      0.0000 
     21 N9         75.6920   39.1230   75.1490 N.pl3     1 DGT602      0.0000 
     22 C8         76.2890   39.9980   75.9000 C.2       1 DGT602      0.0000 
     23 N7         75.9590   41.2400   75.6180 N.2       1 DGT602      0.0000 
     24 C5         75.0980   41.2050   74.6530 C.2       1 DGT602      0.0000 
     25 C6         74.3720   42.1920   73.8760 C.2       1 DGT602      0.0000 
     26 O6         74.4830   43.3840   74.0670 O.2       1 DGT602      0.0000 
     27 N1         73.5790   41.8090   72.9510 N.am      1 DGT602      0.0000 
     28 C2         73.4260   40.5500   72.7200 C.2       1 DGT602      0.0000 
     29 N2         72.5860   40.1690   71.7780 N.pl3     1 DGT602      0.0000 
     30 N3         74.0500   39.5980   73.3900 N.2       1 DGT602      0.0000 
     31 C4         74.9080   39.8280   74.3620 C.2       1 DGT602      0.0000 
@<TRIPOS>BOND
     1    1    2 ar   
     2    1    3 ar   
     3    1    4 ar   
     4    1    5 1    
     5    5    6 1    
     6    6    7 ar   
     7    6    8 ar   
     8    6    9 1    
     9    9   10 1    
    10   10   11 ar   
    11   10   12 ar   
    12   10   13 1    
    13   13   14 1    
    14   14   15 1    
    15   15   16 1    
    16   15   17 1    
    17   16   20 1    
    18   17   18 1    
    19   17   19 1    
    20   19   20 1    
    21   20   21 1    
    22   21   22 1    
    23   21   31 1    
    24   22   23 2    
    25   23   24 1    
    26   24   25 1    
    27   24   31 2    
    28   25   26 2    
    29   25   27 am   
    30   27   28 1    
    31   28   29 1    
    32   28   30 2    
    33   30   31 1    
@<TRIPOS>SUBSTRUCTURE
     1 DGT602      1 GROUP   
@<TRIPOS>SET

