#    Name: 6oiy_3_DGT_CAVITY_N1_12
#    Modification time : Fri May 22 19:30:02 2020

@<TRIPOS>MOLECULE
6oiy_3_DGT_CAVITY_N1_12
  151     0     7     0     0
SMALL
NO_CHARGES


@<TRIPOS>ATOM
      1 OG         11.9800   19.9800   47.4100 O.3       1 SER1        0.0000 
      2 OG         13.8100   19.5100   48.3600 O.3       1 SER1        0.0000 
      3 OG         12.9500   20.7300   48.2700 O.3       1 SER1        0.0000 
      4 OG         12.2000   20.2900   49.4900 O.3       1 SER1        0.0000 
      5 OG         14.6700   21.9200   47.9100 O.3       1 SER1        0.0000 
      6 OG         13.8000   23.1400   47.8200 O.3       1 SER1        0.0000 
      7 OG         13.9200   21.4800   49.1400 O.3       1 SER1        0.0000 
      8 OG         13.0500   22.7000   49.0500 O.3       1 SER1        0.0000 
      9 OG         14.0300   19.8200   50.4500 O.3       1 SER1        0.0000 
     10 OG         15.6400   22.6700   48.7800 O.3       1 SER1        0.0000 
     11 OG         14.8900   22.2300   50.0000 O.3       1 SER1        0.0000 
     12 OG         17.4700   22.2000   49.7300 O.3       1 SER1        0.0000 
     13 OG         16.6100   23.4200   49.6400 O.3       1 SER1        0.0000 
     14 OG         18.4500   19.3100   51.1400 O.3       1 SER1        0.0000 
     15 OG         17.5900   20.5400   51.0500 O.3       1 SER1        0.0000 
     16 OG         16.7200   21.7600   50.9600 O.3       1 SER1        0.0000 
     17 OG         15.8600   22.9800   50.8700 O.3       1 SER1        0.0000 
     18 OG         21.5600   23.0500   47.0200 O.3       1 SER1        0.0000 
     19 OG         20.8100   22.6100   48.2500 O.3       1 SER1        0.0000 
     20 OG         19.9400   23.8300   48.1600 O.3       1 SER1        0.0000 
     21 OG         19.1900   23.3900   49.3800 O.3       1 SER1        0.0000 
     22 OG         18.4400   22.9500   50.6000 O.3       1 SER1        0.0000 
     23 OG         18.5600   21.2900   51.9100 O.3       1 SER1        0.0000 
     24 OG         17.6900   22.5100   51.8200 O.3       1 SER1        0.0000 
     25 OG         20.1600   24.1400   50.2400 O.3       1 SER1        0.0000 
     26 OG         19.4100   23.7000   51.4600 O.3       1 SER1        0.0000 
     27 OG         19.5200   22.0400   52.7800 O.3       1 SER1        0.0000 
     28 N          15.1200   18.9100   52.6300 N.am      2 ALA2        0.0000 
     29 O          17.6800   26.1400   51.2800 O.2       2 ALA2        0.0000 
     30 O          19.4000   27.3300   50.9300 O.2       2 ALA2        0.0000 
     31 O          25.3300   24.0700   49.7100 O.2       2 ALA2        0.0000 
     32 O          24.5800   23.6300   50.9300 O.2       2 ALA2        0.0000 
     33 N          25.3200   27.7100   49.1700 N.am      2 ALA2        0.0000 
     34 N          24.4500   28.9300   49.0800 N.am      2 ALA2        0.0000 
     35 N          26.3000   24.8200   50.5700 N.am      2 ALA2        0.0000 
     36 N          27.2700   25.5700   51.4400 N.am      2 ALA2        0.0000 
     37 OD1        13.5900   19.2000   46.2800 O.co2     3 ASP3        0.0000 
     38 OD1        12.7300   20.4200   46.1800 O.co2     3 ASP3        0.0000 
     39 OD1        14.5600   19.9500   47.1400 O.co2     3 ASP3        0.0000 
     40 OD1        15.5300   20.7000   48.0100 O.co2     3 ASP3        0.0000 
     41 OD1        14.7800   20.2600   49.2300 O.co2     3 ASP3        0.0000 
     42 OD1        13.1700   21.0400   50.3600 O.co2     3 ASP3        0.0000 
     43 OD1        16.5000   21.4500   48.8700 O.co2     3 ASP3        0.0000 
     44 OD1        16.6200   19.7900   50.1800 O.co2     3 ASP3        0.0000 
     45 OD1        15.7500   21.0100   50.0900 O.co2     3 ASP3        0.0000 
     46 OD1        15.8700   19.3500   51.4100 O.co2     3 ASP3        0.0000 
     47 OD1        15.0000   20.5700   51.3100 O.co2     3 ASP3        0.0000 
     48 OD1        14.2500   20.1300   52.5400 O.co2     3 ASP3        0.0000 
     49 OD1        22.8400   23.6100   42.4900 O.co2     3 ASP3        0.0000 
     50 OD1        21.1100   26.0600   42.3100 O.co2     3 ASP3        0.0000 
     51 OD1        18.1100   24.3000   47.2000 O.co2     3 ASP3        0.0000 
     52 OD1        17.3600   23.8600   48.4200 O.co2     3 ASP3        0.0000 
     53 OD1        16.4900   25.0800   48.3300 O.co2     3 ASP3        0.0000 
     54 OD1        24.6700   23.1400   43.4500 O.co2     3 ASP3        0.0000 
     55 OD1        23.8100   24.3600   43.3600 O.co2     3 ASP3        0.0000 
     56 OD1        22.9400   25.5900   43.2700 O.co2     3 ASP3        0.0000 
     57 OD1        22.0800   26.8100   43.1800 O.co2     3 ASP3        0.0000 
     58 OD1        19.8300   25.4900   46.8400 O.co2     3 ASP3        0.0000 
     59 OD1        18.9600   26.7100   46.7500 O.co2     3 ASP3        0.0000 
     60 OD1        19.0800   25.0500   48.0600 O.co2     3 ASP3        0.0000 
     61 OD1        18.2100   26.2700   47.9700 O.co2     3 ASP3        0.0000 
     62 OD1        16.8300   23.7300   51.7300 O.co2     3 ASP3        0.0000 
     63 OD1        16.9400   22.0700   53.0400 O.co2     3 ASP3        0.0000 
     64 OD1        23.9100   26.3400   44.1300 O.co2     3 ASP3        0.0000 
     65 OD1        24.0300   24.6800   45.4400 O.co2     3 ASP3        0.0000 
     66 OD1        18.5500   24.9200   51.3700 O.co2     3 ASP3        0.0000 
     67 OD1        18.6600   23.2600   52.6900 O.co2     3 ASP3        0.0000 
     68 OD1        17.8000   24.4800   52.6000 O.co2     3 ASP3        0.0000 
     69 OD1        21.8800   25.3300   49.8900 O.co2     3 ASP3        0.0000 
     70 OD1        21.1300   24.8900   51.1100 O.co2     3 ASP3        0.0000 
     71 OD1        20.2700   26.1100   51.0200 O.co2     3 ASP3        0.0000 
     72 OD1        23.7100   24.8600   50.8400 O.co2     3 ASP3        0.0000 
     73 NZ         10.3600   20.7600   48.5400 N.4       4 LYS4        0.0000 
     74 NZ         12.0800   21.9500   48.1800 N.4       4 LYS4        0.0000 
     75 NZ         11.3300   21.5100   49.4000 N.4       4 LYS4        0.0000 
     76 NZ         16.7300   18.1200   51.5000 N.4       4 LYS4        0.0000 
     77 NZ         14.1400   21.7900   51.2200 N.4       4 LYS4        0.0000 
     78 NZ         17.7000   18.8700   52.3600 N.4       4 LYS4        0.0000 
     79 NZ         15.1100   22.5400   52.0900 N.4       4 LYS4        0.0000 
     80 NZ         18.7700   21.6000   54.0000 N.4       4 LYS4        0.0000 
     81 NZ         17.9100   22.8200   53.9100 N.4       4 LYS4        0.0000 
     82 NZ         24.8800   27.0900   45.0000 N.4       4 LYS4        0.0000 
     83 NZ         25.0000   25.4300   46.3100 N.4       4 LYS4        0.0000 
     84 NZ         24.1300   26.6500   46.2200 N.4       4 LYS4        0.0000 
     85 NZ         24.2500   24.9900   47.5300 N.4       4 LYS4        0.0000 
     86 NZ         25.2100   25.7400   48.4000 N.4       4 LYS4        0.0000 
     87 NZ         24.3500   26.9600   48.3100 N.4       4 LYS4        0.0000 
     88 NZ         26.1800   26.4900   49.2600 N.4       4 LYS4        0.0000 
     89 CZ         18.2200   22.6400   48.5100 C.ar      5 PHE5        0.0000 
     90 CZ         21.3300   26.3700   44.4000 C.ar      5 PHE5        0.0000 
     91 CZ         20.5800   25.9300   45.6200 C.ar      5 PHE5        0.0000 
     92 CZ         17.4600   25.8300   49.2000 C.ar      5 PHE5        0.0000 
     93 CZ         16.7100   25.3900   50.4200 C.ar      5 PHE5        0.0000 
     94 CZ         15.9600   24.9500   51.6400 C.ar      5 PHE5        0.0000 
     95 CZ         24.8900   23.4500   45.5400 C.ar      5 PHE5        0.0000 
     96 CZ         22.3000   27.1200   45.2600 C.ar      5 PHE5        0.0000 
     97 CZ         21.5500   26.6800   46.4900 C.ar      5 PHE5        0.0000 
     98 CZ         22.5300   23.8000   47.8900 C.ar      5 PHE5        0.0000 
     99 CZ         20.8000   26.2400   47.7100 C.ar      5 PHE5        0.0000 
    100 CZ         19.9300   27.4600   47.6200 C.ar      5 PHE5        0.0000 
    101 CZ         21.7800   23.3600   49.1100 C.ar      5 PHE5        0.0000 
    102 CZ         20.9100   24.5800   49.0200 C.ar      5 PHE5        0.0000 
    103 CZ         19.1800   27.0200   48.8400 C.ar      5 PHE5        0.0000 
    104 CZ         23.2700   27.8700   46.1300 C.ar      5 PHE5        0.0000 
    105 CZ         25.1100   23.7600   47.6200 C.ar      5 PHE5        0.0000 
    106 CZ         22.5200   27.4300   47.3500 C.ar      5 PHE5        0.0000 
    107 CZ         20.9000   28.2100   48.4800 C.ar      5 PHE5        0.0000 
    108 CZ         22.7400   24.1100   49.9800 C.ar      5 PHE5        0.0000 
    109 CZ         20.1500   27.7700   49.7000 C.ar      5 PHE5        0.0000 
    110 CZ         24.2400   28.6200   46.9900 C.ar      5 PHE5        0.0000 
    111 CZ         26.0800   24.5100   48.4900 C.ar      5 PHE5        0.0000 
    112 CZ         23.4900   28.1800   48.2100 C.ar      5 PHE5        0.0000 
    113 CZ         27.0500   25.2600   49.3500 C.ar      5 PHE5        0.0000 
    114 CA         23.1700   22.2600   45.8900 C.3       6 GLY6        0.0000 
    115 CA         23.0500   27.5600   44.0400 C.3       6 GLY6        0.0000 
    116 CA         24.1400   23.0100   46.7600 C.3       6 GLY6        0.0000 
    117 CA         24.3600   23.3200   48.8500 C.3       6 GLY6        0.0000 
    118 CA         22.7400   27.7400   49.4400 C.3       6 GLY6        0.0000 
    119 CA         21.8700   28.9600   49.3500 C.3       6 GLY6        0.0000 
    120 CA         21.9800   27.3000   50.6600 C.3       6 GLY6        0.0000 
    121 CA         24.5700   27.2700   50.3900 C.3       6 GLY6        0.0000 
    122 CA         25.5500   24.3800   51.8000 C.3       6 GLY6        0.0000 
    123 CA         28.0200   26.0100   50.2200 C.3       6 GLY6        0.0000 
    124 CA         27.1500   27.2400   50.1300 C.3       6 GLY6        0.0000 
    125 CA         26.4000   26.8000   51.3500 C.3       6 GLY6        0.0000 
    126 DU         11.1200   21.2000   47.3200 H         7 CUB7        0.0000 
    127 DU         13.7000   21.1700   47.0500 H         7 CUB7        0.0000 
    128 DU         16.8400   20.1000   52.2700 H         7 CUB7        0.0000 
    129 DU         15.9700   21.3200   52.1800 H         7 CUB7        0.0000 
    130 DU         23.9200   22.7000   44.6700 H         7 CUB7        0.0000 
    131 DU         23.0600   23.9300   44.5800 H         7 CUB7        0.0000 
    132 DU         22.1900   25.1500   44.4900 H         7 CUB7        0.0000 
    133 DU         22.3100   23.4900   45.8000 H         7 CUB7        0.0000 
    134 DU         21.4400   24.7100   45.7100 H         7 CUB7        0.0000 
    135 DU         20.6900   24.2700   46.9300 H         7 CUB7        0.0000 
    136 DU         18.3300   24.6100   49.2900 H         7 CUB7        0.0000 
    137 DU         17.5800   24.1700   50.5100 H         7 CUB7        0.0000 
    138 DU         23.1600   25.9000   45.3500 H         7 CUB7        0.0000 
    139 DU         23.2800   24.2400   46.6700 H         7 CUB7        0.0000 
    140 DU         22.4100   25.4600   46.5800 H         7 CUB7        0.0000 
    141 DU         21.6600   25.0200   47.8000 H         7 CUB7        0.0000 
    142 DU         20.0500   25.8000   48.9300 H         7 CUB7        0.0000 
    143 DU         19.3000   25.3600   50.1500 H         7 CUB7        0.0000 
    144 DU         18.4300   26.5800   50.0600 H         7 CUB7        0.0000 
    145 DU         23.3800   26.2100   47.4400 H         7 CUB7        0.0000 
    146 DU         23.5000   24.5500   48.7500 H         7 CUB7        0.0000 
    147 DU         21.7700   26.9900   48.5700 H         7 CUB7        0.0000 
    148 DU         21.0200   26.5500   49.7900 H         7 CUB7        0.0000 
    149 DU         24.4600   25.3000   49.6200 H         7 CUB7        0.0000 
    150 DU         23.6000   26.5200   49.5300 H         7 CUB7        0.0000 
    151 DU         25.4300   26.0500   50.4800 H         7 CUB7        0.0000 
@<TRIPOS>BOND
@<TRIPOS>SUBSTRUCTURE
     1 SER1        1 GROUP   
     2 ALA2       28 GROUP   
     3 ASP3       37 GROUP   
     4 LYS4       73 GROUP   
     5 PHE5       89 GROUP   
     6 GLY6      114 GROUP   
     7 CUB7      126 GROUP   
@<TRIPOS>SET

