#    Name: 6oiy_4_DGT_CAVITY_N1_ALL
#    Modification time : Fri May 22 19:30:13 2020

@<TRIPOS>MOLECULE
6oiy_4_DGT_CAVITY_N1_ALL
  179     0     7     0     0
SMALL
NO_CHARGES


@<TRIPOS>ATOM
      1 OG         74.5700   38.9100   77.9100 O.3       1 SER1        0.0000 
      2 OG         73.8200   38.4700   79.1400 O.3       1 SER1        0.0000 
      3 OG         76.2900   40.1000   77.5600 O.3       1 SER1        0.0000 
      4 OG         76.4000   38.4400   78.8700 O.3       1 SER1        0.0000 
      5 OG         75.6500   38.0000   80.0900 O.3       1 SER1        0.0000 
      6 OG         74.0400   38.7800   81.2200 O.3       1 SER1        0.0000 
      7 OG         78.1200   39.6300   78.5100 O.3       1 SER1        0.0000 
      8 OG         77.2600   40.8500   78.4200 O.3       1 SER1        0.0000 
      9 OG         76.3900   42.0700   78.3300 O.3       1 SER1        0.0000 
     10 OG         77.3700   39.1900   79.7400 O.3       1 SER1        0.0000 
     11 OG         76.6200   38.7500   80.9600 O.3       1 SER1        0.0000 
     12 OG         75.8700   38.3100   82.1800 O.3       1 SER1        0.0000 
     13 OG         79.2100   38.7200   80.6900 O.3       1 SER1        0.0000 
     14 OG         80.1800   39.4700   81.5600 O.3       1 SER1        0.0000 
     15 OG         81.1400   40.2200   82.4200 O.3       1 SER1        0.0000 
     16 N          71.5500   38.3200   74.0100 N.am      2 ALA2        0.0000 
     17 N          70.6800   39.5500   73.9200 N.am      2 ALA2        0.0000 
     18 O          70.8000   37.8800   75.2300 O.2       2 ALA2        0.0000 
     19 N          70.0500   37.4500   76.4500 N.am      2 ALA2        0.0000 
     20 N          68.3200   39.8900   76.2700 N.am      2 ALA2        0.0000 
     21 O          73.5000   36.1900   76.2800 O.2       2 ALA2        0.0000 
     22 O          72.6300   37.4100   76.1800 O.2       2 ALA2        0.0000 
     23 O          71.7700   38.6300   76.0900 O.2       2 ALA2        0.0000 
     24 O          70.9000   39.8600   76.0000 O.2       2 ALA2        0.0000 
     25 O          76.0800   36.1600   76.0100 O.2       2 ALA2        0.0000 
     26 O          75.2100   37.3800   75.9200 O.2       2 ALA2        0.0000 
     27 O          75.3300   35.7200   77.2300 O.2       2 ALA2        0.0000 
     28 O          74.4600   36.9400   77.1400 O.2       2 ALA2        0.0000 
     29 O          77.1600   35.2500   78.1900 O.2       2 ALA2        0.0000 
     30 O          76.3000   36.4700   78.1000 O.2       2 ALA2        0.0000 
     31 O          73.2900   38.3400   82.4500 O.2       2 ALA2        0.0000 
     32 N          73.5100   38.6500   84.5300 N.am      2 ALA2        0.0000 
     33 N          73.6200   36.9900   85.8500 N.am      2 ALA2        0.0000 
     34 N          75.4000   48.5900   76.3900 N.am      2 ALA2        0.0000 
     35 N          74.6500   48.1500   77.6100 N.am      2 ALA2        0.0000 
     36 O          76.2000   36.9600   85.5800 O.2       2 ALA2        0.0000 
     37 N          75.3400   38.1800   85.4900 N.am      2 ALA2        0.0000 
     38 OD1        72.8500   37.7200   78.2700 O.co2     3 ASP3        0.0000 
     39 OD1        74.2300   43.9000   73.9700 O.co2     3 ASP3        0.0000 
     40 OD1        75.5500   36.0300   79.3200 O.co2     3 ASP3        0.0000 
     41 OD1        74.6800   37.2500   79.2300 O.co2     3 ASP3        0.0000 
     42 OD1        76.0600   43.4300   74.9300 O.co2     3 ASP3        0.0000 
     43 OD1        75.2000   44.6500   74.8400 O.co2     3 ASP3        0.0000 
     44 OD1        74.3300   45.8700   74.7500 O.co2     3 ASP3        0.0000 
     45 OD1        73.4700   47.0900   74.6600 O.co2     3 ASP3        0.0000 
     46 OD1        77.3800   35.5600   80.2700 O.co2     3 ASP3        0.0000 
     47 OD1        76.5200   36.7800   80.1800 O.co2     3 ASP3        0.0000 
     48 OD1        74.9000   37.5600   81.3100 O.co2     3 ASP3        0.0000 
     49 OD1        75.1900   48.2800   74.3000 O.co2     3 ASP3        0.0000 
     50 OD1        77.0300   44.1800   75.8000 O.co2     3 ASP3        0.0000 
     51 OD1        76.1600   45.4000   75.7000 O.co2     3 ASP3        0.0000 
     52 OD1        75.3000   46.6200   75.6100 O.co2     3 ASP3        0.0000 
     53 OD1        74.4400   47.8400   75.5200 O.co2     3 ASP3        0.0000 
     54 OD1        77.0200   47.8100   75.2600 O.co2     3 ASP3        0.0000 
     55 OD1        76.2700   47.3700   76.4800 O.co2     3 ASP3        0.0000 
     56 OD1        77.5900   39.5000   81.8200 O.co2     3 ASP3        0.0000 
     57 OD1        77.7100   37.8400   83.1400 O.co2     3 ASP3        0.0000 
     58 OD1        76.8400   39.0600   83.0400 O.co2     3 ASP3        0.0000 
     59 OD1        75.9800   40.2800   82.9500 O.co2     3 ASP3        0.0000 
     60 OD1        76.0900   38.6200   84.2700 O.co2     3 ASP3        0.0000 
     61 OD1        75.2300   39.8400   84.1800 O.co2     3 ASP3        0.0000 
     62 OD1        79.4200   39.0300   82.7800 O.co2     3 ASP3        0.0000 
     63 OD1        78.5600   40.2500   82.6900 O.co2     3 ASP3        0.0000 
     64 OD1        78.6700   38.5900   84.0000 O.co2     3 ASP3        0.0000 
     65 OD1        77.9200   38.1500   85.2200 O.co2     3 ASP3        0.0000 
     66 OD1        77.0600   39.3700   85.1300 O.co2     3 ASP3        0.0000 
     67 OD1        80.3900   39.7800   83.6400 O.co2     3 ASP3        0.0000 
     68 OD1        79.6400   39.3400   84.8700 O.co2     3 ASP3        0.0000 
     69 NZ         71.4300   39.9900   72.6900 N.4       4 LYS4        0.0000 
     70 NZ         72.4000   40.7400   73.5600 N.4       4 LYS4        0.0000 
     71 NZ         74.1200   41.9300   73.2000 N.4       4 LYS4        0.0000 
     72 NZ         73.2600   43.1500   73.1100 N.4       4 LYS4        0.0000 
     73 NZ         73.3700   41.4900   74.4200 N.4       4 LYS4        0.0000 
     74 NZ         72.5100   42.7100   74.3300 N.4       4 LYS4        0.0000 
     75 NZ         77.8000   37.3500   75.6500 N.4       4 LYS4        0.0000 
     76 NZ         75.9900   36.6500   83.4900 N.4       4 LYS4        0.0000 
     77 NZ         74.3700   37.4300   84.6200 N.4       4 LYS4        0.0000 
     78 NZ         72.6400   39.8800   84.4400 N.4       4 LYS4        0.0000 
     79 NZ         74.4900   35.7700   85.9400 N.4       4 LYS4        0.0000 
     80 NZ         79.3200   37.0600   82.0000 N.4       4 LYS4        0.0000 
     81 NZ         78.5700   36.6200   83.2300 N.4       4 LYS4        0.0000 
     82 NZ         74.3600   41.0700   84.0800 N.4       4 LYS4        0.0000 
     83 NZ         74.4800   39.4000   85.4000 N.4       4 LYS4        0.0000 
     84 NZ         80.2900   37.8100   82.8700 N.4       4 LYS4        0.0000 
     85 CZ         69.0700   40.3300   75.0500 C.ar      5 PHE5        0.0000 
     86 CZ         68.2000   41.5500   74.9600 C.ar      5 PHE5        0.0000 
     87 CZ         70.7900   41.5200   74.6900 C.ar      5 PHE5        0.0000 
     88 CZ         70.0400   41.0800   75.9100 C.ar      5 PHE5        0.0000 
     89 CZ         74.9900   40.7000   73.2900 C.ar      5 PHE5        0.0000 
     90 CZ         75.9600   37.8200   74.7000 C.ar      5 PHE5        0.0000 
     91 CZ         75.1000   39.0400   74.6100 C.ar      5 PHE5        0.0000 
     92 CZ         73.4900   39.8200   75.7400 C.ar      5 PHE5        0.0000 
     93 CZ         72.6200   41.0500   75.6500 C.ar      5 PHE5        0.0000 
     94 CZ         71.7600   42.2700   75.5500 C.ar      5 PHE5        0.0000 
     95 CZ         72.7400   39.3800   76.9600 C.ar      5 PHE5        0.0000 
     96 CZ         71.8700   40.6100   76.8700 C.ar      5 PHE5        0.0000 
     97 CZ         71.9800   38.9400   78.1800 C.ar      5 PHE5        0.0000 
     98 CZ         75.9600   41.4500   74.1600 C.ar      5 PHE5        0.0000 
     99 CZ         75.0900   42.6800   74.0700 C.ar      5 PHE5        0.0000 
    100 CZ         76.9300   38.5700   75.5600 C.ar      5 PHE5        0.0000 
    101 CZ         76.0700   39.7900   75.4700 C.ar      5 PHE5        0.0000 
    102 CZ         73.4800   43.4600   75.2000 C.ar      5 PHE5        0.0000 
    103 CZ         72.6100   44.6800   75.1100 C.ar      5 PHE5        0.0000 
    104 CZ         77.9100   35.6800   76.9700 C.ar      5 PHE5        0.0000 
    105 CZ         77.0500   36.9100   76.8700 C.ar      5 PHE5        0.0000 
    106 CZ         75.3200   39.3500   76.6900 C.ar      5 PHE5        0.0000 
    107 CZ         74.4500   40.5700   76.6000 C.ar      5 PHE5        0.0000 
    108 CZ         73.5900   41.8000   76.5100 C.ar      5 PHE5        0.0000 
    109 CZ         72.7300   43.0200   76.4200 C.ar      5 PHE5        0.0000 
    110 CZ         71.8600   44.2400   76.3300 C.ar      5 PHE5        0.0000 
    111 CZ         79.5200   38.5400   75.2900 C.ar      5 PHE5        0.0000 
    112 CZ         77.7900   40.9800   75.1100 C.ar      5 PHE5        0.0000 
    113 CZ         76.9200   42.2000   75.0200 C.ar      5 PHE5        0.0000 
    114 CZ         78.7700   38.1000   76.5200 C.ar      5 PHE5        0.0000 
    115 CZ         77.9000   39.3200   76.4300 C.ar      5 PHE5        0.0000 
    116 CZ         77.0400   40.5400   76.3300 C.ar      5 PHE5        0.0000 
    117 CZ         75.3100   42.9900   76.1500 C.ar      5 PHE5        0.0000 
    118 CZ         72.7200   46.6500   75.8800 C.ar      5 PHE5        0.0000 
    119 CZ         78.0200   37.6600   77.7400 C.ar      5 PHE5        0.0000 
    120 CZ         75.4200   41.3200   77.4700 C.ar      5 PHE5        0.0000 
    121 CZ         73.6900   43.7700   77.2800 C.ar      5 PHE5        0.0000 
    122 CZ         78.1300   36.0000   79.0500 C.ar      5 PHE5        0.0000 
    123 CZ         77.2700   37.2200   78.9600 C.ar      5 PHE5        0.0000 
    124 CZ         79.5100   42.1700   74.7600 C.ar      5 PHE5        0.0000 
    125 CZ         79.6200   40.5100   76.0700 C.ar      5 PHE5        0.0000 
    126 CZ         78.7600   41.7300   75.9800 C.ar      5 PHE5        0.0000 
    127 CZ         78.9900   38.4100   78.6000 C.ar      5 PHE5        0.0000 
    128 CZ         74.6600   44.5200   78.1500 C.ar      5 PHE5        0.0000 
    129 CZ         78.2400   37.9700   79.8300 C.ar      5 PHE5        0.0000 
    130 CZ         78.3500   36.3100   81.1400 C.ar      5 PHE5        0.0000 
    131 CZ         75.0100   39.5300   82.0900 C.ar      5 PHE5        0.0000 
    132 CZ         74.2600   39.0900   83.3100 C.ar      5 PHE5        0.0000 
    133 CZ         76.7300   40.7200   81.7300 C.ar      5 PHE5        0.0000 
    134 CA         68.8500   40.0200   72.9600 C.3       6 GLY6        0.0000 
    135 CA         68.9600   38.3600   74.2700 C.3       6 GLY6        0.0000 
    136 CA         68.1000   39.5800   74.1800 C.3       6 GLY6        0.0000 
    137 CA         67.2300   40.8000   74.0900 C.3       6 GLY6        0.0000 
    138 CA         67.3500   39.1400   75.4000 C.3       6 GLY6        0.0000 
    139 CA         69.8200   40.7700   73.8200 C.3       6 GLY6        0.0000 
    140 CA         69.1800   38.6700   76.3600 C.3       6 GLY6        0.0000 
    141 CA         74.1300   38.2900   73.7400 C.3       6 GLY6        0.0000 
    142 CA         73.2700   39.5100   73.6500 C.3       6 GLY6        0.0000 
    143 CA         73.3800   37.8500   74.9600 C.3       6 GLY6        0.0000 
    144 CA         72.5200   39.0700   74.8700 C.3       6 GLY6        0.0000 
    145 CA         71.0200   38.2000   77.3200 C.3       6 GLY6        0.0000 
    146 CA         75.8400   43.1200   72.8400 C.3       6 GLY6        0.0000 
    147 CA         72.8300   44.9900   77.1900 C.3       6 GLY6        0.0000 
    148 CA         71.9700   46.2100   77.1000 C.3       6 GLY6        0.0000 
    149 CA         73.5700   49.0700   75.4300 C.3       6 GLY6        0.0000 
    150 CA         73.6900   47.4000   76.7400 C.3       6 GLY6        0.0000 
    151 CA         72.8200   48.6300   76.6500 C.3       6 GLY6        0.0000 
    152 CA         73.8000   45.7400   78.0600 C.3       6 GLY6        0.0000 
    153 CA         76.1600   49.0300   75.1700 C.3       6 GLY6        0.0000 
    154 CA         77.9900   48.5600   76.1200 C.3       6 GLY6        0.0000 
    155 DU         69.9300   39.1100   75.1400 H         7 CUB7        0.0000 
    156 DU         71.6500   40.3000   74.7800 H         7 CUB7        0.0000 
    157 DU         74.2400   40.2600   74.5100 H         7 CUB7        0.0000 
    158 DU         74.3500   38.6000   75.8300 H         7 CUB7        0.0000 
    159 DU         73.6000   38.1600   77.0500 H         7 CUB7        0.0000 
    160 DU         75.2100   41.0100   75.3800 H         7 CUB7        0.0000 
    161 DU         74.3400   42.2400   75.2900 H         7 CUB7        0.0000 
    162 DU         76.1800   38.1300   76.7800 H         7 CUB7        0.0000 
    163 DU         75.4300   37.6900   78.0100 H         7 CUB7        0.0000 
    164 DU         76.1700   41.7600   76.2400 H         7 CUB7        0.0000 
    165 DU         74.4500   44.2100   76.0600 H         7 CUB7        0.0000 
    166 DU         73.5800   45.4300   75.9700 H         7 CUB7        0.0000 
    167 DU         77.1500   38.8800   77.6500 H         7 CUB7        0.0000 
    168 DU         77.8900   42.9500   75.8900 H         7 CUB7        0.0000 
    169 DU         78.8700   40.0700   77.2900 H         7 CUB7        0.0000 
    170 DU         78.0100   41.2900   77.2000 H         7 CUB7        0.0000 
    171 DU         77.1400   42.5100   77.1100 H         7 CUB7        0.0000 
    172 DU         76.2800   43.7400   77.0200 H         7 CUB7        0.0000 
    173 DU         75.4100   44.9600   76.9300 H         7 CUB7        0.0000 
    174 DU         74.5500   46.1800   76.8400 H         7 CUB7        0.0000 
    175 DU         72.9300   46.9600   77.9700 H         7 CUB7        0.0000 
    176 DU         77.4900   37.5300   81.0500 H         7 CUB7        0.0000 
    177 DU         75.5200   46.9300   77.7000 H         7 CUB7        0.0000 
    178 DU         78.3400   39.9400   80.6000 H         7 CUB7        0.0000 
    179 DU         78.4600   38.2800   81.9100 H         7 CUB7        0.0000 
@<TRIPOS>BOND
@<TRIPOS>SUBSTRUCTURE
     1 SER1        1 GROUP   
     2 ALA2       16 GROUP   
     3 ASP3       38 GROUP   
     4 LYS4       69 GROUP   
     5 PHE5       85 GROUP   
     6 GLY6      134 GROUP   
     7 CUB7      155 GROUP   
@<TRIPOS>SET

