#    Name: 6oiy_5_DGT
#    Modification time : Fri May 22 19:30:23 2020

@<TRIPOS>MOLECULE
6oiy_5_DGT
   31    33     1     0     0
SMALL
NO_CHARGES


@<TRIPOS>ATOM
      1 PG         50.5660   67.4520   43.8360 P.3       1 DGT601      0.0000 
      2 O1G        51.1540   66.9800   45.1460 O.co2     1 DGT601      0.0000 
      3 O2G        50.6890   68.9500   43.7020 O.co2     1 DGT601      0.0000 
      4 O3G        51.2970   66.7870   42.6950 O.co2     1 DGT601      0.0000 
      5 O3B        48.9650   67.0740   43.8130 O.3       1 DGT601      0.0000 
      6 PB         48.1120   66.6330   42.4750 P.3       1 DGT601      0.0000 
      7 O1B        46.9180   67.5490   42.3510 O.co2     1 DGT601      0.0000 
      8 O2B        48.9540   66.7540   41.2260 O.co2     1 DGT601      0.0000 
      9 O3A        47.5880   65.0790   42.6660 O.3       1 DGT601      0.0000 
     10 PA         48.3210   63.9030   43.5640 P.3       1 DGT601      0.0000 
     11 O1A        49.0570   62.9380   42.6630 O.co2     1 DGT601      0.0000 
     12 O2A        49.2980   64.5000   44.5450 O.co2     1 DGT601      0.0000 
     13 O5'        47.1400   63.0900   44.3710 O.3       1 DGT601      0.0000 
     14 C5'        46.0690   62.5820   43.6280 C.3       1 DGT601      0.0000 
     15 C4'        46.2260   61.1340   43.4140 C.3       1 DGT601      0.0000 
     16 O4'        45.8930   60.3000   44.8170 O.3       1 DGT601      0.0000 
     17 C3'        45.3420   60.7180   42.5040 C.3       1 DGT601      0.0000 
     18 O3'        45.8570   59.5970   41.7090 O.3       1 DGT601      0.0000 
     19 C2'        44.1120   60.2280   43.3160 C.3       1 DGT601      0.0000 
     20 C1'        44.6100   60.0560   44.8240 C.3       1 DGT601      0.0000 
     21 N9         43.9330   61.0000   45.6770 N.pl3     1 DGT601      0.0000 
     22 C8         43.6650   62.3030   45.8750 C.2       1 DGT601      0.0000 
     23 N7         42.9000   62.3890   46.9770 N.2       1 DGT601      0.0000 
     24 C5         42.7080   61.1550   47.4360 C.2       1 DGT601      0.0000 
     25 C6         41.9360   60.6270   48.6440 C.2       1 DGT601      0.0000 
     26 O6         41.3700   61.3860   49.3640 O.2       1 DGT601      0.0000 
     27 N1         41.9050   59.2160   48.8890 N.am      1 DGT601      0.0000 
     28 C2         42.5960   58.3100   48.0090 C.2       1 DGT601      0.0000 
     29 N2         42.5660   56.8860   48.2670 N.pl3     1 DGT601      0.0000 
     30 N3         43.3320   58.8220   46.8650 N.2       1 DGT601      0.0000 
     31 C4         43.3570   60.2830   46.6190 C.2       1 DGT601      0.0000 
@<TRIPOS>BOND
     1    1    2 ar   
     2    1    3 ar   
     3    1    4 ar   
     4    1    5 1    
     5    5    6 1    
     6    6    7 ar   
     7    6    8 ar   
     8    6    9 1    
     9    9   10 1    
    10   10   11 ar   
    11   10   12 ar   
    12   10   13 1    
    13   13   14 1    
    14   14   15 1    
    15   15   16 1    
    16   15   17 1    
    17   16   20 1    
    18   17   18 1    
    19   17   19 1    
    20   19   20 1    
    21   20   21 1    
    22   21   22 1    
    23   21   31 1    
    24   22   23 2    
    25   23   24 1    
    26   24   25 1    
    27   24   31 2    
    28   25   26 2    
    29   25   27 am   
    30   27   28 1    
    31   28   29 1    
    32   28   30 2    
    33   30   31 1    
@<TRIPOS>SUBSTRUCTURE
     1 DGT601      1 GROUP   
@<TRIPOS>SET

