#    Name: 6oiy_3_DGT
#    Modification time : Fri May 22 19:30:00 2020

@<TRIPOS>MOLECULE
6oiy_3_DGT
   31    33     1     0     0
SMALL
NO_CHARGES


@<TRIPOS>ATOM
      1 PG         15.0240   19.0920   51.0330 P.3       1 DGT601      0.0000 
      2 O1G        14.8220   18.2550   52.2720 O.co2     1 DGT601      0.0000 
      3 O2G        16.4410   18.9520   50.5280 O.co2     1 DGT601      0.0000 
      4 O3G        14.0710   18.6300   49.9610 O.co2     1 DGT601      0.0000 
      5 O3B        14.7140   20.6630   51.4170 O.3       1 DGT601      0.0000 
      6 PB         14.4330   21.8380   50.2990 P.3       1 DGT601      0.0000 
      7 O1B        13.7650   21.2270   49.0910 O.co2     1 DGT601      0.0000 
      8 O2B        13.5100   22.8800   50.8840 O.co2     1 DGT601      0.0000 
      9 O3A        15.8710   22.5140   49.8530 O.3       1 DGT601      0.0000 
     10 PA         17.1480   22.8300   50.8540 P.3       1 DGT601      0.0000 
     11 O1A        16.7080   23.6340   52.0540 O.co2     1 DGT601      0.0000 
     12 O2A        17.7770   21.5450   51.3300 O.co2     1 DGT601      0.0000 
     13 O5'        18.2590   23.7060   50.0070 O.3       1 DGT601      0.0000 
     14 C5'        17.9740   25.0440   49.7020 C.3       1 DGT601      0.0000 
     15 C4'        18.6330   25.9440   50.6620 C.3       1 DGT601      0.0000 
     16 O4'        20.2790   25.9010   50.4480 O.3       1 DGT601      0.0000 
     17 C3'        18.2670   27.2110   50.4550 C.3       1 DGT601      0.0000 
     18 O3'        18.2780   27.9650   51.7060 O.3       1 DGT601      0.0000 
     19 C2'        19.3440   27.8300   49.5260 C.3       1 DGT601      0.0000 
     20 C1'        20.5820   26.8310   49.5770 C.3       1 DGT601      0.0000 
     21 N9         20.7960   26.2800   48.2570 N.pl3     1 DGT601      0.0000 
     22 C8         20.2360   25.5610   47.2680 C.2       1 DGT601      0.0000 
     23 N7         21.1390   25.4740   46.2710 N.2       1 DGT601      0.0000 
     24 C5         22.2340   26.1320   46.6400 C.2       1 DGT601      0.0000 
     25 C6         23.5740   26.3760   45.9380 C.2       1 DGT601      0.0000 
     26 O6         23.7660   25.9350   44.8530 O.2       1 DGT601      0.0000 
     27 N1         24.5900   27.1390   46.6000 N.am      1 DGT601      0.0000 
     28 C2         24.3520   27.6730   47.9180 C.2       1 DGT601      0.0000 
     29 N2         25.3780   28.4470   48.5990 N.pl3     1 DGT601      0.0000 
     30 N3         23.0700   27.4330   48.5750 N.2       1 DGT601      0.0000 
     31 C4         22.0160   26.6390   47.8850 C.2       1 DGT601      0.0000 
@<TRIPOS>BOND
     1    1    2 ar   
     2    1    3 ar   
     3    1    4 ar   
     4    1    5 1    
     5    5    6 1    
     6    6    7 ar   
     7    6    8 ar   
     8    6    9 1    
     9    9   10 1    
    10   10   11 ar   
    11   10   12 ar   
    12   10   13 1    
    13   13   14 1    
    14   14   15 1    
    15   15   16 1    
    16   15   17 1    
    17   16   20 1    
    18   17   18 1    
    19   17   19 1    
    20   19   20 1    
    21   20   21 1    
    22   21   22 1    
    23   21   31 1    
    24   22   23 2    
    25   23   24 1    
    26   24   25 1    
    27   24   31 2    
    28   25   26 2    
    29   25   27 am   
    30   27   28 1    
    31   28   29 1    
    32   28   30 2    
    33   30   31 1    
@<TRIPOS>SUBSTRUCTURE
     1 DGT601      1 GROUP   
@<TRIPOS>SET

