#    Name: 6oiy_2_DGT_CAVITY_N1_ALL
#    Modification time : Fri May 22 19:29:51 2020

@<TRIPOS>MOLECULE
6oiy_2_DGT_CAVITY_N1_ALL
  183     0     7     0     0
SMALL
NO_CHARGES


@<TRIPOS>ATOM
      1 OG         56.2200    5.3200   72.9700 O.3       1 SER1        0.0000 
      2 OG         55.3600    6.5400   72.8800 O.3       1 SER1        0.0000 
      3 OG         55.4700    4.8800   74.2000 O.3       1 SER1        0.0000 
      4 OG         56.2100    8.9500   72.4300 O.3       1 SER1        0.0000 
      5 OG         56.3300    7.2900   73.7500 O.3       1 SER1        0.0000 
      6 OG         55.4600    8.5100   73.6600 O.3       1 SER1        0.0000 
      7 OG         62.2500    4.0300   72.5300 O.3       1 SER1        0.0000 
      8 OG         58.8000    8.9200   72.1700 O.3       1 SER1        0.0000 
      9 OG         57.0700   11.3700   71.9900 O.3       1 SER1        0.0000 
     10 OG         61.5000    3.5900   73.7500 O.3       1 SER1        0.0000 
     11 OG         58.0500    8.4800   73.3900 O.3       1 SER1        0.0000 
     12 OG         57.1800    9.7000   73.3000 O.3       1 SER1        0.0000 
     13 OG         60.7500    3.1500   74.9800 O.3       1 SER1        0.0000 
     14 OG         63.2200    4.7800   73.4000 O.3       1 SER1        0.0000 
     15 OG         62.3600    6.0000   73.3100 O.3       1 SER1        0.0000 
     16 OG         62.4700    4.3400   74.6200 O.3       1 SER1        0.0000 
     17 OG         61.6100    5.5600   74.5300 O.3       1 SER1        0.0000 
     18 OG         61.7200    3.9000   75.8400 O.3       1 SER1        0.0000 
     19 OG         60.8600    5.1200   75.7500 O.3       1 SER1        0.0000 
     20 OG         60.9700    3.4600   77.0600 O.3       1 SER1        0.0000 
     21 OG         61.0900    1.8000   78.3800 O.3       1 SER1        0.0000 
     22 OG         60.2200    3.0200   78.2900 O.3       1 SER1        0.0000 
     23 OG         59.3600    4.2500   78.2000 O.3       1 SER1        0.0000 
     24 N          52.9900    0.7900   67.5200 N.am      2 ALA2        0.0000 
     25 N          53.2100    1.1000   69.6100 N.am      2 ALA2        0.0000 
     26 N          52.4600    0.6600   70.8300 N.am      2 ALA2        0.0000 
     27 N          55.6800    2.7300   68.0300 N.am      2 ALA2        0.0000 
     28 N          54.8100    3.9500   67.9400 N.am      2 ALA2        0.0000 
     29 O          56.9600    9.3900   71.2100 O.2       2 ALA2        0.0000 
     30 N          56.1000   10.6200   71.1200 N.am      2 ALA2        0.0000 
     31 N          64.8400    4.0000   72.2700 N.am      2 ALA2        0.0000 
     32 N          63.9700    5.2200   72.1800 N.am      2 ALA2        0.0000 
     33 N          64.9500    2.3400   73.5800 N.am      2 ALA2        0.0000 
     34 N          64.0900    3.5600   73.4900 N.am      2 ALA2        0.0000 
     35 O          58.1500   10.4500   74.1600 O.2       2 ALA2        0.0000 
     36 O          57.4000   10.0100   75.3900 O.2       2 ALA2        0.0000 
     37 O          65.9200    3.0900   74.4400 O.2       2 ALA2        0.0000 
     38 N          65.0600    4.3100   74.3500 N.am      2 ALA2        0.0000 
     39 O          61.0700    9.0700   77.3000 O.2       2 ALA2        0.0000 
     40 O          60.3200    8.6300   78.5200 O.2       2 ALA2        0.0000 
     41 OD1        51.5900    1.8800   70.7400 O.co2     3 ASP3        0.0000 
     42 OD1        51.7100    0.2200   72.0500 O.co2     3 ASP3        0.0000 
     43 OD1        52.5600    2.6300   71.6000 O.co2     3 ASP3        0.0000 
     44 OD1        51.7000    3.8500   71.5100 O.co2     3 ASP3        0.0000 
     45 OD1        53.5300    3.3800   72.4700 O.co2     3 ASP3        0.0000 
     46 OD1        52.6700    4.6000   72.3800 O.co2     3 ASP3        0.0000 
     47 OD1        54.5000    4.1300   73.3300 O.co2     3 ASP3        0.0000 
     48 OD1        53.6400    5.3500   73.2400 O.co2     3 ASP3        0.0000 
     49 OD1        52.7700    6.5700   73.1500 O.co2     3 ASP3        0.0000 
     50 OD1        53.7500    3.6900   74.5500 O.co2     3 ASP3        0.0000 
     51 OD1        52.8900    4.9100   74.4600 O.co2     3 ASP3        0.0000 
     52 OD1        52.0200    6.1400   74.3700 O.co2     3 ASP3        0.0000 
     53 OD1        53.0000    3.2500   75.7800 O.co2     3 ASP3        0.0000 
     54 OD1        61.7300    0.2700   76.3800 O.co2     3 ASP3        0.0000 
     55 OD1        60.8700    1.4900   76.2900 O.co2     3 ASP3        0.0000 
     56 OD1        60.9800   -0.1700   77.6000 O.co2     3 ASP3        0.0000 
     57 OD1        59.7700    9.6700   73.0300 O.co2     3 ASP3        0.0000 
     58 OD1        58.9000   10.8900   72.9400 O.co2     3 ASP3        0.0000 
     59 OD1        64.2000    1.9000   74.8000 O.co2     3 ASP3        0.0000 
     60 OD1        63.3400    3.1200   74.7100 O.co2     3 ASP3        0.0000 
     61 OD1        63.4500    1.4600   76.0200 O.co2     3 ASP3        0.0000 
     62 OD1        62.5900    2.6800   75.9300 O.co2     3 ASP3        0.0000 
     63 OD1        62.7000    1.0200   77.2500 O.co2     3 ASP3        0.0000 
     64 OD1        65.1700    2.6500   75.6700 O.co2     3 ASP3        0.0000 
     65 OD1        64.3100    3.8700   75.5800 O.co2     3 ASP3        0.0000 
     66 OD1        61.7100    7.5400   75.3000 O.co2     3 ASP3        0.0000 
     67 OD1        60.8500    8.7600   75.2100 O.co2     3 ASP3        0.0000 
     68 OD1        59.9800    9.9800   75.1200 O.co2     3 ASP3        0.0000 
     69 OD1        63.5600    3.4300   76.8000 O.co2     3 ASP3        0.0000 
     70 OD1        61.8300    5.8700   76.6200 O.co2     3 ASP3        0.0000 
     71 OD1        63.6700    1.7700   78.1100 O.co2     3 ASP3        0.0000 
     72 OD1        65.2800    4.6200   76.4400 O.co2     3 ASP3        0.0000 
     73 OD1        64.4100    5.8400   76.3500 O.co2     3 ASP3        0.0000 
     74 OD1        63.5500    7.0600   76.2600 O.co2     3 ASP3        0.0000 
     75 OD1        61.9300    7.8500   77.3900 O.co2     3 ASP3        0.0000 
     76 NZ         53.6300    8.9900   72.7000 N.4       4 LYS4        0.0000 
     77 NZ         52.8800    8.5500   73.9200 N.4       4 LYS4        0.0000 
     78 NZ         55.3500   10.1800   72.3400 N.4       4 LYS4        0.0000 
     79 NZ         54.4800   11.4000   72.2500 N.4       4 LYS4        0.0000 
     80 NZ         54.6000    9.7400   73.5700 N.4       4 LYS4        0.0000 
     81 NZ         53.7300   10.9600   73.4800 N.4       4 LYS4        0.0000 
     82 NZ         53.8500    9.3000   74.7900 N.4       4 LYS4        0.0000 
     83 NZ         52.9800   10.5200   74.7000 N.4       4 LYS4        0.0000 
     84 NZ         64.1900    5.5300   74.2600 N.4       4 LYS4        0.0000 
     85 NZ         63.3300    6.7500   74.1700 N.4       4 LYS4        0.0000 
     86 NZ         63.4400    5.0900   75.4800 N.4       4 LYS4        0.0000 
     87 NZ         62.5800    6.3100   75.3900 N.4       4 LYS4        0.0000 
     88 NZ         62.6900    4.6500   76.7100 N.4       4 LYS4        0.0000 
     89 NZ         62.8100    2.9900   78.0200 N.4       4 LYS4        0.0000 
     90 NZ         61.9400    4.2100   77.9300 N.4       4 LYS4        0.0000 
     91 NZ         62.6800    8.2900   76.1700 N.4       4 LYS4        0.0000 
     92 NZ         63.6600    5.4000   77.5700 N.4       4 LYS4        0.0000 
     93 CZ         53.2000    4.7300   69.0700 C.ar      5 PHE5        0.0000 
     94 CZ         54.1700    5.4800   69.9300 C.ar      5 PHE5        0.0000 
     95 CZ         53.4200    5.0400   71.1500 C.ar      5 PHE5        0.0000 
     96 CZ         52.5500    6.2600   71.0600 C.ar      5 PHE5        0.0000 
     97 CZ         55.2500    4.5700   72.1100 C.ar      5 PHE5        0.0000 
     98 CZ         53.5200    7.0100   71.9300 C.ar      5 PHE5        0.0000 
     99 CZ         55.2400    8.2000   71.5700 C.ar      5 PHE5        0.0000 
    100 CZ         54.3800    9.4300   71.4800 C.ar      5 PHE5        0.0000 
    101 CZ         54.4900    7.7600   72.7900 C.ar      5 PHE5        0.0000 
    102 CZ         53.8600    5.6600   75.3300 C.ar      5 PHE5        0.0000 
    103 CZ         52.9900    6.8900   75.2400 C.ar      5 PHE5        0.0000 
    104 CZ         53.9700    4.0000   76.6400 C.ar      5 PHE5        0.0000 
    105 CZ         56.4400    5.6300   75.0600 C.ar      5 PHE5        0.0000 
    106 CZ         55.6900    5.1900   76.2800 C.ar      5 PHE5        0.0000 
    107 CZ         54.8300    6.4100   76.1900 C.ar      5 PHE5        0.0000 
    108 CZ         53.9600    7.6300   76.1000 C.ar      5 PHE5        0.0000 
    109 CZ         53.1000    8.8600   76.0100 C.ar      5 PHE5        0.0000 
    110 CZ         52.2300   10.0800   75.9200 C.ar      5 PHE5        0.0000 
    111 CZ         54.9400    4.7500   77.5100 C.ar      5 PHE5        0.0000 
    112 CZ         57.3000    8.0400   74.6100 C.ar      5 PHE5        0.0000 
    113 CZ         58.2700    5.1600   76.0200 C.ar      5 PHE5        0.0000 
    114 CZ         57.4100    6.3800   75.9300 C.ar      5 PHE5        0.0000 
    115 CZ         56.6600    5.9400   77.1500 C.ar      5 PHE5        0.0000 
    116 CZ         55.7900    7.1600   77.0600 C.ar      5 PHE5        0.0000 
    117 CZ         54.9300    8.3800   76.9700 C.ar      5 PHE5        0.0000 
    118 CZ         54.0700    9.6100   76.8800 C.ar      5 PHE5        0.0000 
    119 CZ         55.9100    5.5000   78.3700 C.ar      5 PHE5        0.0000 
    120 CZ         59.8800    8.0100   74.3500 C.ar      5 PHE5        0.0000 
    121 CZ         59.0100    9.2300   74.2600 C.ar      5 PHE5        0.0000 
    122 CZ         59.9900    6.3500   75.6600 C.ar      5 PHE5        0.0000 
    123 CZ         59.1300    7.5700   75.5700 C.ar      5 PHE5        0.0000 
    124 CZ         59.2400    5.9100   76.8800 C.ar      5 PHE5        0.0000 
    125 CZ         58.4900    5.4700   78.1000 C.ar      5 PHE5        0.0000 
    126 CZ         56.7600    7.9100   77.9200 C.ar      5 PHE5        0.0000 
    127 CZ         57.7400    5.0300   79.3300 C.ar      5 PHE5        0.0000 
    128 CZ         56.8800    6.2500   79.2400 C.ar      5 PHE5        0.0000 
    129 CZ         61.0800    5.4400   77.8400 C.ar      5 PHE5        0.0000 
    130 CZ         59.4600    6.2200   78.9700 C.ar      5 PHE5        0.0000 
    131 CZ         58.6000    7.4400   78.8800 C.ar      5 PHE5        0.0000 
    132 CZ         62.0500    6.1900   78.7000 C.ar      5 PHE5        0.0000 
    133 CZ         61.1800    7.4100   78.6100 C.ar      5 PHE5        0.0000 
    134 CA         53.7400    1.2300   66.3000 C.3       6 GLY6        0.0000 
    135 CA         51.3700    1.5700   68.6500 C.3       6 GLY6        0.0000 
    136 CA         54.7100    1.9800   67.1600 C.3       6 GLY6        0.0000 
    137 CA         53.8400    3.2000   67.0700 C.3       6 GLY6        0.0000 
    138 CA         53.9600    1.5400   68.3800 C.3       6 GLY6        0.0000 
    139 CA         53.0900    2.7600   68.2900 C.3       6 GLY6        0.0000 
    140 CA         52.3400    2.3200   69.5100 C.3       6 GLY6        0.0000 
    141 CA         54.0600    3.5100   69.1600 C.3       6 GLY6        0.0000 
    142 CA         52.4500    4.2900   70.2900 C.3       6 GLY6        0.0000 
    143 CA         55.9000    3.0400   70.1100 C.3       6 GLY6        0.0000 
    144 CA         55.0300    4.2600   70.0200 C.3       6 GLY6        0.0000 
    145 CA         55.1500    2.6000   71.3400 C.3       6 GLY6        0.0000 
    146 CA         54.2800    3.8200   71.2400 C.3       6 GLY6        0.0000 
    147 CA         55.1400    6.2300   70.8000 C.3       6 GLY6        0.0000 
    148 CA         54.3900    5.7900   72.0200 C.3       6 GLY6        0.0000 
    149 CA         53.1200    1.5900   77.0900 C.3       6 GLY6        0.0000 
    150 CA         52.1300    8.1100   75.1500 C.3       6 GLY6        0.0000 
    151 CA         54.0800    2.3400   77.9500 C.3       6 GLY6        0.0000 
    152 CA         57.9300   10.1400   72.0800 C.3       6 GLY6        0.0000 
    153 CA         56.3200   10.9300   73.2100 C.3       6 GLY6        0.0000 
    154 CA         56.4300    9.2600   74.5200 C.3       6 GLY6        0.0000 
    155 CA         55.5700   10.4900   74.4300 C.3       6 GLY6        0.0000 
    156 CA         55.6800    8.8200   75.7400 C.3       6 GLY6        0.0000 
    157 CA         54.8200   10.0500   75.6500 C.3       6 GLY6        0.0000 
    158 CA         58.2600    8.7900   75.4800 C.3       6 GLY6        0.0000 
    159 CA         57.5100    8.3500   76.7000 C.3       6 GLY6        0.0000 
    160 CA         59.2300    9.5400   76.3400 C.3       6 GLY6        0.0000 
    161 CA         58.4800    9.1000   77.5600 C.3       6 GLY6        0.0000 
    162 DU         56.5400    1.5000   68.1200 H         7 CUB7        0.0000 
    163 DU         54.9300    2.2900   69.2500 H         7 CUB7        0.0000 
    164 DU         54.1800    1.8500   70.4700 H         7 CUB7        0.0000 
    165 DU         53.3100    3.0700   70.3800 H         7 CUB7        0.0000 
    166 DU         54.6100    6.1000   74.1100 H         7 CUB7        0.0000 
    167 DU         53.7400    7.3200   74.0100 H         7 CUB7        0.0000 
    168 DU         54.7200    4.4400   75.4200 H         7 CUB7        0.0000 
    169 DU         55.5800    6.8500   74.9700 H         7 CUB7        0.0000 
    170 DU         54.7100    8.0700   74.8800 H         7 CUB7        0.0000 
    171 DU         56.5500    3.9700   76.3700 H         7 CUB7        0.0000 
    172 DU         55.8000    3.5300   77.6000 H         7 CUB7        0.0000 
    173 DU         56.5500    7.6000   75.8400 H         7 CUB7        0.0000 
    174 DU         57.5200    4.7200   77.2400 H         7 CUB7        0.0000 
    175 DU         56.7700    4.2800   78.4600 H         7 CUB7        0.0000 
    176 DU         61.8400    2.2400   77.1600 H         7 CUB7        0.0000 
    177 DU         60.1100    4.6900   76.9700 H         7 CUB7        0.0000 
    178 DU         58.3800    7.1300   76.7900 H         7 CUB7        0.0000 
    179 DU         57.6300    6.6900   78.0100 H         7 CUB7        0.0000 
    180 DU         60.9600    7.1000   76.5200 H         7 CUB7        0.0000 
    181 DU         60.1000    8.3200   76.4300 H         7 CUB7        0.0000 
    182 DU         60.2100    6.6600   77.7500 H         7 CUB7        0.0000 
    183 DU         59.3500    7.8800   77.6600 H         7 CUB7        0.0000 
@<TRIPOS>BOND
@<TRIPOS>SUBSTRUCTURE
     1 SER1        1 GROUP   
     2 ALA2       24 GROUP   
     3 ASP3       41 GROUP   
     4 LYS4       76 GROUP   
     5 PHE5       93 GROUP   
     6 GLY6      134 GROUP   
     7 CUB7      162 GROUP   
@<TRIPOS>SET

