#    Name: 6ju1_1_FAD
#    Modification time : Fri May 22 19:32:49 2020

@<TRIPOS>MOLECULE
6ju1_1_FAD
   53    58     1     0     1
SMALL
NO_CHARGES


@<TRIPOS>ATOM
      1 PA         23.2650   24.4820   15.6760 P.3       1 FAD401      0.0000 
      2 O1A        24.6760   24.1400   15.2700 O.co2     1 FAD401      0.0000 
      3 O2A        22.3570   25.1010   14.6980 O.co2     1 FAD401      0.0000 
      4 O5B        23.2680   25.4310   16.9750 O.3       1 FAD401      0.0000 
      5 C5B        24.1920   25.1960   18.0720 C.3       1 FAD401      0.0000 
      6 C4B        24.5030   26.5070   18.7610 C.3       1 FAD401      0.0000 
      7 O4B        25.3850   26.2200   19.8810 O.3       1 FAD401      0.0000 
      8 C3B        25.2150   27.5780   17.8980 C.3       1 FAD401      0.0000 
      9 O3B        24.4890   28.8090   17.8190 O.3       1 FAD401      0.0000 
     10 C2B        26.6050   27.6520   18.4980 C.3       1 FAD401      0.0000 
     11 O2B        27.2030   28.9300   18.3430 O.3       1 FAD401      0.0000 
     12 C1B        26.3640   27.2290   19.9440 C.3       1 FAD401      0.0000 
     13 N9A        27.5100   26.7070   20.6350 N.pl3     1 FAD401      0.0000 
     14 C8A        28.4730   25.8790   20.1360 C.2       1 FAD401      0.0000 
     15 N7A        29.4060   25.5780   21.0060 N.2       1 FAD401      0.0000 
     16 C5A        29.0640   26.3240   22.1320 C.ar      1 FAD401      0.0000 
     17 C6A        29.6870   26.4550   23.3770 C.ar      1 FAD401      0.0000 
     18 N6A        30.8040   25.8080   23.7310 N.pl3     1 FAD401      0.0000 
     19 N1A        29.0880   27.2770   24.2760 N.ar      1 FAD401      0.0000 
     20 C2A        27.9500   27.8890   23.9140 C.ar      1 FAD401      0.0000 
     21 N3A        27.2860   27.8690   22.7620 N.ar      1 FAD401      0.0000 
     22 C4A        27.9220   27.0590   21.8830 C.ar      1 FAD401      0.0000 
     23 N1         17.8210   20.0900    8.4560 N.2       1 FAD401      0.0000 
     24 C2         16.5510   19.7800    8.1160 C.2       1 FAD401      0.0000 
     25 O2         15.7820   19.2100    8.8900 O.2       1 FAD401      0.0000 
     26 N3         16.0420   20.1450    6.8940 N.am      1 FAD401      0.0000 
     27 C4         16.8190   20.7450    5.9290 C.2       1 FAD401      0.0000 
     28 O4         16.2880   21.1680    4.8930 O.2       1 FAD401      0.0000 
     29 C4X        18.2120   20.9820    6.2350 C.2       1 FAD401      0.0000 
     30 N5         19.0120   21.4640    5.3170 N.2       1 FAD401      0.0000 
     31 C5X        20.3390   21.6560    5.6460 C.ar      1 FAD401      0.0000 
     32 C6         21.2280   22.1330    4.6600 C.ar      1 FAD401      0.0000 
     33 C7         22.5570   22.3480    4.9250 C.ar      1 FAD401      0.0000 
     34 C7M        23.4690   22.7660    3.8150 C.3       1 FAD401      0.0000 
     35 C8         23.0500   22.1710    6.2270 C.ar      1 FAD401      0.0000 
     36 C8M        24.4790   22.5360    6.5660 C.3       1 FAD401      0.0000 
     37 C9         22.1800   21.7740    7.2150 C.ar      1 FAD401      0.0000 
     38 C9A        20.8320   21.4650    6.9510 C.ar      1 FAD401      0.0000 
     39 N10        19.9380   20.9590    7.9090 N.pl3     1 FAD401      0.0000 
     40 C10        18.6210   20.6490    7.5690 C.2       1 FAD401      0.0000 
     41 C1'        20.3870   20.5800    9.2500 C.3       1 FAD401      0.0000 
     42 C2'        20.1880   21.6820   10.3070 C.3       1 FAD401      0.0000 
     43 O2'        20.5840   22.9390    9.8660 O.3       1 FAD401      0.0000 
     44 C3'        20.9480   21.3950   11.5960 C.3       1 FAD401      0.0000 
     45 O3'        20.5950   20.0510   11.9990 O.3       1 FAD401      0.0000 
     46 C4'        20.5710   22.3960   12.6950 C.3       1 FAD401      0.0000 
     47 O4'        21.3800   23.5890   12.5870 O.3       1 FAD401      0.0000 
     48 C5'        20.7730   21.7940   14.0660 C.3       1 FAD401      0.0000 
     49 O5'        20.3610   22.7450   15.0960 O.3       1 FAD401      0.0000 
     50 P          21.0800   22.7350   16.4980 P.3       1 FAD401      0.0000 
     51 O1P        21.1100   21.3540   17.0570 O.co2     1 FAD401      0.0000 
     52 O2P        20.3940   23.8370   17.2420 O.co2     1 FAD401      0.0000 
     53 O3P        22.6100   23.1200   16.2320 O.3       1 FAD401      0.0000 
@<TRIPOS>BOND
     1   16   22 ar   
     2   17   18 1    
     3   17   19 ar   
     4   19   20 ar   
     5   20   21 ar   
     6   21   22 ar   
     7   23   24 1    
     8   23   40 2    
     9   24   25 2    
    10   24   26 am   
    11   26   27 am   
    12   27   28 2    
    13   27   29 1    
    14   29   30 2    
    15   29   40 1    
    16   30   31 1    
    17   31   32 ar   
    18   31   38 ar   
    19   32   33 ar   
    20   33   34 1    
    21   33   35 ar   
    22   35   36 1    
    23   35   37 ar   
    24   37   38 ar   
    25   38   39 1    
    26   39   40 1    
    27   39   41 1    
    28   41   42 1    
    29   42   43 1    
    30   42   44 1    
    31   44   45 1    
    32   44   46 1    
    33   46   47 1    
    34   46   48 1    
    35   48   49 1    
    36   49   50 1    
    37   50   51 ar   
    38   50   52 ar   
    39   50   53 1    
    40    1    2 ar   
    41    1    3 ar   
    42    1    4 1    
    43    1   53 1    
    44    4    5 1    
    45    5    6 1    
    46    6    7 1    
    47    6    8 1    
    48    7   12 1    
    49    8    9 1    
    50    8   10 1    
    51   10   11 1    
    52   10   12 1    
    53   12   13 1    
    54   13   14 1    
    55   13   22 1    
    56   14   15 2    
    57   15   16 1    
    58   16   17 ar   
@<TRIPOS>SUBSTRUCTURE
     1 FAD401      1 GROUP   
@<TRIPOS>SET
ATOM$ORANGE STATIC     ATOMS   COLORGROUP SYSTEM 
54 5 5 6 6 8 8 10 10 12 12 14 14 16 16 17 17 20 \
20 22 22 24 24 27 27 29 29 31 31 32 32 33 33 34 34 35 \
35 36 36 37 37 38 38 40 40 41 41 42 42 44 44 46 46 48 \
48 

