#    Name: 6g9i_1_CXX
#    Modification time : Fri May 22 19:25:52 2020

@<TRIPOS>MOLECULE
6g9i_1_CXX
   22    24     1     0     0
SMALL
NO_CHARGES


@<TRIPOS>ATOM
      1 C1        -46.0460   13.5580   -5.7700 C.ar      1 CXX707      0.0000 
      2 C2        -45.8490   14.0080   -7.0720 C.ar      1 CXX707      0.0000 
      3 C3        -46.4530   13.3390   -8.1260 C.ar      1 CXX707      0.0000 
      4 C4        -47.2500   12.2320   -7.8610 C.ar      1 CXX707      0.0000 
      5 C5        -48.3360   10.5510   -6.4100 C.3       1 CXX707      0.0000 
      6 C6        -48.1290    9.7710   -5.1190 C.3       1 CXX707      0.0000 
      7 C8        -50.6370   10.8920   -2.4990 C.ar      1 CXX707      0.0000 
      8 C9        -50.0230   12.0510   -2.0350 C.ar      1 CXX707      0.0000 
      9 C10       -48.8050   12.4510   -2.5760 C.ar      1 CXX707      0.0000 
     10 C11       -48.2020   11.6980   -3.5820 C.ar      1 CXX707      0.0000 
     11 C13       -47.4470   11.7720   -6.5590 C.ar      1 CXX707      0.0000 
     12 C14       -46.8430   12.4480   -5.4950 C.ar      1 CXX707      0.0000 
     13 C17       -45.1790   11.2010   -1.0670 C.3       1 CXX707      0.0000 
     14 C18       -44.4840   10.1950    0.9890 C.3       1 CXX707      0.0000 
     15 C7        -50.0310   10.1390   -3.5000 C.ar      1 CXX707      0.0000 
     16 C12       -48.8130   10.5500   -4.0300 C.ar      1 CXX707      0.0000 
     17 C15       -45.7910   12.1730   -3.2880 C.3       1 CXX707      0.0000 
     18 C16       -45.7340   10.8970   -2.4530 C.3       1 CXX707      0.0000 
     19 C19       -43.3590    9.6390   -1.0610 C.3       1 CXX707      0.0000 
     20 N1        -46.9720   12.0860   -4.1390 N.pl3     1 CXX707      0.0000 
     21 N2        -44.6560    9.9730   -0.4540 N.4       1 CXX707      0.0000 
     22 CL2       -44.8170   15.4460   -7.3890 Cl        1 CXX707      0.0000 
@<TRIPOS>BOND
     1   11   12 ar   
     2   12   20 1    
     3   13   18 1    
     4   13   21 1    
     5   14   21 1    
     6   15   16 ar   
     7   17   18 1    
     8   17   20 1    
     9   19   21 1    
    10    1    2 ar   
    11    1   12 ar   
    12    2   22 1    
    13    2    3 ar   
    14    3    4 ar   
    15    4   11 ar   
    16    5    6 1    
    17    5   11 1    
    18    6   16 1    
    19    7    8 ar   
    20    7   15 ar   
    21    8    9 ar   
    22    9   10 ar   
    23   10   20 1    
    24   10   16 ar   
@<TRIPOS>SUBSTRUCTURE
     1 CXX707      1 GROUP   
@<TRIPOS>SET

