#    Name: 5uw1_4_GDU
#    Modification time : Fri May 22 19:20:00 2020

@<TRIPOS>MOLECULE
5uw1_4_GDU
   36    38     1     0     0
SMALL
NO_CHARGES


@<TRIPOS>ATOM
      1 N1        -81.6940   15.7710  -43.0560 N.am      1 GDU801      0.0000 
      2 C2        -81.1590   14.4510  -43.0980 C.2       1 GDU801      0.0000 
      3 N3        -80.8680   13.8540  -44.2710 N.am      1 GDU801      0.0000 
      4 C4        -81.0700   14.4920  -45.4320 C.2       1 GDU801      0.0000 
      5 C5        -81.5970   15.7870  -45.4310 C.2       1 GDU801      0.0000 
      6 C6        -81.9120   16.4140  -44.2190 C.2       1 GDU801      0.0000 
      7 O2        -80.9390   13.8120  -42.0470 O.2       1 GDU801      0.0000 
      8 O4        -80.7940   13.9210  -46.5090 O.2       1 GDU801      0.0000 
      9 C1D       -82.0270   16.4150  -41.7710 C.3       1 GDU801      0.0000 
     10 C2D       -81.1920   17.6490  -41.4480 C.3       1 GDU801      0.0000 
     11 O2D       -80.2620   17.3320  -40.4110 O.3       1 GDU801      0.0000 
     12 C3D       -82.1700   18.7150  -40.9930 C.3       1 GDU801      0.0000 
     13 C4D       -83.5580   18.1230  -41.2200 C.3       1 GDU801      0.0000 
     14 O4D       -83.3910   16.8310  -41.8060 O.3       1 GDU801      0.0000 
     15 O3D       -82.0060   19.0280  -39.6040 O.3       1 GDU801      0.0000 
     16 C5D       -84.4630   18.9530  -42.1200 C.3       1 GDU801      0.0000 
     17 O5D       -85.5290   19.4170  -41.3110 O.3       1 GDU801      0.0000 
     18 PA        -86.8850   19.9420  -41.9850 P.3       1 GDU801      0.0000 
     19 O1A       -86.5170   20.7180  -43.2340 O.co2     1 GDU801      0.0000 
     20 O2A       -87.8070   18.7520  -42.0850 O.co2     1 GDU801      0.0000 
     21 O3A       -87.5710   20.9450  -40.9200 O.3       1 GDU801      0.0000 
     22 PB        -86.8290   21.5500  -39.6240 P.3       1 GDU801      0.0000 
     23 O1B       -86.0690   20.4740  -38.8790 O.co2     1 GDU801      0.0000 
     24 O2B       -86.1390   22.8240  -40.0610 O.co2     1 GDU801      0.0000 
     25 O3B       -88.0740   21.9410  -38.6850 O.3       1 GDU801      0.0000 
     26 C1'       -89.2120   21.0990  -38.4510 C.3       1 GDU801      0.0000 
     27 C2'       -90.4140   21.6020  -39.2520 C.3       1 GDU801      0.0000 
     28 C3'       -90.7200   23.0460  -38.8390 C.3       1 GDU801      0.0000 
     29 C4'       -90.9390   23.1450  -37.3230 C.3       1 GDU801      0.0000 
     30 C5'       -89.8170   22.4470  -36.5330 C.3       1 GDU801      0.0000 
     31 C6'       -90.0970   22.4010  -35.0230 C.3       1 GDU801      0.0000 
     32 O2'       -90.1720   21.5010  -40.6660 O.3       1 GDU801      0.0000 
     33 O3'       -91.8700   23.5330  -39.5390 O.3       1 GDU801      0.0000 
     34 O4'       -92.2140   22.5780  -36.9910 O.3       1 GDU801      0.0000 
     35 O5'       -89.5630   21.1260  -37.0590 O.3       1 GDU801      0.0000 
     36 O6'       -90.3550   21.0680  -34.5600 O.3       1 GDU801      0.0000 
@<TRIPOS>BOND
     1    1    2 1    
     2    1    6 1    
     3    1    9 1    
     4    2    3 1    
     5    2    7 2    
     6    3    4 1    
     7    4    5 1    
     8    4    8 2    
     9    5    6 2    
    10    9   10 1    
    11    9   14 1    
    12   10   11 1    
    13   10   12 1    
    14   12   13 1    
    15   12   15 1    
    16   13   14 1    
    17   13   16 1    
    18   16   17 1    
    19   17   18 1    
    20   18   19 ar   
    21   18   20 ar   
    22   18   21 1    
    23   21   22 1    
    24   22   23 ar   
    25   22   24 ar   
    26   22   25 1    
    27   25   26 1    
    28   26   27 1    
    29   26   35 1    
    30   27   28 1    
    31   27   32 1    
    32   28   29 1    
    33   28   33 1    
    34   29   30 1    
    35   29   34 1    
    36   30   31 1    
    37   30   35 1    
    38   31   36 1    
@<TRIPOS>SUBSTRUCTURE
     1 GDU801      1 GROUP   
@<TRIPOS>SET

