#    Name: 5uw1_3_GDU
#    Modification time : Fri May 22 19:19:53 2020

@<TRIPOS>MOLECULE
5uw1_3_GDU
   36    38     1     0     0
SMALL
NO_CHARGES


@<TRIPOS>ATOM
      1 N1        -30.5240  -25.8120  -46.6200 N.am      1 GDU801      0.0000 
      2 C2        -31.0680  -24.6700  -45.9670 C.2       1 GDU801      0.0000 
      3 N3        -30.8700  -23.4440  -46.4660 N.am      1 GDU801      0.0000 
      4 C4        -30.1500  -23.2680  -47.5850 C.2       1 GDU801      0.0000 
      5 C5        -29.5940  -24.3640  -48.2480 C.2       1 GDU801      0.0000 
      6 C6        -29.7970  -25.6440  -47.7400 C.2       1 GDU801      0.0000 
      7 O2        -31.7480  -24.7650  -44.9230 O.2       1 GDU801      0.0000 
      8 O4        -29.9730  -22.1090  -48.0230 O.2       1 GDU801      0.0000 
      9 C1D       -30.7310  -27.1690  -46.0700 C.3       1 GDU801      0.0000 
     10 C2D       -31.4930  -28.0940  -47.0080 C.3       1 GDU801      0.0000 
     11 O2D       -32.5240  -28.7820  -46.2750 O.3       1 GDU801      0.0000 
     12 C3D       -30.4460  -29.0440  -47.5830 C.3       1 GDU801      0.0000 
     13 C4D       -29.3150  -29.0070  -46.5760 C.3       1 GDU801      0.0000 
     14 O4D       -29.4660  -27.7930  -45.8380 O.3       1 GDU801      0.0000 
     15 O3D       -30.8970  -30.3950  -47.7240 O.3       1 GDU801      0.0000 
     16 C5D       -27.9220  -29.0570  -47.1950 C.3       1 GDU801      0.0000 
     17 O5D       -27.1870  -30.0940  -46.5450 O.3       1 GDU801      0.0000 
     18 PA        -25.5710  -30.1880  -46.4880 P.3       1 GDU801      0.0000 
     19 O1A       -25.0000  -29.8270  -47.8500 O.co2     1 GDU801      0.0000 
     20 O2A       -25.1150  -29.5410  -45.1870 O.co2     1 GDU801      0.0000 
     21 O3A       -25.3100  -31.7680  -46.3840 O.3       1 GDU801      0.0000 
     22 PB        -26.4540  -32.8210  -45.9840 P.3       1 GDU801      0.0000 
     23 O1B       -27.1950  -32.2910  -44.7690 O.co2     1 GDU801      0.0000 
     24 O2B       -27.1240  -33.2090  -47.2960 O.co2     1 GDU801      0.0000 
     25 O3B       -25.5170  -34.0180  -45.4500 O.3       1 GDU801      0.0000 
     26 C1'       -24.5250  -33.7810  -44.4390 C.3       1 GDU801      0.0000 
     27 C2'       -23.1100  -34.0790  -44.9710 C.3       1 GDU801      0.0000 
     28 C3'       -22.9060  -35.5850  -45.1390 C.3       1 GDU801      0.0000 
     29 C4'       -23.2440  -36.2970  -43.8200 C.3       1 GDU801      0.0000 
     30 C5'       -24.6760  -35.9940  -43.3930 C.3       1 GDU801      0.0000 
     31 C6'       -25.0250  -36.6490  -42.0510 C.3       1 GDU801      0.0000 
     32 O2'       -22.8450  -33.4180  -46.2190 O.3       1 GDU801      0.0000 
     33 O3'       -21.5600  -35.8390  -45.5940 O.3       1 GDU801      0.0000 
     34 O4'       -22.3960  -35.8480  -42.7530 O.3       1 GDU801      0.0000 
     35 O5'       -24.8450  -34.5700  -43.2780 O.3       1 GDU801      0.0000 
     36 O6'       -24.7430  -35.7810  -40.9310 O.3       1 GDU801      0.0000 
@<TRIPOS>BOND
     1    1    2 1    
     2    1    6 1    
     3    1    9 1    
     4    2    3 1    
     5    2    7 2    
     6    3    4 1    
     7    4    5 1    
     8    4    8 2    
     9    5    6 2    
    10    9   10 1    
    11    9   14 1    
    12   10   11 1    
    13   10   12 1    
    14   12   13 1    
    15   12   15 1    
    16   13   14 1    
    17   13   16 1    
    18   16   17 1    
    19   17   18 1    
    20   18   19 ar   
    21   18   20 ar   
    22   18   21 1    
    23   21   22 1    
    24   22   23 ar   
    25   22   24 ar   
    26   22   25 1    
    27   25   26 1    
    28   26   27 1    
    29   26   35 1    
    30   27   28 1    
    31   27   32 1    
    32   28   29 1    
    33   28   33 1    
    34   29   30 1    
    35   29   34 1    
    36   30   31 1    
    37   30   35 1    
    38   31   36 1    
@<TRIPOS>SUBSTRUCTURE
     1 GDU801      1 GROUP   
@<TRIPOS>SET

