#    Name: 5uw1_2_GDU
#    Modification time : Fri May 22 19:19:46 2020

@<TRIPOS>MOLECULE
5uw1_2_GDU
   36    38     1     0     0
SMALL
NO_CHARGES


@<TRIPOS>ATOM
      1 N1        -73.4020  -17.9310  -77.4360 N.am      1 GDU801      0.0000 
      2 C2        -72.9600  -16.5940  -77.2220 C.2       1 GDU801      0.0000 
      3 N3        -73.2390  -15.9350  -76.0870 N.am      1 GDU801      0.0000 
      4 C4        -73.9460  -16.5330  -75.1200 C.2       1 GDU801      0.0000 
      5 C5        -74.4060  -17.8480  -75.2980 C.2       1 GDU801      0.0000 
      6 C6        -74.1210  -18.5380  -76.4800 C.2       1 GDU801      0.0000 
      7 O2        -72.2910  -15.9940  -78.0870 O.2       1 GDU801      0.0000 
      8 O4        -74.2050  -15.8990  -74.0700 O.2       1 GDU801      0.0000 
      9 C1D       -73.0980  -18.6320  -78.6950 C.3       1 GDU801      0.0000 
     10 C2D       -72.2220  -19.8680  -78.5180 C.3       1 GDU801      0.0000 
     11 O2D       -70.8730  -19.5470  -78.8760 O.3       1 GDU801      0.0000 
     12 C3D       -72.8160  -20.9320  -79.4270 C.3       1 GDU801      0.0000 
     13 C4D       -74.1480  -20.3490  -79.9090 C.3       1 GDU801      0.0000 
     14 O4D       -74.3140  -19.0580  -79.3070 O.3       1 GDU801      0.0000 
     15 O3D       -71.9310  -21.2110  -80.5230 O.3       1 GDU801      0.0000 
     16 C5D       -75.3760  -21.1800  -79.5540 C.3       1 GDU801      0.0000 
     17 O5D       -75.9120  -21.7960  -80.7320 O.3       1 GDU801      0.0000 
     18 PA        -77.4880  -21.7100  -81.0730 P.3       1 GDU801      0.0000 
     19 O1A       -78.2580  -21.9520  -79.7820 O.co2     1 GDU801      0.0000 
     20 O2A       -77.6410  -20.4630  -81.9230 O.co2     1 GDU801      0.0000 
     21 O3A       -77.8450  -22.9560  -82.0220 O.3       1 GDU801      0.0000 
     22 PB        -76.7110  -23.5780  -82.9540 P.3       1 GDU801      0.0000 
     23 O1B       -75.9490  -22.4320  -83.5880 O.co2     1 GDU801      0.0000 
     24 O2B       -76.0240  -24.6480  -82.1260 O.co2     1 GDU801      0.0000 
     25 O3B       -77.5580  -24.2570  -84.1340 O.3       1 GDU801      0.0000 
     26 C1'       -78.2860  -23.4560  -85.0620 C.3       1 GDU801      0.0000 
     27 C2'       -79.5750  -24.2120  -85.3780 C.3       1 GDU801      0.0000 
     28 C3'       -79.3640  -25.4180  -86.3060 C.3       1 GDU801      0.0000 
     29 C4'       -78.3770  -25.1510  -87.4570 C.3       1 GDU801      0.0000 
     30 C5'       -77.1430  -24.3380  -87.0230 C.3       1 GDU801      0.0000 
     31 C6'       -76.3120  -23.8970  -88.2310 C.3       1 GDU801      0.0000 
     32 O2'       -80.1340  -24.6730  -84.1400 O.3       1 GDU801      0.0000 
     33 O3'       -80.6390  -25.8340  -86.8390 O.3       1 GDU801      0.0000 
     34 O4'       -79.0520  -24.4920  -88.5440 O.3       1 GDU801      0.0000 
     35 O5'       -77.5050  -23.1860  -86.2390 O.3       1 GDU801      0.0000 
     36 O6'       -76.7600  -22.6270  -88.7270 O.3       1 GDU801      0.0000 
@<TRIPOS>BOND
     1    1    2 1    
     2    1    6 1    
     3    1    9 1    
     4    2    3 1    
     5    2    7 2    
     6    3    4 1    
     7    4    5 1    
     8    4    8 2    
     9    5    6 2    
    10    9   10 1    
    11    9   14 1    
    12   10   11 1    
    13   10   12 1    
    14   12   13 1    
    15   12   15 1    
    16   13   14 1    
    17   13   16 1    
    18   16   17 1    
    19   17   18 1    
    20   18   19 ar   
    21   18   20 ar   
    22   18   21 1    
    23   21   22 1    
    24   22   23 ar   
    25   22   24 ar   
    26   22   25 1    
    27   25   26 1    
    28   26   27 1    
    29   26   35 1    
    30   27   28 1    
    31   27   32 1    
    32   28   29 1    
    33   28   33 1    
    34   29   30 1    
    35   29   34 1    
    36   30   31 1    
    37   30   35 1    
    38   31   36 1    
@<TRIPOS>SUBSTRUCTURE
     1 GDU801      1 GROUP   
@<TRIPOS>SET

