#    Name: 5uw1_1_GDU
#    Modification time : Fri May 22 19:19:39 2020

@<TRIPOS>MOLECULE
5uw1_1_GDU
   36    38     1     0     0
SMALL
NO_CHARGES


@<TRIPOS>ATOM
      1 N1        -29.2080   22.2150  -47.7610 N.am      1 GDU801      0.0000 
      2 C2        -29.1890   21.1070  -48.6500 C.2       1 GDU801      0.0000 
      3 N3        -29.2730   19.8460  -48.1980 N.am      1 GDU801      0.0000 
      4 C4        -29.3670   19.5970  -46.8830 C.2       1 GDU801      0.0000 
      5 C5        -29.3690   20.6590  -45.9720 C.2       1 GDU801      0.0000 
      6 C6        -29.2950   21.9720  -46.4330 C.2       1 GDU801      0.0000 
      7 O2        -29.1020   21.2800  -49.8800 O.2       1 GDU801      0.0000 
      8 O4        -29.4350   18.4130  -46.4770 O.2       1 GDU801      0.0000 
      9 C1D       -29.1210   23.5810  -48.3290 C.3       1 GDU801      0.0000 
     10 C2D       -30.0150   24.6180  -47.6620 C.3       1 GDU801      0.0000 
     11 O2D       -30.5150   25.4770  -48.6870 O.3       1 GDU801      0.0000 
     12 C3D       -29.1140   25.3950  -46.7260 C.3       1 GDU801      0.0000 
     13 C4D       -27.7510   25.2590  -47.3890 C.3       1 GDU801      0.0000 
     14 O4D       -27.7900   24.0860  -48.2160 O.3       1 GDU801      0.0000 
     15 O3D       -29.5160   26.7590  -46.5940 O.3       1 GDU801      0.0000 
     16 C5D       -26.6170   25.1000  -46.3930 C.3       1 GDU801      0.0000 
     17 O5D       -26.4240   26.3050  -45.6640 O.3       1 GDU801      0.0000 
     18 PA        -24.9640   26.6280  -45.0850 P.3       1 GDU801      0.0000 
     19 O1A       -24.7390   25.7210  -43.8990 O.co2     1 GDU801      0.0000 
     20 O2A       -24.0100   26.6360  -46.2650 O.co2     1 GDU801      0.0000 
     21 O3A       -25.1290   28.1090  -44.4750 O.3       1 GDU801      0.0000 
     22 PB        -25.7000   29.3540  -45.3190 P.3       1 GDU801      0.0000 
     23 O1B       -25.7100   28.9910  -46.7890 O.co2     1 GDU801      0.0000 
     24 O2B       -26.9610   29.8100  -44.6040 O.co2     1 GDU801      0.0000 
     25 O3B       -24.5220   30.4590  -45.1520 O.3       1 GDU801      0.0000 
     26 C1'       -23.1790   30.2170  -45.6160 C.3       1 GDU801      0.0000 
     27 C2'       -22.1380   30.5760  -44.5370 C.3       1 GDU801      0.0000 
     28 C3'       -21.7050   32.0420  -44.5120 C.3       1 GDU801      0.0000 
     29 C4'       -21.5280   32.6540  -45.9050 C.3       1 GDU801      0.0000 
     30 C5'       -22.7130   32.3130  -46.8090 C.3       1 GDU801      0.0000 
     31 C6'       -22.4960   32.8610  -48.2240 C.3       1 GDU801      0.0000 
     32 O2'       -22.6510   30.2720  -43.2320 O.3       1 GDU801      0.0000 
     33 O3'       -20.4810   32.1350  -43.7580 O.3       1 GDU801      0.0000 
     34 O4'       -20.2990   32.2170  -46.5050 O.3       1 GDU801      0.0000 
     35 O5'       -22.9310   30.8950  -46.8630 O.3       1 GDU801      0.0000 
     36 O6'       -21.4280   32.1720  -48.8950 O.3       1 GDU801      0.0000 
@<TRIPOS>BOND
     1    1    2 1    
     2    1    6 1    
     3    1    9 1    
     4    2    3 1    
     5    2    7 2    
     6    3    4 1    
     7    4    5 1    
     8    4    8 2    
     9    5    6 2    
    10    9   10 1    
    11    9   14 1    
    12   10   11 1    
    13   10   12 1    
    14   12   13 1    
    15   12   15 1    
    16   13   14 1    
    17   13   16 1    
    18   16   17 1    
    19   17   18 1    
    20   18   19 ar   
    21   18   20 ar   
    22   18   21 1    
    23   21   22 1    
    24   22   23 ar   
    25   22   24 ar   
    26   22   25 1    
    27   25   26 1    
    28   26   27 1    
    29   26   35 1    
    30   27   28 1    
    31   27   32 1    
    32   28   29 1    
    33   28   33 1    
    34   29   30 1    
    35   29   34 1    
    36   30   31 1    
    37   30   35 1    
    38   31   36 1    
@<TRIPOS>SUBSTRUCTURE
     1 GDU801      1 GROUP   
@<TRIPOS>SET

