#    Name: 5zlf_1_B29
#    Modification time : Fri May 22 19:28:21 2020

@<TRIPOS>MOLECULE
5zlf_1_B29
   30    33     1     0     0
SMALL
NO_CHARGES


@<TRIPOS>ATOM
      1 CAY        64.8410   -4.4390   24.9730 C.ar      1 B29901      0.0000 
      2 CAP        66.0110   -5.1550   25.2740 C.ar      1 B29901      0.0000 
      3 CAI        66.3380   -5.4320   26.5930 C.ar      1 B29901      0.0000 
      4 CAH        65.5020   -5.0020   27.6160 C.ar      1 B29901      0.0000 
      5 CAO        64.3460   -4.2940   27.3180 C.ar      1 B29901      0.0000 
      6 CAX        64.0160   -4.0120   25.9820 C.ar      1 B29901      0.0000 
      7 OAT        62.9460   -3.3400   25.4020 O.3       1 B29901      0.0000 
      8 CBA        63.1150   -3.3510   24.0230 C.ar      1 B29901      0.0000 
      9 CAZ        64.2830   -4.0280   23.7590 C.ar      1 B29901      0.0000 
     10 CAQ        64.7140   -4.1970   22.4370 C.ar      1 B29901      0.0000 
     11 CAK        63.9700   -3.6890   21.3860 C.ar      1 B29901      0.0000 
     12 CAN        62.7920   -3.0060   21.6510 C.ar      1 B29901      0.0000 
     13 CAW        62.3490   -2.8380   22.9540 C.ar      1 B29901      0.0000 
     14 CAV        61.1710   -2.1180   23.1140 C.ar      1 B29901      0.0000 
     15 CAR        60.9540   -1.0430   22.2650 C.ar      1 B29901      0.0000 
     16 CAM        60.2290   -2.4270   24.0820 C.ar      1 B29901      0.0000 
     17 CAJ        59.0790   -1.6560   24.1870 C.ar      1 B29901      0.0000 
     18 CAL        58.8690   -0.5810   23.3330 C.ar      1 B29901      0.0000 
     19 CAU        59.8070   -0.2730   22.3580 C.ar      1 B29901      0.0000 
     20 CAS        59.6250    0.9080   21.3950 C.3       1 B29901      0.0000 
     21 CBB        58.2770    0.9720   20.6650 C.3       1 B29901      0.0000 
     22 PBC        58.3510    2.3500   19.4120 P.3       1 B29901      0.0000 
     23 OAD        59.2920    1.9680   18.2940 O.co2     1 B29901      0.0000 
     24 OAE        58.8420    3.6190   20.0660 O.co2     1 B29901      0.0000 
     25 OAA        56.9720    2.5830   18.8400 O.co2     1 B29901      0.0000 
     26 PBD        57.8770   -0.5990   19.7440 P.3       1 B29901      0.0000 
     27 OAF        58.9730   -0.8990   18.7500 O.co2     1 B29901      0.0000 
     28 OAG        57.7250   -1.7610   20.6960 O.co2     1 B29901      0.0000 
     29 OAB        56.5760   -0.4040   19.0000 O.co2     1 B29901      0.0000 
     30 OAC        57.2550    1.2590   21.5800 O.3       1 B29901      0.0000 
@<TRIPOS>BOND
     1    1    2 ar   
     2    1    6 ar   
     3    1    9 1    
     4    2    3 ar   
     5    3    4 ar   
     6    4    5 ar   
     7    5    6 ar   
     8    6    7 1    
     9    7    8 1    
    10    8    9 ar   
    11    8   13 ar   
    12    9   10 ar   
    13   10   11 ar   
    14   11   12 ar   
    15   12   13 ar   
    16   13   14 1    
    17   14   15 ar   
    18   14   16 ar   
    19   15   19 ar   
    20   16   17 ar   
    21   17   18 ar   
    22   18   19 ar   
    23   19   20 1    
    24   20   21 1    
    25   21   22 1    
    26   21   26 1    
    27   21   30 1    
    28   22   23 ar   
    29   22   24 ar   
    30   22   25 ar   
    31   26   27 ar   
    32   26   28 ar   
    33   26   29 ar   
@<TRIPOS>SUBSTRUCTURE
     1 B29901      1 GROUP   
@<TRIPOS>SET

