#    Name: 6ijo_11_NEX
#    Modification time : Fri May 22 19:30:10 2020

@<TRIPOS>MOLECULE
6ijo_11_NEX
   44    46     1     0     0
SMALL
NO_CHARGES


@<TRIPOS>ATOM
      1 C1          7.7250   63.5790   39.9020 C.3       1 NEX624      0.0000 
      2 C2          8.1430   64.3250   38.6310 C.3       1 NEX624      0.0000 
      3 C3          7.4940   65.6910   38.6210 C.3       1 NEX624      0.0000 
      4 C4          8.1500   66.4970   39.7130 C.3       1 NEX624      0.0000 
      5 C5          7.8450   65.9230   41.0840 C.3       1 NEX624      0.0000 
      6 C6          8.0190   64.4110   41.1390 C.2       1 NEX624      0.0000 
      7 C7          8.3690   63.8340   42.2030 C.1       1 NEX624      0.0000 
      8 C8          8.6360   63.2910   43.3350 C.2       1 NEX624      0.0000 
      9 C9          9.6760   62.2370   43.5560 C.2       1 NEX624      0.0000 
     10 C10         9.5570   61.5510   44.7010 C.2       1 NEX624      0.0000 
     11 C11        10.4830   60.5100   45.1150 C.2       1 NEX624      0.0000 
     12 C12        10.2310   59.8580   46.2430 C.2       1 NEX624      0.0000 
     13 C13        11.1380   58.8050   46.7160 C.2       1 NEX624      0.0000 
     14 C14        10.7060   57.9200   47.6210 C.2       1 NEX624      0.0000 
     15 C15        11.5890   56.8740   48.1070 C.2       1 NEX624      0.0000 
     16 C16         8.4140   62.1950   39.8700 C.3       1 NEX624      0.0000 
     17 C17         6.2050   63.3190   39.8700 C.3       1 NEX624      0.0000 
     18 C18         8.7390   66.6040   42.0810 C.3       1 NEX624      0.0000 
     19 C19        10.8200   61.9230   42.6180 C.3       1 NEX624      0.0000 
     20 C20        12.5370   58.7660   46.1870 C.3       1 NEX624      0.0000 
     21 O3          7.7720   66.3000   37.3610 O.3       1 NEX624      0.0000 
     22 O4          6.4980   66.1810   41.4510 O.3       1 NEX624      0.0000 
     23 C21        10.2700   47.1660   54.4790 C.3       1 NEX624      0.0000 
     24 C22         9.5000   45.8660   54.5560 C.3       1 NEX624      0.0000 
     25 C23         8.3240   45.9030   53.6090 C.3       1 NEX624      0.0000 
     26 C24         8.9280   45.6950   52.2510 C.3       1 NEX624      0.0000 
     27 C25         9.8670   46.8320   51.8820 C.3       1 NEX624      0.0000 
     28 C26        10.5450   47.6160   53.0330 C.3       1 NEX624      0.0000 
     29 C27        11.9490   48.0670   52.7000 C.2       1 NEX624      0.0000 
     30 C28        12.1480   49.3460   52.4100 C.2       1 NEX624      0.0000 
     31 C29        13.5040   49.7800   52.0780 C.2       1 NEX624      0.0000 
     32 C30        13.7050   50.9610   51.4970 C.2       1 NEX624      0.0000 
     33 C31        12.5770   51.8250   51.1860 C.2       1 NEX624      0.0000 
     34 C32        12.7820   52.7830   50.2940 C.2       1 NEX624      0.0000 
     35 C33        11.7170   53.7140   49.8970 C.2       1 NEX624      0.0000 
     36 C34        12.0640   54.8090   49.2090 C.2       1 NEX624      0.0000 
     37 C35        11.1110   55.8160   48.7530 C.2       1 NEX624      0.0000 
     38 C36        11.5560   46.9820   55.2700 C.3       1 NEX624      0.0000 
     39 C37         9.4580   48.2520   55.1570 C.3       1 NEX624      0.0000 
     40 C38        10.7690   46.5410   50.6770 C.3       1 NEX624      0.0000 
     41 C39        14.6580   48.8860   52.3880 C.3       1 NEX624      0.0000 
     42 C40        10.2920   53.4270   50.2550 C.3       1 NEX624      0.0000 
     43 O23         7.4370   44.8090   53.8040 O.3       1 NEX624      0.0000 
     44 O24         9.4940   48.1660   52.2360 O.3       1 NEX624      0.0000 
@<TRIPOS>BOND
     1    1    2 1    
     2    1    6 1    
     3    1   16 1    
     4    1   17 1    
     5    2    3 1    
     6    3    4 1    
     7    3   21 1    
     8    4    5 1    
     9    5    6 1    
    10    5   18 1    
    11    5   22 1    
    12    6    7 2    
    13    7    8 2    
    14    8    9 1    
    15    9   10 2    
    16    9   19 1    
    17   10   11 1    
    18   11   12 2    
    19   12   13 1    
    20   13   14 2    
    21   13   20 1    
    22   14   15 1    
    23   15   37 2    
    24   23   24 1    
    25   23   28 1    
    26   23   38 1    
    27   23   39 1    
    28   24   25 1    
    29   25   26 1    
    30   25   43 1    
    31   26   27 1    
    32   27   28 1    
    33   27   40 1    
    34   27   44 1    
    35   28   29 1    
    36   28   44 1    
    37   29   30 2    
    38   30   31 1    
    39   31   32 2    
    40   31   41 1    
    41   32   33 1    
    42   33   34 2    
    43   34   35 1    
    44   35   36 2    
    45   35   42 1    
    46   36   37 1    
@<TRIPOS>SUBSTRUCTURE
     1 NEX624      1 GROUP   
@<TRIPOS>SET

