#    Name: 6p1h_1_DCP
#    Modification time : Fri May 22 19:29:26 2020

@<TRIPOS>MOLECULE
6p1h_1_DCP
   28    29     1     0     0
SMALL
NO_CHARGES


@<TRIPOS>ATOM
      1 N1        156.6430  129.9250  127.9500 N.am      1 DCP1102     0.0000 
      2 C2        156.8370  129.3090  129.2630 C.2       1 DCP1102     0.0000 
      3 N3        155.6520  128.9810  130.1050 N.2       1 DCP1102     0.0000 
      4 C4        154.3200  129.2580  129.6260 C.2       1 DCP1102     0.0000 
      5 C5        154.1230  129.8730  128.3090 C.2       1 DCP1102     0.0000 
      6 C6        155.3140  130.2030  127.4670 C.2       1 DCP1102     0.0000 
      7 O2        157.9370  129.0890  129.6330 O.2       1 DCP1102     0.0000 
      8 N4        153.1610  128.9330  130.4630 N.pl3     1 DCP1102     0.0000 
      9 C1'       157.8060  130.2190  127.1470 C.3       1 DCP1102     0.0000 
     10 C2'       158.1960  128.8770  126.4230 C.3       1 DCP1102     0.0000 
     11 C3'       157.6620  129.0490  125.0340 C.3       1 DCP1102     0.0000 
     12 C4'       157.8230  130.3560  124.8160 C.3       1 DCP1102     0.0000 
     13 O4'       157.4690  131.0490  126.2170 O.3       1 DCP1102     0.0000 
     14 O3'       158.4810  128.2830  124.0790 O.3       1 DCP1102     0.0000 
     15 C5'       156.8220  130.7930  123.8270 C.3       1 DCP1102     0.0000 
     16 O5'       155.6550  131.1760  124.5540 O.3       1 DCP1102     0.0000 
     17 PA        154.1660  130.8080  123.8850 P.3       1 DCP1102     0.0000 
     18 O1A       154.1500  131.3380  122.4900 O.co2     1 DCP1102     0.0000 
     19 O2A       153.0570  131.3950  124.6980 O.co2     1 DCP1102     0.0000 
     20 O3A       153.9950  129.1970  123.8100 O.3       1 DCP1102     0.0000 
     21 PB        154.5240  128.3900  122.4940 P.3       1 DCP1102     0.0000 
     22 O1B       154.8130  129.3880  121.3850 O.co2     1 DCP1102     0.0000 
     23 O2B       155.7660  127.6200  122.8670 O.co2     1 DCP1102     0.0000 
     24 O3B       153.3720  127.3800  121.9900 O.3       1 DCP1102     0.0000 
     25 PG        152.7460  127.5310  120.4990 P.3       1 DCP1102     0.0000 
     26 O1G       153.8250  128.0830  119.6230 O.co2     1 DCP1102     0.0000 
     27 O2G       152.2870  126.2060  119.9940 O.co2     1 DCP1102     0.0000 
     28 O3G       151.5760  128.4750  120.5400 O.co2     1 DCP1102     0.0000 
@<TRIPOS>BOND
     1    1    2 am   
     2    1    6 1    
     3    1    9 1    
     4    2    3 1    
     5    2    7 2    
     6    3    4 2    
     7    4    5 1    
     8    4    8 1    
     9    5    6 2    
    10    9   10 1    
    11    9   13 1    
    12   10   11 1    
    13   11   12 1    
    14   11   14 1    
    15   12   13 1    
    16   12   15 1    
    17   15   16 1    
    18   16   17 1    
    19   17   18 ar   
    20   17   19 ar   
    21   17   20 1    
    22   20   21 1    
    23   21   22 ar   
    24   21   23 ar   
    25   21   24 1    
    26   24   25 1    
    27   25   26 ar   
    28   25   27 ar   
    29   25   28 ar   
@<TRIPOS>SUBSTRUCTURE
     1 DCP1102     1 GROUP   
@<TRIPOS>SET

