#    Name: 6p1h_1_DCP_CAVITY_N1_ALL
#    Modification time : Fri May 22 19:29:28 2020

@<TRIPOS>MOLECULE
6p1h_1_DCP_CAVITY_N1_ALL
   73     0     6     0     0
SMALL
NO_CHARGES


@<TRIPOS>ATOM
      1 O         146.0000  127.7300  119.4400 O.2       1 ALA2        0.0000 
      2 N         146.7500  126.7800  118.5600 N.am      1 ALA2        0.0000 
      3 N         145.8100  130.3800  113.8600 N.am      1 ALA2        0.0000 
      4 N         146.3300  132.0600  115.0400 N.am      1 ALA2        0.0000 
      5 N         147.0800  131.1100  114.1600 N.am      1 ALA2        0.0000 
      6 N         147.8400  130.1600  113.2800 N.am      1 ALA2        0.0000 
      7 N         152.0900  127.0700  117.7100 N.am      1 ALA2        0.0000 
      8 O         153.0800  126.9400  121.2400 O.2       1 ALA2        0.0000 
      9 O         153.6000  126.9000  119.1800 O.2       1 ALA2        0.0000 
     10 OD1       148.0300  125.7800  115.6200 O.co2     2 ASP3        0.0000 
     11 OD1       148.7800  124.8300  114.7400 O.co2     2 ASP3        0.0000 
     12 OD1       148.2700  126.6100  120.0400 O.co2     2 ASP3        0.0000 
     13 OD1       149.0200  125.6500  119.1500 O.co2     2 ASP3        0.0000 
     14 OD1       148.7800  126.5600  117.9800 O.co2     2 ASP3        0.0000 
     15 OD1       149.5400  125.6100  117.1000 O.co2     2 ASP3        0.0000 
     16 OD1       148.5500  127.4600  116.8000 O.co2     2 ASP3        0.0000 
     17 OD1       147.5600  129.3100  116.5100 O.co2     2 ASP3        0.0000 
     18 OD1       148.3100  128.3600  115.6300 O.co2     2 ASP3        0.0000 
     19 OD1       148.7800  128.2900  121.2200 O.co2     2 ASP3        0.0000 
     20 OD1       149.5400  127.3400  120.3400 O.co2     2 ASP3        0.0000 
     21 OD1       151.0500  125.4300  118.5800 O.co2     2 ASP3        0.0000 
     22 OD1       149.3000  128.2400  119.1600 O.co2     2 ASP3        0.0000 
     23 OD1       150.0600  127.2900  118.2800 O.co2     2 ASP3        0.0000 
     24 OD1       150.8100  126.3400  117.4000 O.co2     2 ASP3        0.0000 
     25 OD1       149.0700  129.1400  117.9900 O.co2     2 ASP3        0.0000 
     26 OD1       148.8300  130.0400  116.8100 O.co2     2 ASP3        0.0000 
     27 OD1       150.8100  128.0700  120.6400 O.co2     2 ASP3        0.0000 
     28 OD1       151.5700  127.1200  119.7600 O.co2     2 ASP3        0.0000 
     29 OD1       152.3200  126.1700  118.8800 O.co2     2 ASP3        0.0000 
     30 OD1       150.5800  128.9700  119.4700 O.co2     2 ASP3        0.0000 
     31 OD1       151.3300  128.0200  118.5900 O.co2     2 ASP3        0.0000 
     32 OD1       150.3400  129.8700  118.2900 O.co2     2 ASP3        0.0000 
     33 OD1       152.0900  128.8000  120.9500 O.co2     2 ASP3        0.0000 
     34 OD1       152.8400  127.8500  120.0700 O.co2     2 ASP3        0.0000 
     35 OD1       151.8500  129.7000  119.7700 O.co2     2 ASP3        0.0000 
     36 OD1       152.6100  128.7500  118.8900 O.co2     2 ASP3        0.0000 
     37 NZ        147.7900  126.6800  114.4400 N.4       3 LYS4        0.0000 
     38 NZ        147.5500  127.5800  113.2700 N.4       3 LYS4        0.0000 
     39 NZ        149.3000  126.5100  115.9200 N.4       3 LYS4        0.0000 
     40 NZ        150.0600  125.5600  115.0400 N.4       3 LYS4        0.0000 
     41 NZ        146.8000  130.2600  117.3900 N.4       3 LYS4        0.0000 
     42 NZ        149.0700  127.4100  114.7500 N.4       3 LYS4        0.0000 
     43 NZ        146.5600  131.1600  116.2200 N.4       3 LYS4        0.0000 
     44 NZ        148.0700  129.2600  114.4500 N.4       3 LYS4        0.0000 
     45 NZ        148.8300  128.3100  113.5700 N.4       3 LYS4        0.0000 
     46 NZ        148.5900  129.2100  112.4000 N.4       3 LYS4        0.0000 
     47 NZ        147.5600  131.0400  119.7500 N.4       3 LYS4        0.0000 
     48 NZ        148.3100  130.0900  118.8700 N.4       3 LYS4        0.0000 
     49 NZ        148.8300  131.7700  120.0600 N.4       3 LYS4        0.0000 
     50 NZ        149.5900  130.8200  119.1700 N.4       3 LYS4        0.0000 
     51 NZ        151.1000  130.6500  120.6500 N.4       3 LYS4        0.0000 
     52 CZ        144.5300  131.3800  116.7900 C.ar      4 PHE5        0.0000 
     53 CZ        145.0500  131.3300  114.7400 C.ar      4 PHE5        0.0000 
     54 CA        147.5100  125.8300  117.6700 C.3       5 GLY6        0.0000 
     55 CA        147.3200  130.2100  115.3300 C.3       5 GLY6        0.0000 
     56 CA        149.5400  129.0700  123.5800 C.3       5 GLY6        0.0000 
     57 CA        150.0600  129.0200  121.5200 C.3       5 GLY6        0.0000 
     58 CA        151.3300  129.7500  121.8300 C.3       5 GLY6        0.0000 
     59 DU        147.2700  126.7300  116.5000 H         6 CUB7        0.0000 
     60 DU        147.0400  127.6300  115.3200 H         6 CUB7        0.0000 
     61 DU        145.2900  130.4300  115.9100 H         6 CUB7        0.0000 
     62 DU        146.0400  129.4800  115.0300 H         6 CUB7        0.0000 
     63 DU        146.8000  128.5300  114.1500 H         6 CUB7        0.0000 
     64 DU        146.5200  129.4100  120.6200 H         6 CUB7        0.0000 
     65 DU        147.2700  128.4600  119.7400 H         6 CUB7        0.0000 
     66 DU        148.0300  127.5100  118.8600 H         6 CUB7        0.0000 
     67 DU        146.2800  130.3100  119.4500 H         6 CUB7        0.0000 
     68 DU        147.0400  129.3600  118.5700 H         6 CUB7        0.0000 
     69 DU        147.7900  128.4100  117.6800 H         6 CUB7        0.0000 
     70 DU        147.7900  130.1400  120.9300 H         6 CUB7        0.0000 
     71 DU        148.5500  129.1900  120.0500 H         6 CUB7        0.0000 
     72 DU        149.0700  130.8700  121.2300 H         6 CUB7        0.0000 
     73 DU        149.8200  129.9200  120.3500 H         6 CUB7        0.0000 
@<TRIPOS>BOND
@<TRIPOS>SUBSTRUCTURE
     1 ALA2        1 GROUP   
     2 ASP3       10 GROUP   
     3 LYS4       37 GROUP   
     4 PHE5       52 GROUP   
     5 GLY6       54 GROUP   
     6 CUB7       59 GROUP   
@<TRIPOS>SET

