#    Name: 6p1h_1_DCP_CAVITY_N1_4
#    Modification time : Fri May 22 19:29:28 2020

@<TRIPOS>MOLECULE
6p1h_1_DCP_CAVITY_N1_4
   30     0     5     0     0
SMALL
NO_CHARGES


@<TRIPOS>ATOM
      1 N         152.0900  127.0700  117.7100 N.am      1 ALA2        0.0000 
      2 O         153.0800  126.9400  121.2400 O.2       1 ALA2        0.0000 
      3 O         153.6000  126.9000  119.1800 O.2       1 ALA2        0.0000 
      4 OD1       148.2700  126.6100  120.0400 O.co2     2 ASP3        0.0000 
      5 OD1       149.0200  125.6500  119.1500 O.co2     2 ASP3        0.0000 
      6 OD1       148.7800  128.2900  121.2200 O.co2     2 ASP3        0.0000 
      7 OD1       149.5400  127.3400  120.3400 O.co2     2 ASP3        0.0000 
      8 OD1       151.0500  125.4300  118.5800 O.co2     2 ASP3        0.0000 
      9 OD1       149.3000  128.2400  119.1600 O.co2     2 ASP3        0.0000 
     10 OD1       150.0600  127.2900  118.2800 O.co2     2 ASP3        0.0000 
     11 OD1       150.8100  126.3400  117.4000 O.co2     2 ASP3        0.0000 
     12 OD1       149.0700  129.1400  117.9900 O.co2     2 ASP3        0.0000 
     13 OD1       150.8100  128.0700  120.6400 O.co2     2 ASP3        0.0000 
     14 OD1       151.5700  127.1200  119.7600 O.co2     2 ASP3        0.0000 
     15 OD1       152.3200  126.1700  118.8800 O.co2     2 ASP3        0.0000 
     16 OD1       150.5800  128.9700  119.4700 O.co2     2 ASP3        0.0000 
     17 OD1       151.3300  128.0200  118.5900 O.co2     2 ASP3        0.0000 
     18 OD1       150.3400  129.8700  118.2900 O.co2     2 ASP3        0.0000 
     19 OD1       152.0900  128.8000  120.9500 O.co2     2 ASP3        0.0000 
     20 OD1       152.8400  127.8500  120.0700 O.co2     2 ASP3        0.0000 
     21 OD1       151.8500  129.7000  119.7700 O.co2     2 ASP3        0.0000 
     22 OD1       152.6100  128.7500  118.8900 O.co2     2 ASP3        0.0000 
     23 NZ        149.5900  130.8200  119.1700 N.4       3 LYS4        0.0000 
     24 NZ        151.1000  130.6500  120.6500 N.4       3 LYS4        0.0000 
     25 CA        149.5400  129.0700  123.5800 C.3       4 GLY6        0.0000 
     26 CA        150.0600  129.0200  121.5200 C.3       4 GLY6        0.0000 
     27 CA        151.3300  129.7500  121.8300 C.3       4 GLY6        0.0000 
     28 DU        148.5500  129.1900  120.0500 H         5 CUB7        0.0000 
     29 DU        149.0700  130.8700  121.2300 H         5 CUB7        0.0000 
     30 DU        149.8200  129.9200  120.3500 H         5 CUB7        0.0000 
@<TRIPOS>BOND
@<TRIPOS>SUBSTRUCTURE
     1 ALA2        1 GROUP   
     2 ASP3        4 GROUP   
     3 LYS4       23 GROUP   
     4 GLY6       25 GROUP   
     5 CUB7       28 GROUP   
@<TRIPOS>SET

