#    Name: 6dnz_2_SAH
#    Modification time : Fri May 22 19:23:41 2020

@<TRIPOS>MOLECULE
6dnz_2_SAH
   45    47     1     0     0
SMALL
NO_CHARGES


@<TRIPOS>ATOM
      1 N          56.3700   25.3740   24.2410 N.4       1 SAH401      0.0000 
      2 CA         56.0530   25.6640   25.6250 C.3       1 SAH401      0.0000 
      3 CB         54.6910   25.0840   25.9780 C.3       1 SAH401      0.0000 
      4 CG         53.7340   26.2310   26.2380 C.3       1 SAH401      0.0000 
      5 SD         52.1000   25.6360   26.5070 S.3       1 SAH401      0.0000 
      6 C          57.0980   25.1110   26.5460 C.2       1 SAH401      0.0000 
      7 O          57.6470   24.0340   26.2330 O.co2     1 SAH401      0.0000 
      8 OXT        57.3700   25.7460   27.5900 O.co2     1 SAH401      0.0000 
      9 C5'        51.2440   26.4210   25.1760 C.3       1 SAH401      0.0000 
     10 C4'        51.2730   27.9460   25.2410 C.3       1 SAH401      0.0000 
     11 O4'        50.5280   28.4430   24.1260 O.3       1 SAH401      0.0000 
     12 C3'        50.6680   28.5490   26.5120 C.3       1 SAH401      0.0000 
     13 O3'        51.7030   29.2740   27.1910 O.3       1 SAH401      0.0000 
     14 C2'        49.5680   29.4780   26.0040 C.3       1 SAH401      0.0000 
     15 O2'        49.7130   30.7940   26.5450 O.3       1 SAH401      0.0000 
     16 C1'        49.6900   29.5310   24.4930 C.3       1 SAH401      0.0000 
     17 N9         48.4150   29.3700   23.7500 N.pl3     1 SAH401      0.0000 
     18 C8         47.3790   28.5640   24.0630 C.2       1 SAH401      0.0000 
     19 N7         46.3890   28.6720   23.1410 N.2       1 SAH401      0.0000 
     20 C5         46.7950   29.5590   22.2160 C.ar      1 SAH401      0.0000 
     21 C6         46.2280   30.1300   20.9720 C.ar      1 SAH401      0.0000 
     22 N6         45.0000   29.7600   20.5370 N.pl3     1 SAH401      0.0000 
     23 N1         46.9790   31.0280   20.2950 N.ar      1 SAH401      0.0000 
     24 C2         48.1880   31.3730   20.7510 C.ar      1 SAH401      0.0000 
     25 N3         48.7800   30.9220   21.8470 N.ar      1 SAH401      0.0000 
     26 C4         48.1320   30.0160   22.6190 C.ar      1 SAH401      0.0000 
     27 H2         48.7390   32.0980   20.1650 H         1 SAH401      0.0000 
     28 HN1        57.1660   24.7960   24.0160 H         1 SAH401      0.0000 
     29 HN2        55.7940   25.7510   23.5020 H         1 SAH401      0.0000 
     30 HA         56.0210   26.7540   25.7600 H         1 SAH401      0.0000 
     31 HB1        54.7700   24.4520   26.8650 H         1 SAH401      0.0000 
     32 HB2        54.3220   24.4660   25.1570 H         1 SAH401      0.0000 
     33 HG1        53.7390   26.9110   25.3840 H         1 SAH401      0.0000 
     34 HG2        54.0660   26.7910   27.1150 H         1 SAH401      0.0000 
     35 H5'1       50.2040   26.0890   25.1830 H         1 SAH401      0.0000 
     36 H5'2       51.6920   26.1010   24.2330 H         1 SAH401      0.0000 
     37 H4'        52.3160   28.2940   25.2310 H         1 SAH401      0.0000 
     38 H3'        50.2010   27.7830   27.1450 H         1 SAH401      0.0000 
     39 HO3'       51.3180   29.7790   27.9210 H         1 SAH401      0.0000 
     40 H2'        48.5830   29.1050   26.3190 H         1 SAH401      0.0000 
     41 HO2'       49.4330   30.7940   27.4710 H         1 SAH401      0.0000 
     42 H1'        50.0730   30.5310   24.2460 H         1 SAH401      0.0000 
     43 H8         47.3430   27.9190   24.9320 H         1 SAH401      0.0000 
     44 HN61       44.4600   29.0870   21.0610 H         1 SAH401      0.0000 
     45 HN62       44.6240   30.1570   19.6880 H         1 SAH401      0.0000 
@<TRIPOS>BOND
     1    1    2 1    
     2    1   28 1    
     3    1   29 1    
     4    2    3 1    
     5    2    6 1    
     6    2   30 1    
     7    3    4 1    
     8    3   31 1    
     9    3   32 1    
    10    4    5 1    
    11    4   33 1    
    12    4   34 1    
    13    5    9 1    
    14    6    7 ar   
    15    6    8 ar   
    16    9   10 1    
    17    9   35 1    
    18    9   36 1    
    19   10   11 1    
    20   10   12 1    
    21   10   37 1    
    22   11   16 1    
    23   12   13 1    
    24   12   14 1    
    25   12   38 1    
    26   13   39 1    
    27   14   15 1    
    28   14   16 1    
    29   14   40 1    
    30   15   41 1    
    31   16   17 1    
    32   16   42 1    
    33   17   18 1    
    34   17   26 1    
    35   18   19 2    
    36   18   43 1    
    37   19   20 1    
    38   20   21 ar   
    39   20   26 ar   
    40   21   22 1    
    41   21   23 ar   
    42   22   44 1    
    43   22   45 1    
    44   23   24 ar   
    45   24   25 ar   
    46   24   27 1    
    47   25   26 ar   
@<TRIPOS>SUBSTRUCTURE
     1 SAH401      1 GROUP   
@<TRIPOS>SET

