#    Name: 6dnz_1_SAH_CAVITY_N1_ALL
#    Modification time : Fri May 22 19:23:38 2020

@<TRIPOS>MOLECULE
6dnz_1_SAH_CAVITY_N1_ALL
   92     0     7     0     0
SMALL
NO_CHARGES


@<TRIPOS>ATOM
      1 OG         95.1200   21.2400   40.7100 O.3       1 SER1        0.0000 
      2 OG         97.5700   18.5100   40.9200 O.3       1 SER1        0.0000 
      3 OG        100.2100   24.2800   42.4800 O.3       1 SER1        0.0000 
      4 OG        101.7700   23.2900   43.5200 O.3       1 SER1        0.0000 
      5 N          90.0200   23.1600   39.3800 N.am      2 ALA2        0.0000 
      6 N          89.3600   23.4900   40.6900 N.am      2 ALA2        0.0000 
      7 N          91.3500   23.5700   39.9500 N.am      2 ALA2        0.0000 
      8 N          92.6800   23.9800   40.5100 N.am      2 ALA2        0.0000 
      9 N          97.3000   23.7900   37.7100 N.am      2 ALA2        0.0000 
     10 N          97.8000   17.1100   41.3900 N.am      2 ALA2        0.0000 
     11 N          96.9200   18.8500   42.2300 N.am      2 ALA2        0.0000 
     12 O          99.5200   22.4600   37.4400 O.2       2 ALA2        0.0000 
     13 N          98.8600   22.8000   38.7500 N.am      2 ALA2        0.0000 
     14 N          98.2100   23.1300   40.0500 N.am      2 ALA2        0.0000 
     15 N          97.9700   24.5300   39.5800 N.am      2 ALA2        0.0000 
     16 O          97.0900   26.2700   40.4100 O.2       2 ALA2        0.0000 
     17 N         100.8500   22.8700   38.0000 N.am      2 ALA2        0.0000 
     18 N         100.1900   23.2100   39.3100 N.am      2 ALA2        0.0000 
     19 N          99.5300   23.5400   40.6100 N.am      2 ALA2        0.0000 
     20 N          98.6500   25.2800   41.4500 N.am      2 ALA2        0.0000 
     21 N          98.4200   26.6800   40.9700 N.am      2 ALA2        0.0000 
     22 N         100.8600   23.9500   41.1800 N.am      2 ALA2        0.0000 
     23 N         100.6300   25.3500   40.7000 N.am      2 ALA2        0.0000 
     24 N          99.9800   25.6900   42.0100 N.am      2 ALA2        0.0000 
     25 OD1        99.5500   18.5900   40.1700 O.co2     3 ASP3        0.0000 
     26 OD1        98.9000   18.9200   41.4800 O.co2     3 ASP3        0.0000 
     27 OD1        98.6700   20.3200   41.0000 O.co2     3 ASP3        0.0000 
     28 OD1       100.8800   18.9900   40.7300 O.co2     3 ASP3        0.0000 
     29 OD1       100.6500   20.4000   40.2600 O.co2     3 ASP3        0.0000 
     30 OD1       100.0000   20.7300   41.5700 O.co2     3 ASP3        0.0000 
     31 OD1        99.3400   21.0700   42.8700 O.co2     3 ASP3        0.0000 
     32 OD1       101.9800   20.8100   40.8200 O.co2     3 ASP3        0.0000 
     33 OD1       101.5200   23.6100   39.8700 O.co2     3 ASP3        0.0000 
     34 OD1       101.3300   21.1400   42.1300 O.co2     3 ASP3        0.0000 
     35 OD1       100.4400   22.8800   42.9600 O.co2     3 ASP3        0.0000 
     36 OD1       102.6600   21.5500   42.6900 O.co2     3 ASP3        0.0000 
     37 OD1       102.4300   22.9600   42.2100 O.co2     3 ASP3        0.0000 
     38 OD1       102.1900   24.3600   41.7400 O.co2     3 ASP3        0.0000 
     39 OD1       101.9600   25.7600   41.2600 O.co2     3 ASP3        0.0000 
     40 OD1       103.5200   24.7700   42.3000 O.co2     3 ASP3        0.0000 
     41 NZ         89.5900   22.0900   41.1700 N.4       4 LYS4        0.0000 
     42 NZ         92.0000   23.2300   38.6400 N.4       4 LYS4        0.0000 
     43 NZ         91.8100   20.7600   40.9000 N.4       4 LYS4        0.0000 
     44 NZ         91.5800   22.1600   40.4200 N.4       4 LYS4        0.0000 
     45 NZ         90.9200   22.5000   41.7300 N.4       4 LYS4        0.0000 
     46 NZ         93.3300   23.6400   39.2000 N.4       4 LYS4        0.0000 
     47 NZ         95.3200   23.7200   38.4500 N.4       4 LYS4        0.0000 
     48 NZ         94.6600   24.0500   39.7600 N.4       4 LYS4        0.0000 
     49 NZ         96.6400   24.1300   39.0200 N.4       4 LYS4        0.0000 
     50 NZ         99.7900   17.1800   40.6500 N.4       4 LYS4        0.0000 
     51 NZ        101.5400   24.6900   43.0400 N.4       4 LYS4        0.0000 
     52 NZ        101.3100   26.1000   42.5700 N.4       4 LYS4        0.0000 
     53 NZ        103.1000   23.7000   44.0800 N.4       4 LYS4        0.0000 
     54 NZ        102.8700   25.1000   43.6100 N.4       4 LYS4        0.0000 
     55 CZ         92.2300   21.8300   39.1100 C.ar      5 PHE5        0.0000 
     56 CZ         93.9900   23.3100   37.8900 C.ar      5 PHE5        0.0000 
     57 CZ         93.5600   22.2400   39.6800 C.ar      5 PHE5        0.0000 
     58 CZ         95.9700   23.3800   37.1500 C.ar      5 PHE5        0.0000 
     59 CZ         95.5500   22.3100   38.9300 C.ar      5 PHE5        0.0000 
     60 CZ         97.9900   19.5800   39.1400 C.ar      5 PHE5        0.0000 
     61 CZ         97.5300   22.3900   38.1800 C.ar      5 PHE5        0.0000 
     62 CZ         97.3400   19.9100   40.4400 C.ar      5 PHE5        0.0000 
     63 CZ         97.1100   21.3200   39.9700 C.ar      5 PHE5        0.0000 
     64 CZ         96.8800   22.7200   39.4900 C.ar      5 PHE5        0.0000 
     65 CZ         99.3200   19.9900   39.7000 C.ar      5 PHE5        0.0000 
     66 CZ         99.0900   21.3900   39.2200 C.ar      5 PHE5        0.0000 
     67 CA         90.9000   21.4200   38.5500 C.3       6 GLY6        0.0000 
     68 CA         90.2500   21.7500   39.8600 C.3       6 GLY6        0.0000 
     69 CA         93.1400   21.1700   41.4600 C.3       6 GLY6        0.0000 
     70 CA         92.9100   22.5700   40.9800 C.3       6 GLY6        0.0000 
     71 CA         94.8900   22.6500   40.2400 C.3       6 GLY6        0.0000 
     72 CA         94.0100   24.3900   41.0700 C.3       6 GLY6        0.0000 
     73 CA         96.6800   20.2500   41.7500 C.3       6 GLY6        0.0000 
     74 CA         96.4500   21.6500   41.2700 C.3       6 GLY6        0.0000 
     75 CA         96.2200   23.0600   40.8000 C.3       6 GLY6        0.0000 
     76 CA         95.9900   24.4600   40.3200 C.3       6 GLY6        0.0000 
     77 CA         95.7600   25.8600   39.8500 C.3       6 GLY6        0.0000 
     78 CA         98.0100   20.6600   42.3100 C.3       6 GLY6        0.0000 
     79 CA         97.7800   22.0600   41.8400 C.3       6 GLY6        0.0000 
     80 CA         97.5500   23.4700   41.3600 C.3       6 GLY6        0.0000 
     81 CA         97.3200   24.8700   40.8800 C.3       6 GLY6        0.0000 
     82 CA         96.4300   26.6100   41.7200 C.3       6 GLY6        0.0000 
     83 CA         99.1100   22.4700   42.4000 C.3       6 GLY6        0.0000 
     84 CA         98.8800   23.8800   41.9200 C.3       6 GLY6        0.0000 
     85 CA         97.7600   27.0200   42.2800 C.3       6 GLY6        0.0000 
     86 CA         99.7500   27.0900   41.5300 C.3       6 GLY6        0.0000 
     87 CA         99.3200   26.0200   43.3100 C.3       6 GLY6        0.0000 
     88 DU         98.4400   21.7300   40.5300 H         7 CUB7        0.0000 
     89 DU        100.4200   21.8000   39.7800 H         7 CUB7        0.0000 
     90 DU         99.7700   22.1400   41.0900 H         7 CUB7        0.0000 
     91 DU        101.7500   22.2100   40.3400 H         7 CUB7        0.0000 
     92 DU        101.1000   22.5500   41.6500 H         7 CUB7        0.0000 
@<TRIPOS>BOND
@<TRIPOS>SUBSTRUCTURE
     1 SER1        1 GROUP   
     2 ALA2        5 GROUP   
     3 ASP3       25 GROUP   
     4 LYS4       41 GROUP   
     5 PHE5       55 GROUP   
     6 GLY6       67 GROUP   
     7 CUB7       88 GROUP   
@<TRIPOS>SET

