#    Name: 6dnz_1_SAH
#    Modification time : Fri May 22 19:23:37 2020

@<TRIPOS>MOLECULE
6dnz_1_SAH
   45    47     1     0     0
SMALL
NO_CHARGES


@<TRIPOS>ATOM
      1 N          88.0820   24.7800   41.2790 N.4       1 SAH401      0.0000 
      2 CA         88.1520   23.7820   40.2310 C.3       1 SAH401      0.0000 
      3 CB         89.1980   22.7290   40.5670 C.3       1 SAH401      0.0000 
      4 CG         90.4500   23.0000   39.7540 C.3       1 SAH401      0.0000 
      5 SD         91.6810   21.7890   40.0930 S.3       1 SAH401      0.0000 
      6 C          86.8230   23.1210   40.0360 C.2       1 SAH401      0.0000 
      7 O          86.4600   22.8360   38.8740 O.co2     1 SAH401      0.0000 
      8 OXT        86.1370   22.8720   41.0490 O.co2     1 SAH401      0.0000 
      9 C5'        92.9390   22.7980   40.8080 C.3       1 SAH401      0.0000 
     10 C4'        93.5100   23.8320   39.8430 C.3       1 SAH401      0.0000 
     11 O4'        94.5490   24.5350   40.5270 O.3       1 SAH401      0.0000 
     12 C3'        94.1160   23.2550   38.5610 C.3       1 SAH401      0.0000 
     13 O3'        93.3230   23.7160   37.4570 O.3       1 SAH401      0.0000 
     14 C2'        95.5350   23.8210   38.5250 C.3       1 SAH401      0.0000 
     15 O2'        95.8240   24.4590   37.2780 O.3       1 SAH401      0.0000 
     16 C1'        95.6250   24.8350   39.6500 C.3       1 SAH401      0.0000 
     17 N9         96.8750   24.7830   40.4380 N.pl3     1 SAH401      0.0000 
     18 C8         97.5610   23.6830   40.8060 C.2       1 SAH401      0.0000 
     19 N7         98.6570   24.0230   41.5310 N.2       1 SAH401      0.0000 
     20 C5         98.6710   25.3630   41.6330 C.ar      1 SAH401      0.0000 
     21 C6         99.5530   26.3650   42.2720 C.ar      1 SAH401      0.0000 
     22 N6        100.6560   25.9700   42.9500 N.pl3     1 SAH401      0.0000 
     23 N1         99.2130   27.6670   42.1500 N.ar      1 SAH401      0.0000 
     24 C2         98.1130   28.0140   41.4690 C.ar      1 SAH401      0.0000 
     25 N3         97.2640   27.1960   40.8660 N.ar      1 SAH401      0.0000 
     26 C4         97.4930   25.8620   40.9120 C.ar      1 SAH401      0.0000 
     27 H2         97.8950   29.0720   41.4040 H         1 SAH401      0.0000 
     28 HN1        87.2330   24.8920   41.8140 H         1 SAH401      0.0000 
     29 HN2        88.8830   25.3640   41.4740 H         1 SAH401      0.0000 
     30 HA         88.4410   24.2780   39.2940 H         1 SAH401      0.0000 
     31 HB1        88.8130   21.7340   40.3380 H         1 SAH401      0.0000 
     32 HB2        89.4320   22.7620   41.6330 H         1 SAH401      0.0000 
     33 HG1        90.8360   23.9920   39.9970 H         1 SAH401      0.0000 
     34 HG2        90.2050   22.9860   38.6900 H         1 SAH401      0.0000 
     35 H5'1       93.7510   22.1550   41.1560 H         1 SAH401      0.0000 
     36 H5'2       92.5250   23.3160   41.6750 H         1 SAH401      0.0000 
     37 H4'        92.7050   24.4990   39.5050 H         1 SAH401      0.0000 
     38 H3'        94.1930   22.1590   38.5960 H         1 SAH401      0.0000 
     39 HO3'       93.7790   23.5180   36.6270 H         1 SAH401      0.0000 
     40 H2'        96.2680   23.0090   38.6360 H         1 SAH401      0.0000 
     41 HO2'       95.9760   23.7870   36.5990 H         1 SAH401      0.0000 
     42 H1'        95.5920   25.8320   39.1880 H         1 SAH401      0.0000 
     43 H8         97.2770   22.6670   40.5580 H         1 SAH401      0.0000 
     44 HN61      100.8790   24.9870   43.0230 H         1 SAH401      0.0000 
     45 HN62      101.2560   26.6570   43.3830 H         1 SAH401      0.0000 
@<TRIPOS>BOND
     1    1    2 1    
     2    1   28 1    
     3    1   29 1    
     4    2    3 1    
     5    2    6 1    
     6    2   30 1    
     7    3    4 1    
     8    3   31 1    
     9    3   32 1    
    10    4    5 1    
    11    4   33 1    
    12    4   34 1    
    13    5    9 1    
    14    6    7 ar   
    15    6    8 ar   
    16    9   10 1    
    17    9   35 1    
    18    9   36 1    
    19   10   11 1    
    20   10   12 1    
    21   10   37 1    
    22   11   16 1    
    23   12   13 1    
    24   12   14 1    
    25   12   38 1    
    26   13   39 1    
    27   14   15 1    
    28   14   16 1    
    29   14   40 1    
    30   15   41 1    
    31   16   17 1    
    32   16   42 1    
    33   17   18 1    
    34   17   26 1    
    35   18   19 2    
    36   18   43 1    
    37   19   20 1    
    38   20   21 ar   
    39   20   26 ar   
    40   21   22 1    
    41   21   23 ar   
    42   22   44 1    
    43   22   45 1    
    44   23   24 ar   
    45   24   25 ar   
    46   24   27 1    
    47   25   26 ar   
@<TRIPOS>SUBSTRUCTURE
     1 SAH401      1 GROUP   
@<TRIPOS>SET

