#    Name: 6ekz_1_SNP
#    Modification time : Fri May 22 19:28:35 2020

@<TRIPOS>MOLECULE
6ekz_1_SNP
   19    20     1     0     0
SMALL
NO_CHARGES


@<TRIPOS>ATOM
      1 C1         10.7680   10.3730    8.1130 C.ar      1 SNP413      0.0000 
      2 C2          9.8490   10.9130    7.2190 C.ar      1 SNP413      0.0000 
      3 C3          8.7050   10.2060    6.8470 C.ar      1 SNP413      0.0000 
      4 C4          8.4190    8.9330    7.3420 C.ar      1 SNP413      0.0000 
      5 C5          9.0170    7.0480    8.7480 C.ar      1 SNP413      0.0000 
      6 C6          9.9110    6.4710    9.6450 C.ar      1 SNP413      0.0000 
      7 C7         11.0680    7.1390   10.0470 C.ar      1 SNP413      0.0000 
      8 C8         11.3730    8.4090    9.5650 C.ar      1 SNP413      0.0000 
      9 C9         10.5080    9.0200    8.6680 C.ar      1 SNP413      0.0000 
     10 C10         9.2790    8.3130    8.2410 C.ar      1 SNP413      0.0000 
     11 O1         11.8880   11.0730    8.4730 O.3       1 SNP413      0.0000 
     12 C11        12.0060   12.4540    8.1340 C.3       1 SNP413      0.0000 
     13 C12        11.5490   13.3060    9.3120 C.3       1 SNP413      0.0000 
     14 O2         10.1410   13.1350    9.5080 O.3       1 SNP413      0.0000 
     15 C13        12.2930   12.8740   10.5700 C.3       1 SNP413      0.0000 
     16 N1         13.7220   12.8690   10.3240 N.4       1 SNP413      0.0000 
     17 C14        14.5280   14.0110   10.7120 C.3       1 SNP413      0.0000 
     18 C15        16.0030   13.7120   10.4740 C.3       1 SNP413      0.0000 
     19 C16        14.0890   15.2460    9.9350 C.3       1 SNP413      0.0000 
@<TRIPOS>BOND
     1    1    2 ar   
     2    1    9 ar   
     3    1   11 1    
     4    2    3 ar   
     5    3    4 ar   
     6    4   10 ar   
     7    5    6 ar   
     8    5   10 ar   
     9    6    7 ar   
    10    7    8 ar   
    11    8    9 ar   
    12    9   10 ar   
    13   11   12 1    
    14   12   13 1    
    15   13   14 1    
    16   13   15 1    
    17   15   16 1    
    18   16   17 1    
    19   17   18 1    
    20   17   19 1    
@<TRIPOS>SUBSTRUCTURE
     1 SNP413      1 GROUP   
@<TRIPOS>SET

