#    Name: 6ekz_2_SNP
#    Modification time : Fri May 22 19:28:39 2020

@<TRIPOS>MOLECULE
6ekz_2_SNP
   19    20     1     0     0
SMALL
NO_CHARGES


@<TRIPOS>ATOM
      1 C1          6.5550   11.3730   11.0470 C.ar      1 SNP414      0.0000 
      2 C2          7.3790   10.3130   10.6840 C.ar      1 SNP414      0.0000 
      3 C3          7.7340    9.3280   11.6070 C.ar      1 SNP414      0.0000 
      4 C4          7.2900    9.3490   12.9290 C.ar      1 SNP414      0.0000 
      5 C5          6.0090   10.4120   14.6940 C.ar      1 SNP414      0.0000 
      6 C6          5.1820   11.4570   15.0980 C.ar      1 SNP414      0.0000 
      7 C7          4.8000   12.4640   14.2120 C.ar      1 SNP414      0.0000 
      8 C8          5.2310   12.4630   12.8880 C.ar      1 SNP414      0.0000 
      9 C9          6.0570   11.4400   12.4440 C.ar      1 SNP414      0.0000 
     10 C10         6.4640   10.3690   13.3830 C.ar      1 SNP414      0.0000 
     11 O1          6.2120   12.3350   10.1340 O.3       1 SNP414      0.0000 
     12 C11         7.0340   12.5590    8.9910 C.3       1 SNP414      0.0000 
     13 C12         6.2530   13.3490    7.9480 C.3       1 SNP414      0.0000 
     14 O2          5.7300   14.5410    8.5450 O.3       1 SNP414      0.0000 
     15 C13         7.1770   13.7210    6.7950 C.3       1 SNP414      0.0000 
     16 N1          6.6400   14.8600    6.0770 N.4       1 SNP414      0.0000 
     17 C14         7.1770   15.2160    4.7770 C.3       1 SNP414      0.0000 
     18 C15         6.3320   14.5880    3.6750 C.3       1 SNP414      0.0000 
     19 C16         7.2270   16.7320    4.6310 C.3       1 SNP414      0.0000 
@<TRIPOS>BOND
     1    1    2 ar   
     2    1    9 ar   
     3    1   11 1    
     4    2    3 ar   
     5    3    4 ar   
     6    4   10 ar   
     7    5    6 ar   
     8    5   10 ar   
     9    6    7 ar   
    10    7    8 ar   
    11    8    9 ar   
    12    9   10 ar   
    13   11   12 1    
    14   12   13 1    
    15   13   14 1    
    16   13   15 1    
    17   15   16 1    
    18   16   17 1    
    19   17   18 1    
    20   17   19 1    
@<TRIPOS>SUBSTRUCTURE
     1 SNP414      1 GROUP   
@<TRIPOS>SET

