#    Name: 6ekz_2_SNP_CAVITY_N1_4
#    Modification time : Fri May 22 19:28:40 2020

@<TRIPOS>MOLECULE
6ekz_2_SNP_CAVITY_N1_4
   68     0     5     0     0
SMALL
NO_CHARGES


@<TRIPOS>ATOM
      1 OG         11.4500    9.4000   10.3300 O.3       1 SER1        0.0000 
      2 N           7.5700    7.4500    8.4200 N.am      2 ALA2        0.0000 
      3 N           7.8600    9.2000    7.2400 N.am      2 ALA2        0.0000 
      4 N           4.1600   12.7400   13.4900 N.am      2 ALA2        0.0000 
      5 O           5.1400   13.2600   14.5000 O.2       2 ALA2        0.0000 
      6 O           5.7900   11.9000   14.5700 O.2       2 ALA2        0.0000 
      7 O           6.7700   12.4200   15.5800 O.2       2 ALA2        0.0000 
      8 N           7.4200   11.0700   15.6400 N.am      2 ALA2        0.0000 
      9 O           7.7000   12.8100   14.4700 O.2       2 ALA2        0.0000 
     10 N           8.3500   11.4600   14.5300 N.am      2 ALA2        0.0000 
     11 N           9.2800   11.8500   13.4200 N.am      2 ALA2        0.0000 
     12 CZ          6.5600   11.9000    7.1100 C.ar      3 PHE5        0.0000 
     13 CZ          7.2100   10.5500    7.1800 C.ar      3 PHE5        0.0000 
     14 CZ          4.7500   11.2500   11.4500 C.ar      3 PHE5        0.0000 
     15 CZ          6.6900    7.2000   11.6500 C.ar      3 PHE5        0.0000 
     16 CZ          7.3400    5.8400   11.7200 C.ar      3 PHE5        0.0000 
     17 CZ          5.0400   12.9900   10.2700 C.ar      3 PHE5        0.0000 
     18 CZ          5.6900   11.6400   10.3400 C.ar      3 PHE5        0.0000 
     19 CZ          6.3300   10.2900   10.4000 C.ar      3 PHE5        0.0000 
     20 CZ          6.9800    8.9400   10.4700 C.ar      3 PHE5        0.0000 
     21 CZ          5.9700   13.3800    9.1600 C.ar      3 PHE5        0.0000 
     22 CZ          6.6200   12.0300    9.2300 C.ar      3 PHE5        0.0000 
     23 CZ          7.2600   10.6800    9.2900 C.ar      3 PHE5        0.0000 
     24 CZ          6.1000    8.6800   13.7000 C.ar      3 PHE5        0.0000 
     25 CZ          7.6700    7.7200   12.6600 C.ar      3 PHE5        0.0000 
     26 CZ          8.3200    6.3600   12.7200 C.ar      3 PHE5        0.0000 
     27 CZ          6.4300   10.5500   14.6400 C.ar      3 PHE5        0.0000 
     28 CZ          8.0100    9.5900   13.5900 C.ar      3 PHE5        0.0000 
     29 CA          6.6400    7.0700    9.5300 C.3       4 GLY6        0.0000 
     30 CA          6.9200    8.8100    8.3500 C.3       4 GLY6        0.0000 
     31 CA          8.1400   10.9400    6.0700 C.3       4 GLY6        0.0000 
     32 CA          4.1100   12.6100   11.3800 C.3       4 GLY6        0.0000 
     33 CA          5.4000    9.9000   11.5100 C.3       4 GLY6        0.0000 
     34 CA          6.0500    8.5500   11.5800 C.3       4 GLY6        0.0000 
     35 CA          8.2700    6.2300   10.6100 C.3       4 GLY6        0.0000 
     36 CA          9.4800    8.3600    8.3200 C.3       4 GLY6        0.0000 
     37 CA          8.4800   12.8100    7.0100 C.3       4 GLY6        0.0000 
     38 CA          9.1200   11.4600    7.0700 C.3       4 GLY6        0.0000 
     39 CA          4.8100   11.3800   13.5600 C.3       4 GLY6        0.0000 
     40 CA          5.0900   13.1300   12.3800 C.3       4 GLY6        0.0000 
     41 CA          5.7400   11.7700   12.4500 C.3       4 GLY6        0.0000 
     42 CA          6.3800   10.4200   12.5200 C.3       4 GLY6        0.0000 
     43 CA          7.0300    9.0700   12.5900 C.3       4 GLY6        0.0000 
     44 CA          6.0700   13.6500   13.3900 C.3       4 GLY6        0.0000 
     45 CA          8.9900   10.1100   14.6000 C.3       4 GLY6        0.0000 
     46 CA          8.6300   13.2000   13.3600 C.3       4 GLY6        0.0000 
     47 DU          7.6200    7.5900   10.5400 H         5 CUB7        0.0000 
     48 DU          7.9100    9.3300    9.3600 H         5 CUB7        0.0000 
     49 DU          8.5500    7.9700    9.4300 H         5 CUB7        0.0000 
     50 DU          9.2000    6.6200    9.5000 H         5 CUB7        0.0000 
     51 DU          7.5500   12.4200    8.1200 H         5 CUB7        0.0000 
     52 DU          8.1900   11.0700    8.1800 H         5 CUB7        0.0000 
     53 DU          8.8400    9.7200    8.2500 H         5 CUB7        0.0000 
     54 DU          6.6700   12.1600   11.3400 H         5 CUB7        0.0000 
     55 DU          7.3100   10.8100   11.4100 H         5 CUB7        0.0000 
     56 DU          7.9600    9.4600   11.4800 H         5 CUB7        0.0000 
     57 DU          8.6100    8.1100   11.5500 H         5 CUB7        0.0000 
     58 DU          7.6000   12.5500   10.2300 H         5 CUB7        0.0000 
     59 DU          8.2400   11.2000   10.3000 H         5 CUB7        0.0000 
     60 DU         10.1800    7.1400   10.5000 H         5 CUB7        0.0000 
     61 DU         10.4700    8.8800    9.3300 H         5 CUB7        0.0000 
     62 DU         10.1100   11.9800    8.0800 H         5 CUB7        0.0000 
     63 DU          6.7200   12.2900   13.4600 H         5 CUB7        0.0000 
     64 DU          7.3700   10.9400   13.5300 H         5 CUB7        0.0000 
     65 DU          7.6500   12.6800   12.3500 H         5 CUB7        0.0000 
     66 DU          8.5800   13.0700   11.2400 H         5 CUB7        0.0000 
     67 DU         10.8000   10.7600   10.2600 H         5 CUB7        0.0000 
     68 DU         10.2100   12.2400   12.3100 H         5 CUB7        0.0000 
@<TRIPOS>BOND
@<TRIPOS>SUBSTRUCTURE
     1 SER1        1 GROUP   
     2 ALA2        2 GROUP   
     3 PHE5       12 GROUP   
     4 GLY6       29 GROUP   
     5 CUB7       47 GROUP   
@<TRIPOS>SET

