#    Name: 6g71_1_PP9
#    Modification time : Fri May 22 19:27:07 2020

@<TRIPOS>MOLECULE
6g71_1_PP9
   42    46     1     0     0
SMALL
NO_CHARGES


@<TRIPOS>ATOM
      1 CHA         2.5710    3.2040   10.4050 C.2       1 PP9501      0.0000 
      2 CHB         5.7470    0.1660    8.4050 C.2       1 PP9501      0.0000 
      3 CHC         7.2220    3.5860    5.3460 C.2       1 PP9501      0.0000 
      4 CHD         4.2020    6.7220    7.5080 C.2       1 PP9501      0.0000 
      5 NA          4.2850    1.9220    9.1870 N.pl3     1 PP9501      0.0000 
      6 C1A         3.3210    2.0410   10.1320 C.2       1 PP9501      0.0000 
      7 C2A         3.2450    0.8080   10.8540 C.2       1 PP9501      0.0000 
      8 C3A         4.1300   -0.0490   10.2670 C.2       1 PP9501      0.0000 
      9 C4A         4.7700    0.6640    9.1930 C.2       1 PP9501      0.0000 
     10 CMA         4.4000   -1.4640   10.7130 C.3       1 PP9501      0.0000 
     11 CAA         2.3340    0.4730   12.0470 C.3       1 PP9501      0.0000 
     12 CBA         1.3630   -0.6610   11.6980 C.3       1 PP9501      0.0000 
     13 CGA         0.6290   -1.2860   12.8980 C.2       1 PP9501      0.0000 
     14 O1A         0.9600   -0.9280   14.0770 O.co2     1 PP9501      0.0000 
     15 O2A        -0.2700   -2.1700   12.6360 O.co2     1 PP9501      0.0000 
     16 NB          6.3090    2.0780    7.0950 N.2       1 PP9501      0.0000 
     17 C1B         6.4180    0.8130    7.3820 C.2       1 PP9501      0.0000 
     18 C2B         7.3060    0.1620    6.4690 C.2       1 PP9501      0.0000 
     19 C3B         7.7220    1.1070    5.5580 C.2       1 PP9501      0.0000 
     20 C4B         7.0640    2.3580    5.9990 C.2       1 PP9501      0.0000 
     21 CMB         7.6560   -1.3090    6.4280 C.3       1 PP9501      0.0000 
     22 CAB         8.6120    1.0630    4.3550 C.2       1 PP9501      0.0000 
     23 CBB         8.9600   -0.0060    3.7050 C.2       1 PP9501      0.0000 
     24 NC          5.6120    4.8970    6.6090 N.pl3     1 PP9501      0.0000 
     25 C1C         6.5260    4.7540    5.6290 C.2       1 PP9501      0.0000 
     26 C2C         6.6370    6.0060    4.9470 C.2       1 PP9501      0.0000 
     27 C3C         5.8050    6.8970    5.5960 C.2       1 PP9501      0.0000 
     28 C4C         5.1700    6.1780    6.6540 C.2       1 PP9501      0.0000 
     29 CMC         7.5500    6.2820    3.7550 C.3       1 PP9501      0.0000 
     30 CAC         5.4750    8.3250    5.3460 C.2       1 PP9501      0.0000 
     31 CBC         5.9170    9.0100    4.3100 C.2       1 PP9501      0.0000 
     32 ND          3.5620    4.7160    8.7640 N.2       1 PP9501      0.0000 
     33 C1D         3.4960    6.0160    8.4600 C.2       1 PP9501      0.0000 
     34 C2D         2.4920    6.6260    9.3340 C.2       1 PP9501      0.0000 
     35 C3D         2.0360    5.6580   10.1300 C.2       1 PP9501      0.0000 
     36 C4D         2.7570    4.4320    9.7680 C.2       1 PP9501      0.0000 
     37 CMD         2.0660    8.0650    9.3530 C.3       1 PP9501      0.0000 
     38 CAD         0.9950    5.8030   11.2270 C.3       1 PP9501      0.0000 
     39 CBD        -0.3870    5.3850   10.7550 C.3       1 PP9501      0.0000 
     40 CGD        -1.4500    5.3600   11.8610 C.2       1 PP9501      0.0000 
     41 O1D        -2.6470    5.3330   11.4730 O.co2     1 PP9501      0.0000 
     42 O2D        -1.1740    5.3190   13.1020 O.co2     1 PP9501      0.0000 
@<TRIPOS>BOND
     1    1    6 2    
     2    1   36 1    
     3    2    9 2    
     4    2   17 1    
     5    3   20 2    
     6    3   25 1    
     7    4   28 1    
     8    4   33 2    
     9    5    6 1    
    10    5    9 1    
    11    6    7 1    
    12    7    8 2    
    13    7   11 1    
    14    8    9 1    
    15    8   10 1    
    16   11   12 1    
    17   12   13 1    
    18   13   14 ar   
    19   13   15 ar   
    20   16   17 2    
    21   16   20 1    
    22   17   18 1    
    23   18   19 2    
    24   18   21 1    
    25   19   20 1    
    26   19   22 1    
    27   22   23 2    
    28   24   25 1    
    29   24   28 1    
    30   25   26 2    
    31   26   27 1    
    32   26   29 1    
    33   27   28 2    
    34   27   30 1    
    35   30   31 2    
    36   32   33 1    
    37   32   36 2    
    38   33   34 1    
    39   34   35 2    
    40   34   37 1    
    41   35   36 1    
    42   35   38 1    
    43   38   39 1    
    44   39   40 1    
    45   40   41 ar   
    46   40   42 ar   
@<TRIPOS>SUBSTRUCTURE
     1 PP9501      1 GROUP   
@<TRIPOS>SET

