#    Name: 6fyp_1_3NG
#    Modification time : Fri May 22 19:24:48 2020

@<TRIPOS>MOLECULE
6fyp_1_3NG
   25    28     1     0     0
SMALL
NO_CHARGES


@<TRIPOS>ATOM
      1 C1         -8.4930  -16.9820   15.8170 C.ar      1 3NG501      0.0000 
      2 C2         -8.2490  -17.1200   14.4310 C.ar      1 3NG501      0.0000 
      3 C3         -7.9720  -18.4310   13.9560 C.ar      1 3NG501      0.0000 
      4 C4         -7.9530  -19.5350   14.8260 C.ar      1 3NG501      0.0000 
      5 C5         -8.1950  -19.3620   16.2050 C.ar      1 3NG501      0.0000 
      6 C6         -8.4720  -18.0780   16.6880 C.ar      1 3NG501      0.0000 
      7 C7         -8.5820  -14.6980   14.2420 C.ar      1 3NG501      0.0000 
      8 C8         -8.2950  -15.9430   13.6330 C.ar      1 3NG501      0.0000 
      9 N9         -8.7700  -15.7760   16.3640 N.ar      1 3NG501      0.0000 
     10 C10        -8.8240  -14.6370   15.6290 C.ar      1 3NG501      0.0000 
     11 C11        -8.3910  -13.6110   12.0650 C.ar      1 3NG501      0.0000 
     12 N12        -8.1280  -14.8030   11.4900 N.ar      1 3NG501      0.0000 
     13 C13        -8.0870  -15.9280   12.2320 C.ar      1 3NG501      0.0000 
     14 C14        -8.6270  -13.5380   13.4460 C.ar      1 3NG501      0.0000 
     15 N15        -9.1080  -13.4590   16.2590 N.pl3     1 3NG501      0.0000 
     16 C16        -9.2120  -13.2520   17.6030 C.ar      1 3NG501      0.0000 
     17 C17        -8.3380  -13.8510   18.5210 C.ar      1 3NG501      0.0000 
     18 C18        -8.4560  -13.6150   19.8940 C.ar      1 3NG501      0.0000 
     19 C19        -9.4590  -12.7550   20.3780 C.ar      1 3NG501      0.0000 
     20 C20       -10.3370  -12.1430   19.4740 C.ar      1 3NG501      0.0000 
     21 C21       -10.2150  -12.3950   18.0980 C.ar      1 3NG501      0.0000 
     22 CL22       -7.3380  -14.4100   20.9940 Cl        1 3NG501      0.0000 
     23 C23        -8.2070  -20.5580   17.1330 C.2       1 3NG501      0.0000 
     24 O24        -8.5940  -21.7360   16.6230 O.co2     1 3NG501      0.0000 
     25 O25        -7.9540  -20.4430   18.3260 O.co2     1 3NG501      0.0000 
@<TRIPOS>BOND
     1    1    2 ar   
     2    1    6 ar   
     3    1    9 ar   
     4    2    3 ar   
     5    2    8 ar   
     6    3    4 ar   
     7    4    5 ar   
     8    5    6 ar   
     9    5   23 1    
    10    7    8 ar   
    11    7   10 ar   
    12    7   14 ar   
    13    8   13 ar   
    14    9   10 ar   
    15   10   15 1    
    16   11   12 ar   
    17   11   14 ar   
    18   12   13 ar   
    19   15   16 1    
    20   16   17 ar   
    21   16   21 ar   
    22   17   18 ar   
    23   18   19 ar   
    24   18   22 1    
    25   19   20 ar   
    26   20   21 ar   
    27   23   24 ar   
    28   23   25 ar   
@<TRIPOS>SUBSTRUCTURE
     1 3NG501      1 GROUP   
@<TRIPOS>SET

