#    Name: 6pv7_1_NCT
#    Modification time : Fri May 22 19:34:58 2020

@<TRIPOS>MOLECULE
6pv7_1_NCT
   12    13     1     0     0
SMALL
NO_CHARGES


@<TRIPOS>ATOM
      1 N1        146.5010  135.1170  181.4590 N.ar      1 NCT701      0.0000 
      2 C1        145.7860  136.2250  181.4620 C.ar      1 NCT701      0.0000 
      3 C2        144.4430  136.1910  181.7660 C.ar      1 NCT701      0.0000 
      4 C3        143.8600  134.9710  182.0560 C.ar      1 NCT701      0.0000 
      5 C4        144.6370  133.8250  182.0410 C.ar      1 NCT701      0.0000 
      6 C5        145.9750  133.9430  181.7330 C.ar      1 NCT701      0.0000 
      7 N2        144.4510  138.6220  182.1330 N.4       1 NCT701      0.0000 
      8 C6        143.6180  137.4480  181.7710 C.3       1 NCT701      0.0000 
      9 C7        143.0890  137.7230  180.3460 C.3       1 NCT701      0.0000 
     10 C8        143.1730  139.2510  180.2050 C.3       1 NCT701      0.0000 
     11 C9        144.3990  139.6070  181.0400 C.3       1 NCT701      0.0000 
     12 C10       143.7380  139.2760  183.2300 C.3       1 NCT701      0.0000 
@<TRIPOS>BOND
     1    1    2 ar   
     2    1    6 ar   
     3    2    3 ar   
     4    3    4 ar   
     5    3    8 1    
     6    4    5 ar   
     7    5    6 ar   
     8    7    8 1    
     9    7   11 1    
    10    7   12 1    
    11    8    9 1    
    12    9   10 1    
    13   10   11 1    
@<TRIPOS>SUBSTRUCTURE
     1 NCT701      1 GROUP   
@<TRIPOS>SET

